data_SERWAP_freeONLY_PM
_symmetry_space_group_name_H-M	'P1'
_cell_length_a	15.151300
_cell_length_b	22.044000
_cell_length_c	22.044000
_cell_angle_alpha	90.000000
_cell_angle_beta	90.000000
_cell_angle_gamma	90.000000
_symmetry_Int_Tables_number 1

loop_
_symmetry_equiv_pos_as_xyz
'x,y,z'

loop_
_atom_site_label
_atom_site_type_symbol
_atom_site_fract_x
_atom_site_fract_y
_atom_site_fract_z
Zn11	Zn1	0.985710	0.500000	0.500000
Zn21	Zn2	0.487110	0.500000	0.500000
Zn31	Zn3	0.000540	0.000000	0.000000
Zn41	Zn4	0.502390	0.000000	0.000000
Si11	Si1	0.737100	0.500000	0.500000
Si21	Si2	0.237000	0.500000	0.500000
Si31	Si3	0.752000	0.000000	0.000000
Si41	Si4	0.248800	0.000000	0.000000
H11	H1	0.880700	0.536900	0.610800
H21	H2	0.878500	0.613100	0.684700
H31	H3	0.088300	0.694000	0.604300
H41	H4	0.090500	0.617800	0.530400
H51	H5	0.994300	0.854500	0.727500
H61	H6	0.969100	0.647400	0.770400
H71	H7	0.055500	0.869100	0.624700
H81	H8	0.951200	0.871900	0.637500
H91	H9	0.918600	0.842000	0.545300
H101	H10	0.930400	0.935100	0.545400
H111	H11	0.076000	0.804000	0.508000
H121	H12	0.981400	0.797800	0.476300
H131	H13	0.040300	0.856900	0.464800
H141	H14	0.016600	0.626200	0.863600
H151	H15	0.084500	0.671800	0.896900
H161	H16	0.910700	0.664500	0.960800
H171	H17	0.004800	0.580800	0.001700
H181	H18	0.094400	0.644000	0.989500
H191	H19	0.068300	0.711600	0.969800
H201	H20	0.027500	0.682700	0.030200
H211	H21	0.095700	0.885000	0.811100
H221	H22	0.099300	0.959700	0.887000
H231	H23	0.894600	0.889500	0.963800
H241	H24	0.885300	0.814400	0.893400
H251	H25	0.594700	0.536200	0.612700
H261	H26	0.600500	0.604300	0.687400
H271	H27	0.387600	0.688300	0.611300
H281	H28	0.384700	0.609200	0.543000
H291	H29	0.504100	0.730500	0.852900
H301	H30	0.484300	0.773600	0.645400
H311	H31	0.404500	0.612100	0.834800
H321	H32	0.483400	0.636600	0.876900
H331	H33	0.560500	0.544400	0.842700
H341	H34	0.520700	0.554700	0.941500
H351	H35	0.467600	0.504500	0.771200
H361	H36	0.456700	0.459800	0.827900
H371	H37	0.382900	0.509900	0.814300
H381	H38	0.549800	0.864500	0.630200
H391	H39	0.444200	0.873500	0.631900
H401	H40	0.573900	0.964700	0.666000
H411	H41	0.531100	0.936900	0.566800
H421	H42	0.448800	0.986300	0.725600
H431	H43	0.466200	0.037600	0.675600
H441	H44	0.390100	0.988300	0.665300
H451	H45	0.609200	0.814500	0.881400
H461	H46	0.610100	0.886800	0.959200
H471	H47	0.398100	0.969500	0.883400
H481	H48	0.397300	0.897300	0.805600
H491	H49	0.880700	0.463100	0.389200
H501	H50	0.878500	0.386900	0.315300
H511	H51	0.088300	0.306000	0.395700
H521	H52	0.090500	0.382200	0.469600
H531	H53	0.994300	0.145500	0.272500
H541	H54	0.969100	0.352600	0.229600
H551	H55	0.055500	0.130900	0.375300
H561	H56	0.951200	0.128100	0.362500
H571	H57	0.918600	0.158000	0.454700
H581	H58	0.930400	0.064900	0.454600
H591	H59	0.076000	0.196000	0.492000
H601	H60	0.981400	0.202200	0.523700
H611	H61	0.040300	0.143100	0.535200
H621	H62	0.016600	0.373800	0.136400
H631	H63	0.084500	0.328200	0.103100
H641	H64	0.910700	0.335500	0.039200
H651	H65	0.004800	0.419200	0.998300
H661	H66	0.094400	0.356000	0.010500
H671	H67	0.068300	0.288400	0.030200
H681	H68	0.027500	0.317300	0.969800
H691	H69	0.095700	0.115000	0.188900
H701	H70	0.099300	0.040300	0.113000
H711	H71	0.894600	0.110500	0.036200
H721	H72	0.885300	0.185600	0.106600
H731	H73	0.594700	0.463800	0.387300
H741	H74	0.600500	0.395700	0.312600
H751	H75	0.387600	0.311700	0.388700
H761	H76	0.384700	0.390800	0.457000
H771	H77	0.504100	0.269500	0.147100
H781	H78	0.484300	0.226400	0.354600
H791	H79	0.404500	0.387900	0.165200
H801	H80	0.483400	0.363400	0.123100
H811	H81	0.560500	0.455600	0.157300
H821	H82	0.520700	0.445300	0.058500
H831	H83	0.467600	0.495500	0.228800
H841	H84	0.456700	0.540200	0.172100
H851	H85	0.382900	0.490100	0.185700
H861	H86	0.549800	0.135500	0.369800
H871	H87	0.444200	0.126500	0.368100
H881	H88	0.573900	0.035300	0.334000
H891	H89	0.531100	0.063100	0.433200
H901	H90	0.448800	0.013700	0.274400
H911	H91	0.466200	0.962400	0.324400
H921	H92	0.390100	0.011700	0.334700
H931	H93	0.609200	0.185500	0.118600
H941	H94	0.610100	0.113200	0.040800
H951	H95	0.398100	0.030500	0.116600
H961	H96	0.397300	0.102700	0.194400
H971	H97	0.880700	0.389200	0.536900
H981	H98	0.878500	0.315300	0.613100
H991	H99	0.088300	0.395700	0.694000
H1001	H100	0.090500	0.469600	0.617800
H1011	H101	0.994300	0.272500	0.854500
H1021	H102	0.969100	0.229600	0.647400
H1031	H103	0.055500	0.375300	0.869100
H1041	H104	0.951200	0.362500	0.871900
H1051	H105	0.918600	0.454700	0.842000
H1061	H106	0.930400	0.454600	0.935100
H1071	H107	0.076000	0.492000	0.804000
H1081	H108	0.981400	0.523700	0.797800
H1091	H109	0.040300	0.535200	0.856900
H1101	H110	0.016600	0.136400	0.626200
H1111	H111	0.084500	0.103100	0.671800
H1121	H112	0.910700	0.039200	0.664500
H1131	H113	0.004800	0.998300	0.580800
H1141	H114	0.094400	0.010500	0.644000
H1151	H115	0.068300	0.030200	0.711600
H1161	H116	0.027500	0.969800	0.682700
H1171	H117	0.095700	0.188900	0.885000
H1181	H118	0.099300	0.113000	0.959700
H1191	H119	0.894600	0.036200	0.889500
H1201	H120	0.885300	0.106600	0.814400
H1211	H121	0.594700	0.387300	0.536200
H1221	H122	0.600500	0.312600	0.604300
H1231	H123	0.387600	0.388700	0.688300
H1241	H124	0.384700	0.457000	0.609200
H1251	H125	0.504100	0.147100	0.730500
H1261	H126	0.484300	0.354600	0.773600
H1271	H127	0.404500	0.165200	0.612100
H1281	H128	0.483400	0.123100	0.636600
H1291	H129	0.560500	0.157300	0.544400
H1301	H130	0.520700	0.058500	0.554700
H1311	H131	0.467600	0.228800	0.504500
H1321	H132	0.456700	0.172100	0.459800
H1331	H133	0.382900	0.185700	0.509900
H1341	H134	0.549800	0.369800	0.864500
H1351	H135	0.444200	0.368100	0.873500
H1361	H136	0.573900	0.334000	0.964700
H1371	H137	0.531100	0.433200	0.936900
H1381	H138	0.448800	0.274400	0.986300
H1391	H139	0.466200	0.324400	0.037600
H1401	H140	0.390100	0.334700	0.988300
H1411	H141	0.609200	0.118600	0.814500
H1421	H142	0.610100	0.040800	0.886800
H1431	H143	0.398100	0.116600	0.969500
H1441	H144	0.397300	0.194400	0.897300
H1451	H145	0.880700	0.610800	0.463100
H1461	H146	0.878500	0.684700	0.386900
H1471	H147	0.088300	0.604300	0.306000
H1481	H148	0.090500	0.530400	0.382200
H1491	H149	0.994300	0.727500	0.145500
H1501	H150	0.969100	0.770400	0.352600
H1511	H151	0.055500	0.624700	0.130900
H1521	H152	0.951200	0.637500	0.128100
H1531	H153	0.918600	0.545300	0.158000
H1541	H154	0.930400	0.545400	0.064900
H1551	H155	0.076000	0.508000	0.196000
H1561	H156	0.981400	0.476300	0.202200
H1571	H157	0.040300	0.464800	0.143100
H1581	H158	0.016600	0.863600	0.373800
H1591	H159	0.084500	0.896900	0.328200
H1601	H160	0.910700	0.960800	0.335500
H1611	H161	0.004800	0.001700	0.419200
H1621	H162	0.094400	0.989500	0.356000
H1631	H163	0.068300	0.969800	0.288400
H1641	H164	0.027500	0.030200	0.317300
H1651	H165	0.095700	0.811100	0.115000
H1661	H166	0.099300	0.887000	0.040300
H1671	H167	0.894600	0.963800	0.110500
H1681	H168	0.885300	0.893400	0.185600
H1691	H169	0.594700	0.612700	0.463800
H1701	H170	0.600500	0.687400	0.395700
H1711	H171	0.387600	0.611300	0.311700
H1721	H172	0.384700	0.543000	0.390800
H1731	H173	0.504100	0.852900	0.269500
H1741	H174	0.484300	0.645400	0.226400
H1751	H175	0.404500	0.834800	0.387900
H1761	H176	0.483400	0.876900	0.363400
H1771	H177	0.560500	0.842700	0.455600
H1781	H178	0.520700	0.941500	0.445300
H1791	H179	0.467600	0.771200	0.495500
H1801	H180	0.456700	0.827900	0.540200
H1811	H181	0.382900	0.814300	0.490100
H1821	H182	0.549800	0.630200	0.135500
H1831	H183	0.444200	0.631900	0.126500
H1841	H184	0.573900	0.666000	0.035300
H1851	H185	0.531100	0.566800	0.063100
H1861	H186	0.448800	0.725600	0.013700
H1871	H187	0.466200	0.675600	0.962400
H1881	H188	0.390100	0.665300	0.011700
H1891	H189	0.609200	0.881400	0.185500
H1901	H190	0.610100	0.959200	0.113200
H1911	H191	0.398100	0.883400	0.030500
H1921	H192	0.397300	0.805600	0.102700
C11	C1	0.922900	0.568800	0.609500
C21	C2	0.921500	0.614100	0.653400
C31	C3	0.983200	0.660700	0.651500
C41	C4	0.046200	0.662100	0.605600
C51	C5	0.047500	0.616900	0.561700
C61	C6	0.986400	0.708400	0.702600
C71	C7	0.987000	0.768200	0.688800
C81	C8	0.991300	0.812500	0.736700
C91	C9	0.991100	0.792000	0.799200
C101	C10	0.981100	0.728900	0.808100
C111	C11	0.977700	0.689300	0.762100
C121	C12	0.997900	0.850700	0.614300
C131	C13	0.981000	0.856500	0.548500
C141	C14	0.023300	0.826100	0.494700
C151	C15	0.021500	0.661800	0.890800
C161	C16	0.972500	0.650300	0.953700
C171	C17	0.046800	0.674100	0.988700
C181	C18	0.992700	0.838400	0.846000
C191	C19	0.054100	0.883900	0.843300
C201	C20	0.055100	0.929100	0.888700
C211	C21	0.937500	0.888200	0.932400
C221	C22	0.932000	0.843100	0.891000
C231	C23	0.551500	0.567400	0.613200
C241	C24	0.555600	0.607300	0.657500
C251	C25	0.493100	0.654700	0.660400
C261	C26	0.429700	0.656400	0.613800
C271	C27	0.431100	0.610200	0.572000
C281	C28	0.492300	0.705000	0.707200
C291	C29	0.498200	0.692200	0.768800
C301	C30	0.500100	0.739200	0.810800
C311	C31	0.496100	0.799100	0.791100
C321	C32	0.490200	0.811900	0.729500
C331	C33	0.488300	0.764900	0.687600
C341	C34	0.469000	0.610300	0.841800
C351	C35	0.496700	0.547200	0.854100
C361	C36	0.446300	0.501100	0.813000
C371	C37	0.500600	0.885000	0.651400
C381	C38	0.513100	0.954900	0.651300
C391	C39	0.449200	0.995200	0.682100
C401	C40	0.503200	0.849100	0.836200
C411	C41	0.566400	0.846000	0.881800
C421	C42	0.566900	0.888900	0.928000
C431	C43	0.441000	0.938100	0.883000
C441	C44	0.440500	0.895100	0.836800
C451	C45	0.922900	0.431200	0.390500
C461	C46	0.921500	0.385900	0.346600
C471	C47	0.983200	0.339300	0.348500
C481	C48	0.046200	0.337900	0.394400
C491	C49	0.047500	0.383100	0.438300
C501	C50	0.986400	0.291600	0.297400
C511	C51	0.987000	0.231800	0.311200
C521	C52	0.991300	0.187500	0.263300
C531	C53	0.991100	0.208000	0.200800
C541	C54	0.981100	0.271100	0.191900
C551	C55	0.977700	0.310700	0.237900
C561	C56	0.997900	0.149300	0.385700
C571	C57	0.981000	0.143500	0.451500
C581	C58	0.023300	0.173900	0.505300
C591	C59	0.021500	0.338200	0.109200
C601	C60	0.972500	0.349700	0.046300
C611	C61	0.046800	0.325900	0.011300
C621	C62	0.992700	0.161600	0.154000
C631	C63	0.054100	0.116100	0.156700
C641	C64	0.055100	0.070900	0.111300
C651	C65	0.937500	0.111800	0.067600
C661	C66	0.932000	0.156900	0.109000
C671	C67	0.551500	0.432600	0.386800
C681	C68	0.555600	0.392700	0.342500
C691	C69	0.493100	0.345300	0.339600
C701	C70	0.429700	0.343600	0.386200
C711	C71	0.431100	0.389800	0.428000
C721	C72	0.492300	0.295000	0.292800
C731	C73	0.498200	0.307800	0.231200
C741	C74	0.500100	0.260800	0.189200
C751	C75	0.496100	0.200900	0.208900
C761	C76	0.490200	0.188100	0.270500
C771	C77	0.488300	0.235100	0.312400
C781	C78	0.469000	0.389700	0.158200
C791	C79	0.496700	0.452800	0.145900
C801	C80	0.446300	0.498900	0.187000
C811	C81	0.500600	0.115000	0.348600
C821	C82	0.513100	0.045100	0.348700
C831	C83	0.449200	0.004800	0.317900
C841	C84	0.503200	0.150900	0.163800
C851	C85	0.566400	0.154000	0.118200
C861	C86	0.566900	0.111100	0.072000
C871	C87	0.441000	0.061900	0.117000
C881	C88	0.440500	0.104900	0.163200
C891	C89	0.922900	0.390500	0.568800
C901	C90	0.921500	0.346600	0.614100
C911	C91	0.983200	0.348500	0.660700
C921	C92	0.046200	0.394400	0.662100
C931	C93	0.047500	0.438300	0.616900
C941	C94	0.986400	0.297400	0.708400
C951	C95	0.987000	0.311200	0.768200
C961	C96	0.991300	0.263300	0.812500
C971	C97	0.991100	0.200800	0.792000
C981	C98	0.981100	0.191900	0.728900
C991	C99	0.977700	0.237900	0.689300
C1001	C100	0.997900	0.385700	0.850700
C1011	C101	0.981000	0.451500	0.856500
C1021	C102	0.023300	0.505300	0.826100
C1031	C103	0.021500	0.109200	0.661800
C1041	C104	0.972500	0.046300	0.650300
C1051	C105	0.046800	0.011300	0.674100
C1061	C106	0.992700	0.154000	0.838400
C1071	C107	0.054100	0.156700	0.883900
C1081	C108	0.055100	0.111300	0.929100
C1091	C109	0.937500	0.067600	0.888200
C1101	C110	0.932000	0.109000	0.843100
C1111	C111	0.551500	0.386800	0.567400
C1121	C112	0.555600	0.342500	0.607300
C1131	C113	0.493100	0.339600	0.654700
C1141	C114	0.429700	0.386200	0.656400
C1151	C115	0.431100	0.428000	0.610200
C1161	C116	0.492300	0.292800	0.705000
C1171	C117	0.498200	0.231200	0.692200
C1181	C118	0.500100	0.189200	0.739200
C1191	C119	0.496100	0.208900	0.799100
C1201	C120	0.490200	0.270500	0.811900
C1211	C121	0.488300	0.312400	0.764900
C1221	C122	0.469000	0.158200	0.610300
C1231	C123	0.496700	0.145900	0.547200
C1241	C124	0.446300	0.187000	0.501100
C1251	C125	0.500600	0.348600	0.885000
C1261	C126	0.513100	0.348700	0.954900
C1271	C127	0.449200	0.317900	0.995200
C1281	C128	0.503200	0.163800	0.849100
C1291	C129	0.566400	0.118200	0.846000
C1301	C130	0.566900	0.072000	0.888900
C1311	C131	0.441000	0.117000	0.938100
C1321	C132	0.440500	0.163200	0.895100
C1331	C133	0.922900	0.609500	0.431200
C1341	C134	0.921500	0.653400	0.385900
C1351	C135	0.983200	0.651500	0.339300
C1361	C136	0.046200	0.605600	0.337900
C1371	C137	0.047500	0.561700	0.383100
C1381	C138	0.986400	0.702600	0.291600
C1391	C139	0.987000	0.688800	0.231800
C1401	C140	0.991300	0.736700	0.187500
C1411	C141	0.991100	0.799200	0.208000
C1421	C142	0.981100	0.808100	0.271100
C1431	C143	0.977700	0.762100	0.310700
C1441	C144	0.997900	0.614300	0.149300
C1451	C145	0.981000	0.548500	0.143500
C1461	C146	0.023300	0.494700	0.173900
C1471	C147	0.021500	0.890800	0.338200
C1481	C148	0.972500	0.953700	0.349700
C1491	C149	0.046800	0.988700	0.325900
C1501	C150	0.992700	0.846000	0.161600
C1511	C151	0.054100	0.843300	0.116100
C1521	C152	0.055100	0.888700	0.070900
C1531	C153	0.937500	0.932400	0.111800
C1541	C154	0.932000	0.891000	0.156900
C1551	C155	0.551500	0.613200	0.432600
C1561	C156	0.555600	0.657500	0.392700
C1571	C157	0.493100	0.660400	0.345300
C1581	C158	0.429700	0.613800	0.343600
C1591	C159	0.431100	0.572000	0.389800
C1601	C160	0.492300	0.707200	0.295000
C1611	C161	0.498200	0.768800	0.307800
C1621	C162	0.500100	0.810800	0.260800
C1631	C163	0.496100	0.791100	0.200900
C1641	C164	0.490200	0.729500	0.188100
C1651	C165	0.488300	0.687600	0.235100
C1661	C166	0.469000	0.841800	0.389700
C1671	C167	0.496700	0.854100	0.452800
C1681	C168	0.446300	0.813000	0.498900
C1691	C169	0.500600	0.651400	0.115000
C1701	C170	0.513100	0.651300	0.045100
C1711	C171	0.449200	0.682100	0.004800
C1721	C172	0.503200	0.836200	0.150900
C1731	C173	0.566400	0.881800	0.154000
C1741	C174	0.566900	0.928000	0.111100
C1751	C175	0.441000	0.883000	0.061900
C1761	C176	0.440500	0.836800	0.104900
N11	N1	0.985800	0.570210	0.563670
N21	N2	0.999200	0.930400	0.931800
N31	N3	0.490800	0.567300	0.568500
N41	N4	0.504200	0.934900	0.928600
N51	N5	0.985800	0.429790	0.436330
N61	N6	0.999200	0.069600	0.068200
N71	N7	0.490800	0.432700	0.431500
N81	N8	0.504200	0.065100	0.071400
N91	N9	0.985800	0.436330	0.570210
N101	N10	0.999200	0.068200	0.930400
N111	N11	0.490800	0.431500	0.567300
N121	N12	0.504200	0.071400	0.934900
N131	N13	0.985800	0.563670	0.429790
N141	N14	0.999200	0.931800	0.069600
N151	N15	0.490800	0.568500	0.432700
N161	N16	0.504200	0.928600	0.065100
O11	O1	0.998200	0.784500	0.629400
O21	O2	0.973500	0.918500	0.528100
O31	O3	0.972500	0.713000	0.867900
O41	O4	0.999000	0.586800	0.964200
O51	O5	0.517200	0.631500	0.786900
O61	O6	0.490600	0.530200	0.920900
O71	O7	0.500000	0.870100	0.714500
O81	O8	0.508600	0.966300	0.585500
O91	O9	0.998200	0.215500	0.370600
O101	O10	0.973500	0.081500	0.471900
O111	O11	0.972500	0.287000	0.132100
O121	O12	0.999000	0.413200	0.035800
O131	O13	0.517200	0.368500	0.213100
O141	O14	0.490600	0.469800	0.079100
O151	O15	0.500000	0.129900	0.285500
O161	O16	0.508600	0.033700	0.414500
O171	O17	0.998200	0.370600	0.784500
O181	O18	0.973500	0.471900	0.918500
O191	O19	0.972500	0.132100	0.713000
O201	O20	0.999000	0.035800	0.586800
O211	O21	0.517200	0.213100	0.631500
O221	O22	0.490600	0.079100	0.530200
O231	O23	0.500000	0.285500	0.870100
O241	O24	0.508600	0.414500	0.966300
O251	O25	0.998200	0.629400	0.215500
O261	O26	0.973500	0.528100	0.081500
O271	O27	0.972500	0.867900	0.287000
O281	O28	0.999000	0.964200	0.413200
O291	O29	0.517200	0.786900	0.368500
O301	O30	0.490600	0.920900	0.469800
O311	O31	0.500000	0.714500	0.129900
O321	O32	0.508600	0.585500	0.033700
F11	F1	0.740500	0.483100	0.573460
F21	F2	0.232000	0.427300	0.502600
F31	F3	0.753300	0.073210	0.980970
F41	F4	0.251500	0.927700	0.990500
F51	F5	0.740500	0.516900	0.426540
F61	F6	0.232000	0.572700	0.497400
F71	F7	0.753300	0.926790	0.019030
F81	F8	0.251500	0.072300	0.009500
F91	F9	0.740500	0.426540	0.483100
F101	F10	0.232000	0.497400	0.427300
F111	F11	0.753300	0.019030	0.073210
F121	F12	0.251500	0.009500	0.927700
F131	F13	0.740500	0.573460	0.516900
F141	F14	0.232000	0.502600	0.572700
F151	F15	0.753300	0.980970	0.926790
F161	F16	0.251500	0.990500	0.072300
F171	F17	0.122600	0.500000	0.500000
F181	F18	0.850900	0.500000	0.500000
F191	F19	0.624000	0.500000	0.500000
F201	F20	0.347200	0.500000	0.500000
F211	F21	0.861100	0.000000	0.000000
F221	F22	0.633600	0.000000	0.000000
F231	F23	0.366900	0.000000	0.000000
F241	F24	0.142100	0.000000	0.000000
