data_SETQUF_SL_PM
_symmetry_space_group_name_H-M	'P1'
_cell_length_a	11.257700
_cell_length_b	11.257700
_cell_length_c	15.904900
_cell_angle_alpha	115.847500
_cell_angle_beta	115.847500
_cell_angle_gamma	90.865700
_symmetry_Int_Tables_number 1

loop_
_symmetry_equiv_pos_as_xyz
'x,y,z'

loop_
_atom_site_label
_atom_site_type_symbol
_atom_site_fract_x
_atom_site_fract_y
_atom_site_fract_z
H11	H1	0.920440	0.816300	0.426450
H21	H2	0.867760	0.981420	0.372530
H31	H3	0.572510	0.686750	0.077470
H41	H4	0.625190	0.521630	0.131390
C51	C5	0.777180	0.655260	0.283390
C61	C6	0.847900	0.789300	0.353690
C71	C7	0.817180	0.885540	0.322250
C81	C8	0.715770	0.847790	0.220530
C91	C9	0.645060	0.713760	0.150240
C101	C10	0.675770	0.617510	0.181670
C111	C11	0.810150	0.551970	0.317120
C121	C12	0.682800	0.951080	0.186800
O131	O13	0.746550	0.427330	0.251270
O141	O14	0.902230	0.587390	0.412120
O151	O15	0.583670	0.917450	0.094690
O161	O16	0.753460	0.073940	0.249770
O171	O17	0.661830	0.147950	0.093350
H181	H18	0.199490	0.707030	0.565690
H191	H19	0.183700	0.079560	0.073550
H201	H20	0.018580	0.132240	0.127470
H211	H21	0.313250	0.427490	0.422530
H221	H22	0.478370	0.374810	0.368610
C231	C23	0.344740	0.222820	0.216610
C241	C24	0.210700	0.152100	0.146310
C251	C25	0.114460	0.182820	0.177750
C261	C26	0.152210	0.284230	0.279470
C271	C27	0.286240	0.354940	0.349760
C281	C28	0.382490	0.324230	0.318330
C291	C29	0.448030	0.189850	0.182880
C301	C30	0.048920	0.317200	0.313200
O311	O31	0.572670	0.253450	0.248730
O321	O32	0.412610	0.097770	0.087880
O331	O33	0.082550	0.416330	0.405310
O341	O34	0.926060	0.246540	0.250230
O351	O35	0.852050	0.338170	0.406650
H361	H36	0.292970	0.800510	0.934310
H371	H37	0.079560	0.183700	0.573550
H381	H38	0.132240	0.018580	0.627470
H391	H39	0.427490	0.313250	0.922530
H401	H40	0.374810	0.478370	0.868610
C411	C41	0.222820	0.344740	0.716610
C421	C42	0.152100	0.210700	0.646310
C431	C43	0.182820	0.114460	0.677750
C441	C44	0.284230	0.152210	0.779470
C451	C45	0.354940	0.286240	0.849760
C461	C46	0.324230	0.382490	0.818330
C471	C47	0.189850	0.448030	0.682880
C481	C48	0.317200	0.048920	0.813200
O491	O49	0.253450	0.572670	0.748730
O501	O50	0.097770	0.412610	0.587880
O511	O51	0.416330	0.082550	0.905310
O521	O52	0.246540	0.926060	0.750230
O531	O53	0.338170	0.852050	0.906650
H541	H54	0.800510	0.292970	0.434310
H551	H55	0.816300	0.920440	0.926450
H561	H56	0.981420	0.867760	0.872530
H571	H57	0.686750	0.572510	0.577470
H581	H58	0.521630	0.625190	0.631390
C591	C59	0.655260	0.777180	0.783390
C601	C60	0.789300	0.847900	0.853690
C611	C61	0.885540	0.817180	0.822250
C621	C62	0.847790	0.715770	0.720530
C631	C63	0.713760	0.645060	0.650240
C641	C64	0.617510	0.675770	0.681670
C651	C65	0.551970	0.810150	0.817120
C661	C66	0.951080	0.682800	0.686800
O671	O67	0.427330	0.746550	0.751270
O681	O68	0.587390	0.902230	0.912120
O691	O69	0.917450	0.583670	0.594690
O701	O70	0.073940	0.753460	0.749770
O711	O71	0.147950	0.661830	0.593350
H721	H72	0.707030	0.199490	0.065690
Fe731	Fe73	0.751770	0.248230	0.250000
Fe741	Fe74	0.248230	0.751770	0.750000
Fe751	Fe75	0.500000	0.000000	0.000000
Fe761	Fe76	0.000000	0.500000	0.500000
