data_SETWUL_freeONLY_PM
_symmetry_space_group_name_H-M	'P1'
_cell_length_a	10.549000
_cell_length_b	10.842000
_cell_length_c	13.800000
_cell_angle_alpha	87.135000
_cell_angle_beta	72.428000
_cell_angle_gamma	66.412000
_symmetry_Int_Tables_number 1

loop_
_symmetry_equiv_pos_as_xyz
'x,y,z'

loop_
_atom_site_label
_atom_site_type_symbol
_atom_site_fract_x
_atom_site_fract_y
_atom_site_fract_z
Co11	Co1	0.503620	0.318220	0.157930
Co21	Co2	0.496380	0.681780	0.842070
Mo11	Mo1	0.974950	0.498600	0.133990
Mo21	Mo2	0.675580	0.790880	0.131270
Mo31	Mo3	0.989960	0.770850	0.982500
Mo41	Mo4	0.718560	0.516320	0.015170
Mo51	Mo5	0.025050	0.501400	0.866010
Mo61	Mo6	0.324420	0.209120	0.868730
Mo71	Mo7	0.010040	0.229150	0.017500
Mo81	Mo8	0.281440	0.483680	0.984830
H11	H1	0.498600	0.586400	0.274200
H21	H2	0.318000	0.745200	0.485500
H31	H3	0.354700	0.820800	0.388100
H41	H4	0.993200	0.228800	0.326200
H51	H5	0.854100	0.306100	0.418100
H61	H6	0.734300	0.040300	0.201400
H71	H7	0.677000	0.391500	0.303700
H81	H8	0.132300	0.026500	0.249000
H91	H9	0.261300	0.907000	0.273300
H101	H10	0.317400	0.138600	0.147800
H111	H11	0.403500	0.224300	0.381800
H121	H12	0.501400	0.413600	0.725800
H131	H13	0.682000	0.254800	0.514500
H141	H14	0.645300	0.179200	0.611900
H151	H15	0.006800	0.771200	0.673800
H161	H16	0.145900	0.693900	0.581900
H171	H17	0.265700	0.959700	0.798600
H181	H18	0.323000	0.608500	0.696300
H191	H19	0.867700	0.973500	0.751000
H201	H20	0.738700	0.093000	0.726700
H211	H21	0.682600	0.861400	0.852200
H221	H22	0.596500	0.775700	0.618200
C11	C1	0.406600	0.585100	0.294700
C21	C2	0.232500	0.528800	0.316700
C31	C3	0.287600	0.782800	0.427000
C41	C4	0.137500	0.893200	0.463400
C51	C5	0.090500	0.000200	0.402200
C61	C6	0.955700	0.105400	0.439500
C71	C7	0.908000	0.222500	0.374600
C81	C8	0.744800	0.107000	0.234000
C91	C9	0.711100	0.299000	0.288600
C101	C10	0.189400	0.998400	0.295800
C111	C11	0.322100	0.144800	0.213500
C121	C12	0.367100	0.189600	0.341500
C131	C13	0.593400	0.414900	0.705300
C141	C14	0.767500	0.471200	0.683300
C151	C15	0.712400	0.217200	0.573000
C161	C16	0.862500	0.106800	0.536600
C171	C17	0.909500	0.999800	0.597800
C181	C18	0.044300	0.894600	0.560500
C191	C19	0.092000	0.777500	0.625400
C201	C20	0.255200	0.893000	0.766000
C211	C21	0.288900	0.701000	0.711400
C221	C22	0.810600	0.001600	0.704200
C231	C23	0.677900	0.855200	0.786500
C241	C24	0.632900	0.810400	0.658500
N11	N1	0.387200	0.210000	0.242300
N21	N2	0.263200	0.087900	0.293500
N31	N3	0.292200	0.116800	0.376800
N41	N4	0.661900	0.242900	0.234300
N51	N5	0.816400	0.205100	0.319100
N61	N6	0.839100	0.080100	0.283600
N71	N7	0.377300	0.494900	0.258100
N81	N8	0.295000	0.674000	0.363100
N91	N9	0.179900	0.631900	0.386900
N101	N10	0.612800	0.790000	0.757700
N111	N11	0.736800	0.912100	0.706500
N121	N12	0.707800	0.883200	0.623200
N131	N13	0.338100	0.757100	0.765700
N141	N14	0.183600	0.794900	0.680900
N151	N15	0.160900	0.919900	0.716400
N161	N16	0.622700	0.505100	0.741900
N171	N17	0.705000	0.326000	0.636900
N181	N18	0.820100	0.368100	0.613100
O11	O1	0.103300	0.841600	0.991000
O21	O2	0.129100	0.603100	0.892300
O31	O3	0.909800	0.855100	0.895700
O41	O4	0.055600	0.403700	0.216400
O51	O5	0.123600	0.384400	0.994900
O61	O6	0.563300	0.874300	0.245500
O71	O7	0.622500	0.640200	0.130100
O81	O8	0.645200	0.609300	0.926200
O91	O9	0.630300	0.411700	0.053600
O101	O10	0.906400	0.398000	0.917800
O111	O11	0.822800	0.631300	0.209500
O121	O12	0.835500	0.840900	0.106000
O131	O13	0.597700	0.879300	0.043800
O141	O14	0.622400	0.154000	0.045000
O151	O15	0.896700	0.158400	0.009000
O161	O16	0.870900	0.396900	0.107700
O171	O17	0.090200	0.144900	0.104300
O181	O18	0.944400	0.596300	0.783600
O191	O19	0.876400	0.615600	0.005100
O201	O20	0.436700	0.125700	0.754500
O211	O21	0.377500	0.359800	0.869900
O221	O22	0.354800	0.390700	0.073800
O231	O23	0.369700	0.588300	0.946400
O241	O24	0.093600	0.602000	0.082200
O251	O25	0.177200	0.368700	0.790500
O261	O26	0.164500	0.159100	0.894000
O271	O27	0.402300	0.120700	0.956200
O281	O28	0.377600	0.846000	0.955000
