data_SEVLEM_freeONLY_PM
_symmetry_space_group_name_H-M	'P1'
_cell_length_a	32.746500
_cell_length_b	32.746500
_cell_length_c	32.746500
_cell_angle_alpha	109.471000
_cell_angle_beta	109.471000
_cell_angle_gamma	109.471000
_symmetry_Int_Tables_number 1

loop_
_symmetry_equiv_pos_as_xyz
'x,y,z'

loop_
_atom_site_label
_atom_site_type_symbol
_atom_site_fract_x
_atom_site_fract_y
_atom_site_fract_z
Cd11	Cd1	0.052780	0.140640	0.413370
Cd21	Cd2	0.227270	0.639410	0.086630
Cd31	Cd3	0.272730	0.359360	0.412140
Cd41	Cd4	0.447220	0.860590	0.087860
Cd51	Cd5	0.912140	0.272730	0.859360
Cd61	Cd6	0.587860	0.447220	0.360590
Cd71	Cd7	0.913370	0.052780	0.640640
Cd81	Cd8	0.586630	0.227270	0.139410
Cd91	Cd9	0.639410	0.586630	0.727270
Cd101	Cd10	0.140640	0.913370	0.552780
Cd111	Cd11	0.860590	0.587860	0.947220
Cd121	Cd12	0.359360	0.912140	0.772730
Cd131	Cd13	0.359360	0.447220	0.086630
Cd141	Cd14	0.860590	0.272730	0.413370
Cd151	Cd15	0.140640	0.227270	0.087860
Cd161	Cd16	0.639410	0.052780	0.412140
Cd171	Cd17	0.227270	0.587860	0.640640
Cd181	Cd18	0.052780	0.912140	0.139410
Cd191	Cd19	0.447220	0.586630	0.859360
Cd201	Cd20	0.272730	0.913370	0.360590
Cd211	Cd21	0.913370	0.860590	0.772730
Cd221	Cd22	0.586630	0.359360	0.947220
Cd231	Cd23	0.912140	0.639410	0.552780
Cd241	Cd24	0.587860	0.140640	0.727270
Cd251	Cd25	0.947220	0.859360	0.586630
Cd261	Cd26	0.772730	0.360590	0.913370
Cd271	Cd27	0.727270	0.640640	0.587860
Cd281	Cd28	0.552780	0.139410	0.912140
Cd291	Cd29	0.087860	0.727270	0.140640
Cd301	Cd30	0.412140	0.552780	0.639410
Cd311	Cd31	0.086630	0.947220	0.359360
Cd321	Cd32	0.413370	0.772730	0.860590
Cd331	Cd33	0.360590	0.413370	0.272730
Cd341	Cd34	0.859360	0.086630	0.447220
Cd351	Cd35	0.139410	0.412140	0.052780
Cd361	Cd36	0.640640	0.087860	0.227270
Cd371	Cd37	0.640640	0.552780	0.913370
Cd381	Cd38	0.139410	0.727270	0.586630
Cd391	Cd39	0.859360	0.772730	0.912140
Cd401	Cd40	0.360590	0.947220	0.587860
Cd411	Cd41	0.772730	0.412140	0.359360
Cd421	Cd42	0.947220	0.087860	0.860590
Cd431	Cd43	0.552780	0.413370	0.140640
Cd441	Cd44	0.727270	0.086630	0.639410
Cd451	Cd45	0.086630	0.139410	0.227270
Cd461	Cd46	0.413370	0.640640	0.052780
Cd471	Cd47	0.087860	0.360590	0.447220
Cd481	Cd48	0.412140	0.859360	0.272730
H11	H1	0.017300	0.250200	0.370900
H21	H2	0.014500	0.198300	0.357200
H31	H3	0.057200	0.240800	0.359600
H41	H4	0.134600	0.330400	0.539400
H51	H5	0.142600	0.049300	0.469700
H61	H6	0.019400	0.038400	0.318600
H71	H7	0.001900	0.986200	0.315700
H81	H8	0.044900	0.007300	0.304400
H91	H9	0.142800	0.274600	0.570400
H101	H10	0.163000	0.151200	0.528600
H111	H11	0.379300	0.646400	0.129100
H121	H12	0.341100	0.657300	0.142800
H131	H13	0.381200	0.697600	0.140400
H141	H14	0.291000	0.595200	0.960600
H151	H15	0.079600	0.672900	0.030300
H161	H16	0.219800	0.700800	0.181400
H171	H17	0.170500	0.686200	0.184300
H181	H18	0.202900	0.740500	0.195600
H191	H19	0.204200	0.572400	0.929600
H201	H20	0.122600	0.634400	0.971400
H211	H21	0.120700	0.249800	0.267100
H221	H22	0.158900	0.301700	0.316200
H231	H23	0.118800	0.259200	0.316400
H241	H24	0.209000	0.169600	0.304200
H251	H25	0.420400	0.450700	0.593300
H261	H26	0.280200	0.461600	0.481000
H271	H27	0.329500	0.513800	0.515700
H281	H28	0.297100	0.492700	0.537600
H291	H29	0.295800	0.225400	0.368200
H301	H30	0.377400	0.348800	0.511800
H311	H31	0.482700	0.853600	0.232900
H321	H32	0.485500	0.842700	0.183800
H331	H33	0.442800	0.802400	0.183600
H341	H34	0.365400	0.904800	0.195800
H351	H35	0.357400	0.827100	0.906700
H361	H36	0.480600	0.799200	0.019000
H371	H37	0.498100	0.813800	0.984300
H381	H38	0.455100	0.759500	0.962400
H391	H39	0.357200	0.927600	0.131800
H401	H40	0.337000	0.865600	0.988200
H411	H41	0.767100	0.120700	0.749800
H421	H42	0.816200	0.158900	0.801700
H431	H43	0.816400	0.118800	0.759200
H441	H44	0.804200	0.209000	0.669600
H451	H45	0.093300	0.420400	0.950700
H461	H46	0.981000	0.280200	0.961600
H471	H47	0.015700	0.329500	0.013800
H481	H48	0.037600	0.297100	0.992700
H491	H49	0.868200	0.295800	0.725400
H501	H50	0.011800	0.377400	0.848800
H511	H51	0.732900	0.482700	0.353600
H521	H52	0.683800	0.485500	0.342700
H531	H53	0.683600	0.442800	0.302400
H541	H54	0.695800	0.365400	0.404800
H551	H55	0.406700	0.357400	0.327100
H561	H56	0.519000	0.480600	0.299200
H571	H57	0.484300	0.498100	0.313800
H581	H58	0.462400	0.455100	0.259500
H591	H59	0.631800	0.357200	0.427600
H601	H60	0.488200	0.337000	0.365600
H611	H61	0.870900	0.017300	0.750200
H621	H62	0.857200	0.014500	0.698300
H631	H63	0.859600	0.057200	0.740800
H641	H64	0.039400	0.134600	0.830400
H651	H65	0.969700	0.142600	0.549300
H661	H66	0.818600	0.019400	0.538400
H671	H67	0.815700	0.001900	0.486200
H681	H68	0.804400	0.044900	0.507300
H691	H69	0.070400	0.142800	0.774600
H701	H70	0.028600	0.163000	0.651200
H711	H71	0.629100	0.379300	0.146400
H721	H72	0.642800	0.341100	0.157300
H731	H73	0.640400	0.381200	0.197600
H741	H74	0.460600	0.291000	0.095200
H751	H75	0.530300	0.079600	0.172900
H761	H76	0.681400	0.219800	0.200800
H771	H77	0.684300	0.170500	0.186200
H781	H78	0.695600	0.202900	0.240500
H791	H79	0.429600	0.204200	0.072400
H801	H80	0.471400	0.122600	0.134400
H811	H81	0.646400	0.629100	0.879300
H821	H82	0.657300	0.642800	0.841100
H831	H83	0.697600	0.640400	0.881200
H841	H84	0.595200	0.460600	0.791000
H851	H85	0.672900	0.530300	0.579600
H861	H86	0.700800	0.681400	0.719800
H871	H87	0.686200	0.684300	0.670500
H881	H88	0.740500	0.695600	0.702900
H891	H89	0.572400	0.429600	0.704200
H901	H90	0.634400	0.471400	0.622600
H911	H91	0.250200	0.870900	0.517300
H921	H92	0.198300	0.857200	0.514500
H931	H93	0.240800	0.859600	0.557200
H941	H94	0.330400	0.039400	0.634600
H951	H95	0.049300	0.969700	0.642600
H961	H96	0.038400	0.818600	0.519400
H971	H97	0.986200	0.815700	0.501900
H981	H98	0.007300	0.804400	0.544900
H991	H99	0.274600	0.070400	0.642800
H1001	H100	0.151200	0.028600	0.663000
H1011	H101	0.853600	0.732900	0.982700
H1021	H102	0.842700	0.683800	0.985500
H1031	H103	0.802400	0.683600	0.942800
H1041	H104	0.904800	0.695800	0.865400
H1051	H105	0.827100	0.406700	0.857400
H1061	H106	0.799200	0.519000	0.980600
H1071	H107	0.813800	0.484300	0.998100
H1081	H108	0.759500	0.462400	0.955100
H1091	H109	0.927600	0.631800	0.857200
H1101	H110	0.865600	0.488200	0.837000
H1111	H111	0.249800	0.767100	0.620700
H1121	H112	0.301700	0.816200	0.658900
H1131	H113	0.259200	0.816400	0.618800
H1141	H114	0.169600	0.804200	0.709000
H1151	H115	0.450700	0.093300	0.920400
H1161	H116	0.461600	0.981000	0.780200
H1171	H117	0.513800	0.015700	0.829500
H1181	H118	0.492700	0.037600	0.797100
H1191	H119	0.225400	0.868200	0.795800
H1201	H120	0.348800	0.011800	0.877400
H1211	H121	0.249800	0.482700	0.129100
H1221	H122	0.301700	0.485500	0.142800
H1231	H123	0.259200	0.442800	0.140400
H1241	H124	0.169600	0.365400	0.960600
H1251	H125	0.450700	0.357400	0.030300
H1261	H126	0.461600	0.480600	0.181400
H1271	H127	0.513800	0.498100	0.184300
H1281	H128	0.492700	0.455100	0.195600
H1291	H129	0.225400	0.357200	0.929600
H1301	H130	0.348800	0.337000	0.971400
H1311	H131	0.853600	0.120700	0.370900
H1321	H132	0.842700	0.158900	0.357200
H1331	H133	0.802400	0.118800	0.359600
H1341	H134	0.904800	0.209000	0.539400
H1351	H135	0.827100	0.420400	0.469700
H1361	H136	0.799200	0.280200	0.318600
H1371	H137	0.813800	0.329500	0.315700
H1381	H138	0.759500	0.297100	0.304400
H1391	H139	0.927600	0.295800	0.570400
H1401	H140	0.865600	0.377400	0.528600
H1411	H141	0.250200	0.379300	0.232900
H1421	H142	0.198300	0.341100	0.183800
H1431	H143	0.240800	0.381200	0.183600
H1441	H144	0.330400	0.291000	0.195800
H1451	H145	0.049300	0.079600	0.906700
H1461	H146	0.038400	0.219800	0.019000
H1471	H147	0.986200	0.170500	0.984300
H1481	H148	0.007300	0.202900	0.962400
H1491	H149	0.274600	0.204200	0.131800
H1501	H150	0.151200	0.122600	0.988200
H1511	H151	0.646400	0.017300	0.267100
H1521	H152	0.657300	0.014500	0.316200
H1531	H153	0.697600	0.057200	0.316400
H1541	H154	0.595200	0.134600	0.304200
H1551	H155	0.672900	0.142600	0.593300
H1561	H156	0.700800	0.019400	0.481000
H1571	H157	0.686200	0.001900	0.515700
H1581	H158	0.740500	0.044900	0.537600
H1591	H159	0.572400	0.142800	0.368200
H1601	H160	0.634400	0.163000	0.511800
H1611	H161	0.379300	0.732900	0.750200
H1621	H162	0.341100	0.683800	0.698300
H1631	H163	0.381200	0.683600	0.740800
H1641	H164	0.291000	0.695800	0.830400
H1651	H165	0.079600	0.406700	0.549300
H1661	H166	0.219800	0.519000	0.538400
H1671	H167	0.170500	0.484300	0.486200
H1681	H168	0.202900	0.462400	0.507300
H1691	H169	0.204200	0.631800	0.774600
H1701	H170	0.122600	0.488200	0.651200
H1711	H171	0.017300	0.767100	0.146400
H1721	H172	0.014500	0.816200	0.157300
H1731	H173	0.057200	0.816400	0.197600
H1741	H174	0.134600	0.804200	0.095200
H1751	H175	0.142600	0.093300	0.172900
H1761	H176	0.019400	0.981000	0.200800
H1771	H177	0.001900	0.015700	0.186200
H1781	H178	0.044900	0.037600	0.240500
H1791	H179	0.142800	0.868200	0.072400
H1801	H180	0.163000	0.011800	0.134400
H1811	H181	0.482700	0.629100	0.749800
H1821	H182	0.485500	0.642800	0.801700
H1831	H183	0.442800	0.640400	0.759200
H1841	H184	0.365400	0.460600	0.669600
H1851	H185	0.357400	0.530300	0.950700
H1861	H186	0.480600	0.681400	0.961600
H1871	H187	0.498100	0.684300	0.013800
H1881	H188	0.455100	0.695600	0.992700
H1891	H189	0.357200	0.429600	0.725400
H1901	H190	0.337000	0.471400	0.848800
H1911	H191	0.120700	0.870900	0.353600
H1921	H192	0.158900	0.857200	0.342700
H1931	H193	0.118800	0.859600	0.302400
H1941	H194	0.209000	0.039400	0.404800
H1951	H195	0.420400	0.969700	0.327100
H1961	H196	0.280200	0.818600	0.299200
H1971	H197	0.329500	0.815700	0.313800
H1981	H198	0.297100	0.804400	0.259500
H1991	H199	0.295800	0.070400	0.427600
H2001	H200	0.377400	0.028600	0.365600
H2011	H201	0.870900	0.853600	0.620700
H2021	H202	0.857200	0.842700	0.658900
H2031	H203	0.859600	0.802400	0.618800
H2041	H204	0.039400	0.904800	0.709000
H2051	H205	0.969700	0.827100	0.920400
H2061	H206	0.818600	0.799200	0.780200
H2071	H207	0.815700	0.813800	0.829500
H2081	H208	0.804400	0.759500	0.797100
H2091	H209	0.070400	0.927600	0.795800
H2101	H210	0.028600	0.865600	0.877400
H2111	H211	0.629100	0.249800	0.982700
H2121	H212	0.642800	0.301700	0.985500
H2131	H213	0.640400	0.259200	0.942800
H2141	H214	0.460600	0.169600	0.865400
H2151	H215	0.530300	0.450700	0.857400
H2161	H216	0.681400	0.461600	0.980600
H2171	H217	0.684300	0.513800	0.998100
H2181	H218	0.695600	0.492700	0.955100
H2191	H219	0.429600	0.225400	0.857200
H2201	H220	0.471400	0.348800	0.837000
H2211	H221	0.767100	0.646400	0.517300
H2221	H222	0.816200	0.657300	0.514500
H2231	H223	0.816400	0.697600	0.557200
H2241	H224	0.804200	0.595200	0.634600
H2251	H225	0.093300	0.672900	0.642600
H2261	H226	0.981000	0.700800	0.519400
H2271	H227	0.015700	0.686200	0.501900
H2281	H228	0.037600	0.740500	0.544900
H2291	H229	0.868200	0.572400	0.642800
H2301	H230	0.011800	0.634400	0.663000
H2311	H231	0.732900	0.250200	0.879300
H2321	H232	0.683800	0.198300	0.841100
H2331	H233	0.683600	0.240800	0.881200
H2341	H234	0.695800	0.330400	0.791000
H2351	H235	0.406700	0.049300	0.579600
H2361	H236	0.519000	0.038400	0.719800
H2371	H237	0.484300	0.986200	0.670500
H2381	H238	0.462400	0.007300	0.702900
H2391	H239	0.631800	0.274600	0.704200
H2401	H240	0.488200	0.151200	0.622600
H2411	H241	0.982700	0.749800	0.629100
H2421	H242	0.985500	0.801700	0.642800
H2431	H243	0.942800	0.759200	0.640400
H2441	H244	0.865400	0.669600	0.460600
H2451	H245	0.857400	0.950700	0.530300
H2461	H246	0.980600	0.961600	0.681400
H2471	H247	0.998100	0.013800	0.684300
H2481	H248	0.955100	0.992700	0.695600
H2491	H249	0.857200	0.725400	0.429600
H2501	H250	0.837000	0.848800	0.471400
H2511	H251	0.620700	0.353600	0.870900
H2521	H252	0.658900	0.342700	0.857200
H2531	H253	0.618800	0.302400	0.859600
H2541	H254	0.709000	0.404800	0.039400
H2551	H255	0.920400	0.327100	0.969700
H2561	H256	0.780200	0.299200	0.818600
H2571	H257	0.829500	0.313800	0.815700
H2581	H258	0.797100	0.259500	0.804400
H2591	H259	0.795800	0.427600	0.070400
H2601	H260	0.877400	0.365600	0.028600
H2611	H261	0.879300	0.750200	0.732900
H2621	H262	0.841100	0.698300	0.683800
H2631	H263	0.881200	0.740800	0.683600
H2641	H264	0.791000	0.830400	0.695800
H2651	H265	0.579600	0.549300	0.406700
H2661	H266	0.719800	0.538400	0.519000
H2671	H267	0.670500	0.486200	0.484300
H2681	H268	0.702900	0.507300	0.462400
H2691	H269	0.704200	0.774600	0.631800
H2701	H270	0.622600	0.651200	0.488200
H2711	H271	0.517300	0.146400	0.767100
H2721	H272	0.514500	0.157300	0.816200
H2731	H273	0.557200	0.197600	0.816400
H2741	H274	0.634600	0.095200	0.804200
H2751	H275	0.642600	0.172900	0.093300
H2761	H276	0.519400	0.200800	0.981000
H2771	H277	0.501900	0.186200	0.015700
H2781	H278	0.544900	0.240500	0.037600
H2791	H279	0.642800	0.072400	0.868200
H2801	H280	0.663000	0.134400	0.011800
H2811	H281	0.232900	0.879300	0.250200
H2821	H282	0.183800	0.841100	0.198300
H2831	H283	0.183600	0.881200	0.240800
H2841	H284	0.195800	0.791000	0.330400
H2851	H285	0.906700	0.579600	0.049300
H2861	H286	0.019000	0.719800	0.038400
H2871	H287	0.984300	0.670500	0.986200
H2881	H288	0.962400	0.702900	0.007300
H2891	H289	0.131800	0.704200	0.274600
H2901	H290	0.988200	0.622600	0.151200
H2911	H291	0.267100	0.517300	0.646400
H2921	H292	0.316200	0.514500	0.657300
H2931	H293	0.316400	0.557200	0.697600
H2941	H294	0.304200	0.634600	0.595200
H2951	H295	0.593300	0.642600	0.672900
H2961	H296	0.481000	0.519400	0.700800
H2971	H297	0.515700	0.501900	0.686200
H2981	H298	0.537600	0.544900	0.740500
H2991	H299	0.368200	0.642800	0.572400
H3001	H300	0.511800	0.663000	0.634400
H3011	H301	0.129100	0.982700	0.249800
H3021	H302	0.142800	0.985500	0.301700
H3031	H303	0.140400	0.942800	0.259200
H3041	H304	0.960600	0.865400	0.169600
H3051	H305	0.030300	0.857400	0.450700
H3061	H306	0.181400	0.980600	0.461600
H3071	H307	0.184300	0.998100	0.513800
H3081	H308	0.195600	0.955100	0.492700
H3091	H309	0.929600	0.857200	0.225400
H3101	H310	0.971400	0.837000	0.348800
H3111	H311	0.370900	0.620700	0.853600
H3121	H312	0.357200	0.658900	0.842700
H3131	H313	0.359600	0.618800	0.802400
H3141	H314	0.539400	0.709000	0.904800
H3151	H315	0.469700	0.920400	0.827100
H3161	H316	0.318600	0.780200	0.799200
H3171	H317	0.315700	0.829500	0.813800
H3181	H318	0.304400	0.797100	0.759500
H3191	H319	0.570400	0.795800	0.927600
H3201	H320	0.528600	0.877400	0.865600
H3211	H321	0.353600	0.370900	0.120700
H3221	H322	0.342700	0.357200	0.158900
H3231	H323	0.302400	0.359600	0.118800
H3241	H324	0.404800	0.539400	0.209000
H3251	H325	0.327100	0.469700	0.420400
H3261	H326	0.299200	0.318600	0.280200
H3271	H327	0.313800	0.315700	0.329500
H3281	H328	0.259500	0.304400	0.297100
H3291	H329	0.427600	0.570400	0.295800
H3301	H330	0.365600	0.528600	0.377400
H3311	H331	0.749800	0.129100	0.482700
H3321	H332	0.801700	0.142800	0.485500
H3331	H333	0.759200	0.140400	0.442800
H3341	H334	0.669600	0.960600	0.365400
H3351	H335	0.950700	0.030300	0.357400
H3361	H336	0.961600	0.181400	0.480600
H3371	H337	0.013800	0.184300	0.498100
H3381	H338	0.992700	0.195600	0.455100
H3391	H339	0.725400	0.929600	0.357200
H3401	H340	0.848800	0.971400	0.337000
H3411	H341	0.146400	0.267100	0.017300
H3421	H342	0.157300	0.316200	0.014500
H3431	H343	0.197600	0.316400	0.057200
H3441	H344	0.095200	0.304200	0.134600
H3451	H345	0.172900	0.593300	0.142600
H3461	H346	0.200800	0.481000	0.019400
H3471	H347	0.186200	0.515700	0.001900
H3481	H348	0.240500	0.537600	0.044900
H3491	H349	0.072400	0.368200	0.142800
H3501	H350	0.134400	0.511800	0.163000
H3511	H351	0.750200	0.232900	0.379300
H3521	H352	0.698300	0.183800	0.341100
H3531	H353	0.740800	0.183600	0.381200
H3541	H354	0.830400	0.195800	0.291000
H3551	H355	0.549300	0.906700	0.079600
H3561	H356	0.538400	0.019000	0.219800
H3571	H357	0.486200	0.984300	0.170500
H3581	H358	0.507300	0.962400	0.202900
H3591	H359	0.774600	0.131800	0.204200
H3601	H360	0.651200	0.988200	0.122600
H3611	H361	0.750200	0.517300	0.870900
H3621	H362	0.698300	0.514500	0.857200
H3631	H363	0.740800	0.557200	0.859600
H3641	H364	0.830400	0.634600	0.039400
H3651	H365	0.549300	0.642600	0.969700
H3661	H366	0.538400	0.519400	0.818600
H3671	H367	0.486200	0.501900	0.815700
H3681	H368	0.507300	0.544900	0.804400
H3691	H369	0.774600	0.642800	0.070400
H3701	H370	0.651200	0.663000	0.028600
H3711	H371	0.146400	0.879300	0.629100
H3721	H372	0.157300	0.841100	0.642800
H3731	H373	0.197600	0.881200	0.640400
H3741	H374	0.095200	0.791000	0.460600
H3751	H375	0.172900	0.579600	0.530300
H3761	H376	0.200800	0.719800	0.681400
H3771	H377	0.186200	0.670500	0.684300
H3781	H378	0.240500	0.702900	0.695600
H3791	H379	0.072400	0.704200	0.429600
H3801	H380	0.134400	0.622600	0.471400
H3811	H381	0.749800	0.620700	0.767100
H3821	H382	0.801700	0.658900	0.816200
H3831	H383	0.759200	0.618800	0.816400
H3841	H384	0.669600	0.709000	0.804200
H3851	H385	0.950700	0.920400	0.093300
H3861	H386	0.961600	0.780200	0.981000
H3871	H387	0.013800	0.829500	0.015700
H3881	H388	0.992700	0.797100	0.037600
H3891	H389	0.725400	0.795800	0.868200
H3901	H390	0.848800	0.877400	0.011800
H3911	H391	0.353600	0.982700	0.732900
H3921	H392	0.342700	0.985500	0.683800
H3931	H393	0.302400	0.942800	0.683600
H3941	H394	0.404800	0.865400	0.695800
H3951	H395	0.327100	0.857400	0.406700
H3961	H396	0.299200	0.980600	0.519000
H3971	H397	0.313800	0.998100	0.484300
H3981	H398	0.259500	0.955100	0.462400
H3991	H399	0.427600	0.857200	0.631800
H4001	H400	0.365600	0.837000	0.488200
H4011	H401	0.620700	0.267100	0.249800
H4021	H402	0.658900	0.316200	0.301700
H4031	H403	0.618800	0.316400	0.259200
H4041	H404	0.709000	0.304200	0.169600
H4051	H405	0.920400	0.593300	0.450700
H4061	H406	0.780200	0.481000	0.461600
H4071	H407	0.829500	0.515700	0.513800
H4081	H408	0.797100	0.537600	0.492700
H4091	H409	0.795800	0.368200	0.225400
H4101	H410	0.877400	0.511800	0.348800
H4111	H411	0.982700	0.232900	0.853600
H4121	H412	0.985500	0.183800	0.842700
H4131	H413	0.942800	0.183600	0.802400
H4141	H414	0.865400	0.195800	0.904800
H4151	H415	0.857400	0.906700	0.827100
H4161	H416	0.980600	0.019000	0.799200
H4171	H417	0.998100	0.984300	0.813800
H4181	H418	0.955100	0.962400	0.759500
H4191	H419	0.857200	0.131800	0.927600
H4201	H420	0.837000	0.988200	0.865600
H4211	H421	0.517300	0.370900	0.250200
H4221	H422	0.514500	0.357200	0.198300
H4231	H423	0.557200	0.359600	0.240800
H4241	H424	0.634600	0.539400	0.330400
H4251	H425	0.642600	0.469700	0.049300
H4261	H426	0.519400	0.318600	0.038400
H4271	H427	0.501900	0.315700	0.986200
H4281	H428	0.544900	0.304400	0.007300
H4291	H429	0.642800	0.570400	0.274600
H4301	H430	0.663000	0.528600	0.151200
H4311	H431	0.879300	0.129100	0.646400
H4321	H432	0.841100	0.142800	0.657300
H4331	H433	0.881200	0.140400	0.697600
H4341	H434	0.791000	0.960600	0.595200
H4351	H435	0.579600	0.030300	0.672900
H4361	H436	0.719800	0.181400	0.700800
H4371	H437	0.670500	0.184300	0.686200
H4381	H438	0.702900	0.195600	0.740500
H4391	H439	0.704200	0.929600	0.572400
H4401	H440	0.622600	0.971400	0.634400
H4411	H441	0.129100	0.146400	0.379300
H4421	H442	0.142800	0.157300	0.341100
H4431	H443	0.140400	0.197600	0.381200
H4441	H444	0.960600	0.095200	0.291000
H4451	H445	0.030300	0.172900	0.079600
H4461	H446	0.181400	0.200800	0.219800
H4471	H447	0.184300	0.186200	0.170500
H4481	H448	0.195600	0.240500	0.202900
H4491	H449	0.929600	0.072400	0.204200
H4501	H450	0.971400	0.134400	0.122600
H4511	H451	0.370900	0.750200	0.017300
H4521	H452	0.357200	0.698300	0.014500
H4531	H453	0.359600	0.740800	0.057200
H4541	H454	0.539400	0.830400	0.134600
H4551	H455	0.469700	0.549300	0.142600
H4561	H456	0.318600	0.538400	0.019400
H4571	H457	0.315700	0.486200	0.001900
H4581	H458	0.304400	0.507300	0.044900
H4591	H459	0.570400	0.774600	0.142800
H4601	H460	0.528600	0.651200	0.163000
H4611	H461	0.232900	0.353600	0.482700
H4621	H462	0.183800	0.342700	0.485500
H4631	H463	0.183600	0.302400	0.442800
H4641	H464	0.195800	0.404800	0.365400
H4651	H465	0.906700	0.327100	0.357400
H4661	H466	0.019000	0.299200	0.480600
H4671	H467	0.984300	0.313800	0.498100
H4681	H468	0.962400	0.259500	0.455100
H4691	H469	0.131800	0.427600	0.357200
H4701	H470	0.988200	0.365600	0.337000
H4711	H471	0.267100	0.749800	0.120700
H4721	H472	0.316200	0.801700	0.158900
H4731	H473	0.316400	0.759200	0.118800
H4741	H474	0.304200	0.669600	0.209000
H4751	H475	0.593300	0.950700	0.420400
H4761	H476	0.481000	0.961600	0.280200
H4771	H477	0.515700	0.013800	0.329500
H4781	H478	0.537600	0.992700	0.297100
H4791	H479	0.368200	0.725400	0.295800
H4801	H480	0.511800	0.848800	0.377400
C11	C1	0.069070	0.252350	0.428300
C21	C2	0.036620	0.233730	0.374150
C31	C3	0.115790	0.302030	0.507860
C41	C4	0.110230	0.256050	0.497400
C51	C5	0.112340	0.092760	0.456900
C61	C6	0.120690	0.052840	0.446330
C71	C7	0.067950	0.040900	0.378470
C81	C8	0.030150	0.015930	0.324480
C91	C9	0.134000	0.249500	0.539700
C101	C10	0.136100	0.141500	0.498800
C111	C11	0.324050	0.640770	0.071700
C121	C12	0.359580	0.662470	0.125850
C131	C13	0.294170	0.607930	0.992140
C141	C14	0.258650	0.612830	0.002600
C151	C15	0.135860	0.655440	0.043100
C161	C16	0.106510	0.674360	0.053670
C171	C17	0.162430	0.689480	0.121530
C181	C18	0.191450	0.705670	0.175520
C191	C19	0.209800	0.594300	0.960300
C201	C20	0.142700	0.637300	0.001200
C211	C21	0.175950	0.247650	0.316720
C221	C22	0.140420	0.266270	0.302890
C231	C23	0.205830	0.197970	0.313760
C241	C24	0.241350	0.243950	0.354180
C251	C25	0.364140	0.407240	0.519580
C261	C26	0.393490	0.447160	0.567850
C271	C27	0.337570	0.459100	0.527050
C281	C28	0.308550	0.484070	0.514220
C291	C29	0.290200	0.250500	0.384500
C301	C30	0.357300	0.358500	0.494600
C311	C31	0.430930	0.859230	0.183280
C321	C32	0.463380	0.837530	0.197110
C331	C33	0.384210	0.892070	0.186240
C341	C34	0.389770	0.887170	0.145820
C351	C35	0.387660	0.844560	0.980420
C361	C36	0.379310	0.825640	0.932150
C371	C37	0.432050	0.810520	0.972950
C381	C38	0.469850	0.794330	0.985780
C391	C39	0.366000	0.905700	0.115500
C401	C40	0.363900	0.862700	0.005400
C411	C41	0.816720	0.175950	0.747650
C421	C42	0.802890	0.140420	0.766270
C431	C43	0.813760	0.205830	0.697970
C441	C44	0.854180	0.241350	0.743950
C451	C45	0.019580	0.364140	0.907240
C461	C46	0.067850	0.393490	0.947160
C471	C47	0.027050	0.337570	0.959100
C481	C48	0.014220	0.308550	0.984070
C491	C49	0.884500	0.290200	0.750500
C501	C50	0.994600	0.357300	0.858500
C511	C51	0.683280	0.430930	0.359230
C521	C52	0.697110	0.463380	0.337530
C531	C53	0.686240	0.384210	0.392070
C541	C54	0.645820	0.389770	0.387170
C551	C55	0.480420	0.387660	0.344560
C561	C56	0.432150	0.379310	0.325640
C571	C57	0.472950	0.432050	0.310520
C581	C58	0.485780	0.469850	0.294330
C591	C59	0.615500	0.366000	0.405700
C601	C60	0.505400	0.363900	0.362700
C611	C61	0.928300	0.069070	0.752350
C621	C62	0.874150	0.036620	0.733730
C631	C63	0.007860	0.115790	0.802030
C641	C64	0.997400	0.110230	0.756050
C651	C65	0.956900	0.112340	0.592760
C661	C66	0.946330	0.120690	0.552840
C671	C67	0.878470	0.067950	0.540900
C681	C68	0.824480	0.030150	0.515930
C691	C69	0.039700	0.134000	0.749500
C701	C70	0.998800	0.136100	0.641500
C711	C71	0.571700	0.324050	0.140770
C721	C72	0.625850	0.359580	0.162470
C731	C73	0.492140	0.294170	0.107930
C741	C74	0.502600	0.258650	0.112830
C751	C75	0.543100	0.135860	0.155440
C761	C76	0.553670	0.106510	0.174360
C771	C77	0.621530	0.162430	0.189480
C781	C78	0.675520	0.191450	0.205670
C791	C79	0.460300	0.209800	0.094300
C801	C80	0.501200	0.142700	0.137300
C811	C81	0.640770	0.571700	0.824050
C821	C82	0.662470	0.625850	0.859580
C831	C83	0.607930	0.492140	0.794170
C841	C84	0.612830	0.502600	0.758650
C851	C85	0.655440	0.543100	0.635860
C861	C86	0.674360	0.553670	0.606510
C871	C87	0.689480	0.621530	0.662430
C881	C88	0.705670	0.675520	0.691450
C891	C89	0.594300	0.460300	0.709800
C901	C90	0.637300	0.501200	0.642700
C911	C91	0.252350	0.928300	0.569070
C921	C92	0.233730	0.874150	0.536620
C931	C93	0.302030	0.007860	0.615790
C941	C94	0.256050	0.997400	0.610230
C951	C95	0.092760	0.956900	0.612340
C961	C96	0.052840	0.946330	0.620690
C971	C97	0.040900	0.878470	0.567950
C981	C98	0.015930	0.824480	0.530150
C991	C99	0.249500	0.039700	0.634000
C1001	C100	0.141500	0.998800	0.636100
C1011	C101	0.859230	0.683280	0.930930
C1021	C102	0.837530	0.697110	0.963380
C1031	C103	0.892070	0.686240	0.884210
C1041	C104	0.887170	0.645820	0.889770
C1051	C105	0.844560	0.480420	0.887660
C1061	C106	0.825640	0.432150	0.879310
C1071	C107	0.810520	0.472950	0.932050
C1081	C108	0.794330	0.485780	0.969850
C1091	C109	0.905700	0.615500	0.866000
C1101	C110	0.862700	0.505400	0.863900
C1111	C111	0.247650	0.816720	0.675950
C1121	C112	0.266270	0.802890	0.640420
C1131	C113	0.197970	0.813760	0.705830
C1141	C114	0.243950	0.854180	0.741350
C1151	C115	0.407240	0.019580	0.864140
C1161	C116	0.447160	0.067850	0.893490
C1171	C117	0.459100	0.027050	0.837570
C1181	C118	0.484070	0.014220	0.808550
C1191	C119	0.250500	0.884500	0.790200
C1201	C120	0.358500	0.994600	0.857300
C1211	C121	0.247650	0.430930	0.071700
C1221	C122	0.266270	0.463380	0.125850
C1231	C123	0.197970	0.384210	0.992140
C1241	C124	0.243950	0.389770	0.002600
C1251	C125	0.407240	0.387660	0.043100
C1261	C126	0.447160	0.379310	0.053670
C1271	C127	0.459100	0.432050	0.121530
C1281	C128	0.484070	0.469850	0.175520
C1291	C129	0.250500	0.366000	0.960300
C1301	C130	0.358500	0.363900	0.001200
C1311	C131	0.859230	0.175950	0.428300
C1321	C132	0.837530	0.140420	0.374150
C1331	C133	0.892070	0.205830	0.507860
C1341	C134	0.887170	0.241350	0.497400
C1351	C135	0.844560	0.364140	0.456900
C1361	C136	0.825640	0.393490	0.446330
C1371	C137	0.810520	0.337570	0.378470
C1381	C138	0.794330	0.308550	0.324480
C1391	C139	0.905700	0.290200	0.539700
C1401	C140	0.862700	0.357300	0.498800
C1411	C141	0.252350	0.324050	0.183280
C1421	C142	0.233730	0.359580	0.197110
C1431	C143	0.302030	0.294170	0.186240
C1441	C144	0.256050	0.258650	0.145820
C1451	C145	0.092760	0.135860	0.980420
C1461	C146	0.052840	0.106510	0.932150
C1471	C147	0.040900	0.162430	0.972950
C1481	C148	0.015930	0.191450	0.985780
C1491	C149	0.249500	0.209800	0.115500
C1501	C150	0.141500	0.142700	0.005400
C1511	C151	0.640770	0.069070	0.316720
C1521	C152	0.662470	0.036620	0.302890
C1531	C153	0.607930	0.115790	0.313760
C1541	C154	0.612830	0.110230	0.354180
C1551	C155	0.655440	0.112340	0.519580
C1561	C156	0.674360	0.120690	0.567850
C1571	C157	0.689480	0.067950	0.527050
C1581	C158	0.705670	0.030150	0.514220
C1591	C159	0.594300	0.134000	0.384500
C1601	C160	0.637300	0.136100	0.494600
C1611	C161	0.324050	0.683280	0.752350
C1621	C162	0.359580	0.697110	0.733730
C1631	C163	0.294170	0.686240	0.802030
C1641	C164	0.258650	0.645820	0.756050
C1651	C165	0.135860	0.480420	0.592760
C1661	C166	0.106510	0.432150	0.552840
C1671	C167	0.162430	0.472950	0.540900
C1681	C168	0.191450	0.485780	0.515930
C1691	C169	0.209800	0.615500	0.749500
C1701	C170	0.142700	0.505400	0.641500
C1711	C171	0.069070	0.816720	0.140770
C1721	C172	0.036620	0.802890	0.162470
C1731	C173	0.115790	0.813760	0.107930
C1741	C174	0.110230	0.854180	0.112830
C1751	C175	0.112340	0.019580	0.155440
C1761	C176	0.120690	0.067850	0.174360
C1771	C177	0.067950	0.027050	0.189480
C1781	C178	0.030150	0.014220	0.205670
C1791	C179	0.134000	0.884500	0.094300
C1801	C180	0.136100	0.994600	0.137300
C1811	C181	0.430930	0.571700	0.747650
C1821	C182	0.463380	0.625850	0.766270
C1831	C183	0.384210	0.492140	0.697970
C1841	C184	0.389770	0.502600	0.743950
C1851	C185	0.387660	0.543100	0.907240
C1861	C186	0.379310	0.553670	0.947160
C1871	C187	0.432050	0.621530	0.959100
C1881	C188	0.469850	0.675520	0.984070
C1891	C189	0.366000	0.460300	0.750500
C1901	C190	0.363900	0.501200	0.858500
C1911	C191	0.175950	0.928300	0.359230
C1921	C192	0.140420	0.874150	0.337530
C1931	C193	0.205830	0.007860	0.392070
C1941	C194	0.241350	0.997400	0.387170
C1951	C195	0.364140	0.956900	0.344560
C1961	C196	0.393490	0.946330	0.325640
C1971	C197	0.337570	0.878470	0.310520
C1981	C198	0.308550	0.824480	0.294330
C1991	C199	0.290200	0.039700	0.405700
C2001	C200	0.357300	0.998800	0.362700
C2011	C201	0.928300	0.859230	0.675950
C2021	C202	0.874150	0.837530	0.640420
C2031	C203	0.007860	0.892070	0.705830
C2041	C204	0.997400	0.887170	0.741350
C2051	C205	0.956900	0.844560	0.864140
C2061	C206	0.946330	0.825640	0.893490
C2071	C207	0.878470	0.810520	0.837570
C2081	C208	0.824480	0.794330	0.808550
C2091	C209	0.039700	0.905700	0.790200
C2101	C210	0.998800	0.862700	0.857300
C2111	C211	0.571700	0.247650	0.930930
C2121	C212	0.625850	0.266270	0.963380
C2131	C213	0.492140	0.197970	0.884210
C2141	C214	0.502600	0.243950	0.889770
C2151	C215	0.543100	0.407240	0.887660
C2161	C216	0.553670	0.447160	0.879310
C2171	C217	0.621530	0.459100	0.932050
C2181	C218	0.675520	0.484070	0.969850
C2191	C219	0.460300	0.250500	0.866000
C2201	C220	0.501200	0.358500	0.863900
C2211	C221	0.816720	0.640770	0.569070
C2221	C222	0.802890	0.662470	0.536620
C2231	C223	0.813760	0.607930	0.615790
C2241	C224	0.854180	0.612830	0.610230
C2251	C225	0.019580	0.655440	0.612340
C2261	C226	0.067850	0.674360	0.620690
C2271	C227	0.027050	0.689480	0.567950
C2281	C228	0.014220	0.705670	0.530150
C2291	C229	0.884500	0.594300	0.634000
C2301	C230	0.994600	0.637300	0.636100
C2311	C231	0.683280	0.252350	0.824050
C2321	C232	0.697110	0.233730	0.859580
C2331	C233	0.686240	0.302030	0.794170
C2341	C234	0.645820	0.256050	0.758650
C2351	C235	0.480420	0.092760	0.635860
C2361	C236	0.432150	0.052840	0.606510
C2371	C237	0.472950	0.040900	0.662430
C2381	C238	0.485780	0.015930	0.691450
C2391	C239	0.615500	0.249500	0.709800
C2401	C240	0.505400	0.141500	0.642700
C2411	C241	0.930930	0.747650	0.571700
C2421	C242	0.963380	0.766270	0.625850
C2431	C243	0.884210	0.697970	0.492140
C2441	C244	0.889770	0.743950	0.502600
C2451	C245	0.887660	0.907240	0.543100
C2461	C246	0.879310	0.947160	0.553670
C2471	C247	0.932050	0.959100	0.621530
C2481	C248	0.969850	0.984070	0.675520
C2491	C249	0.866000	0.750500	0.460300
C2501	C250	0.863900	0.858500	0.501200
C2511	C251	0.675950	0.359230	0.928300
C2521	C252	0.640420	0.337530	0.874150
C2531	C253	0.705830	0.392070	0.007860
C2541	C254	0.741350	0.387170	0.997400
C2551	C255	0.864140	0.344560	0.956900
C2561	C256	0.893490	0.325640	0.946330
C2571	C257	0.837570	0.310520	0.878470
C2581	C258	0.808550	0.294330	0.824480
C2591	C259	0.790200	0.405700	0.039700
C2601	C260	0.857300	0.362700	0.998800
C2611	C261	0.824050	0.752350	0.683280
C2621	C262	0.859580	0.733730	0.697110
C2631	C263	0.794170	0.802030	0.686240
C2641	C264	0.758650	0.756050	0.645820
C2651	C265	0.635860	0.592760	0.480420
C2661	C266	0.606510	0.552840	0.432150
C2671	C267	0.662430	0.540900	0.472950
C2681	C268	0.691450	0.515930	0.485780
C2691	C269	0.709800	0.749500	0.615500
C2701	C270	0.642700	0.641500	0.505400
C2711	C271	0.569070	0.140770	0.816720
C2721	C272	0.536620	0.162470	0.802890
C2731	C273	0.615790	0.107930	0.813760
C2741	C274	0.610230	0.112830	0.854180
C2751	C275	0.612340	0.155440	0.019580
C2761	C276	0.620690	0.174360	0.067850
C2771	C277	0.567950	0.189480	0.027050
C2781	C278	0.530150	0.205670	0.014220
C2791	C279	0.634000	0.094300	0.884500
C2801	C280	0.636100	0.137300	0.994600
C2811	C281	0.183280	0.824050	0.252350
C2821	C282	0.197110	0.859580	0.233730
C2831	C283	0.186240	0.794170	0.302030
C2841	C284	0.145820	0.758650	0.256050
C2851	C285	0.980420	0.635860	0.092760
C2861	C286	0.932150	0.606510	0.052840
C2871	C287	0.972950	0.662430	0.040900
C2881	C288	0.985780	0.691450	0.015930
C2891	C289	0.115500	0.709800	0.249500
C2901	C290	0.005400	0.642700	0.141500
C2911	C291	0.316720	0.569070	0.640770
C2921	C292	0.302890	0.536620	0.662470
C2931	C293	0.313760	0.615790	0.607930
C2941	C294	0.354180	0.610230	0.612830
C2951	C295	0.519580	0.612340	0.655440
C2961	C296	0.567850	0.620690	0.674360
C2971	C297	0.527050	0.567950	0.689480
C2981	C298	0.514220	0.530150	0.705670
C2991	C299	0.384500	0.634000	0.594300
C3001	C300	0.494600	0.636100	0.637300
C3011	C301	0.071700	0.930930	0.247650
C3021	C302	0.125850	0.963380	0.266270
C3031	C303	0.992140	0.884210	0.197970
C3041	C304	0.002600	0.889770	0.243950
C3051	C305	0.043100	0.887660	0.407240
C3061	C306	0.053670	0.879310	0.447160
C3071	C307	0.121530	0.932050	0.459100
C3081	C308	0.175520	0.969850	0.484070
C3091	C309	0.960300	0.866000	0.250500
C3101	C310	0.001200	0.863900	0.358500
C3111	C311	0.428300	0.675950	0.859230
C3121	C312	0.374150	0.640420	0.837530
C3131	C313	0.507860	0.705830	0.892070
C3141	C314	0.497400	0.741350	0.887170
C3151	C315	0.456900	0.864140	0.844560
C3161	C316	0.446330	0.893490	0.825640
C3171	C317	0.378470	0.837570	0.810520
C3181	C318	0.324480	0.808550	0.794330
C3191	C319	0.539700	0.790200	0.905700
C3201	C320	0.498800	0.857300	0.862700
C3211	C321	0.359230	0.428300	0.175950
C3221	C322	0.337530	0.374150	0.140420
C3231	C323	0.392070	0.507860	0.205830
C3241	C324	0.387170	0.497400	0.241350
C3251	C325	0.344560	0.456900	0.364140
C3261	C326	0.325640	0.446330	0.393490
C3271	C327	0.310520	0.378470	0.337570
C3281	C328	0.294330	0.324480	0.308550
C3291	C329	0.405700	0.539700	0.290200
C3301	C330	0.362700	0.498800	0.357300
C3311	C331	0.747650	0.071700	0.430930
C3321	C332	0.766270	0.125850	0.463380
C3331	C333	0.697970	0.992140	0.384210
C3341	C334	0.743950	0.002600	0.389770
C3351	C335	0.907240	0.043100	0.387660
C3361	C336	0.947160	0.053670	0.379310
C3371	C337	0.959100	0.121530	0.432050
C3381	C338	0.984070	0.175520	0.469850
C3391	C339	0.750500	0.960300	0.366000
C3401	C340	0.858500	0.001200	0.363900
C3411	C341	0.140770	0.316720	0.069070
C3421	C342	0.162470	0.302890	0.036620
C3431	C343	0.107930	0.313760	0.115790
C3441	C344	0.112830	0.354180	0.110230
C3451	C345	0.155440	0.519580	0.112340
C3461	C346	0.174360	0.567850	0.120690
C3471	C347	0.189480	0.527050	0.067950
C3481	C348	0.205670	0.514220	0.030150
C3491	C349	0.094300	0.384500	0.134000
C3501	C350	0.137300	0.494600	0.136100
C3511	C351	0.752350	0.183280	0.324050
C3521	C352	0.733730	0.197110	0.359580
C3531	C353	0.802030	0.186240	0.294170
C3541	C354	0.756050	0.145820	0.258650
C3551	C355	0.592760	0.980420	0.135860
C3561	C356	0.552840	0.932150	0.106510
C3571	C357	0.540900	0.972950	0.162430
C3581	C358	0.515930	0.985780	0.191450
C3591	C359	0.749500	0.115500	0.209800
C3601	C360	0.641500	0.005400	0.142700
C3611	C361	0.752350	0.569070	0.928300
C3621	C362	0.733730	0.536620	0.874150
C3631	C363	0.802030	0.615790	0.007860
C3641	C364	0.756050	0.610230	0.997400
C3651	C365	0.592760	0.612340	0.956900
C3661	C366	0.552840	0.620690	0.946330
C3671	C367	0.540900	0.567950	0.878470
C3681	C368	0.515930	0.530150	0.824480
C3691	C369	0.749500	0.634000	0.039700
C3701	C370	0.641500	0.636100	0.998800
C3711	C371	0.140770	0.824050	0.571700
C3721	C372	0.162470	0.859580	0.625850
C3731	C373	0.107930	0.794170	0.492140
C3741	C374	0.112830	0.758650	0.502600
C3751	C375	0.155440	0.635860	0.543100
C3761	C376	0.174360	0.606510	0.553670
C3771	C377	0.189480	0.662430	0.621530
C3781	C378	0.205670	0.691450	0.675520
C3791	C379	0.094300	0.709800	0.460300
C3801	C380	0.137300	0.642700	0.501200
C3811	C381	0.747650	0.675950	0.816720
C3821	C382	0.766270	0.640420	0.802890
C3831	C383	0.697970	0.705830	0.813760
C3841	C384	0.743950	0.741350	0.854180
C3851	C385	0.907240	0.864140	0.019580
C3861	C386	0.947160	0.893490	0.067850
C3871	C387	0.959100	0.837570	0.027050
C3881	C388	0.984070	0.808550	0.014220
C3891	C389	0.750500	0.790200	0.884500
C3901	C390	0.858500	0.857300	0.994600
C3911	C391	0.359230	0.930930	0.683280
C3921	C392	0.337530	0.963380	0.697110
C3931	C393	0.392070	0.884210	0.686240
C3941	C394	0.387170	0.889770	0.645820
C3951	C395	0.344560	0.887660	0.480420
C3961	C396	0.325640	0.879310	0.432150
C3971	C397	0.310520	0.932050	0.472950
C3981	C398	0.294330	0.969850	0.485780
C3991	C399	0.405700	0.866000	0.615500
C4001	C400	0.362700	0.863900	0.505400
C4011	C401	0.675950	0.316720	0.247650
C4021	C402	0.640420	0.302890	0.266270
C4031	C403	0.705830	0.313760	0.197970
C4041	C404	0.741350	0.354180	0.243950
C4051	C405	0.864140	0.519580	0.407240
C4061	C406	0.893490	0.567850	0.447160
C4071	C407	0.837570	0.527050	0.459100
C4081	C408	0.808550	0.514220	0.484070
C4091	C409	0.790200	0.384500	0.250500
C4101	C410	0.857300	0.494600	0.358500
C4111	C411	0.930930	0.183280	0.859230
C4121	C412	0.963380	0.197110	0.837530
C4131	C413	0.884210	0.186240	0.892070
C4141	C414	0.889770	0.145820	0.887170
C4151	C415	0.887660	0.980420	0.844560
C4161	C416	0.879310	0.932150	0.825640
C4171	C417	0.932050	0.972950	0.810520
C4181	C418	0.969850	0.985780	0.794330
C4191	C419	0.866000	0.115500	0.905700
C4201	C420	0.863900	0.005400	0.862700
C4211	C421	0.569070	0.428300	0.252350
C4221	C422	0.536620	0.374150	0.233730
C4231	C423	0.615790	0.507860	0.302030
C4241	C424	0.610230	0.497400	0.256050
C4251	C425	0.612340	0.456900	0.092760
C4261	C426	0.620690	0.446330	0.052840
C4271	C427	0.567950	0.378470	0.040900
C4281	C428	0.530150	0.324480	0.015930
C4291	C429	0.634000	0.539700	0.249500
C4301	C430	0.636100	0.498800	0.141500
C4311	C431	0.824050	0.071700	0.640770
C4321	C432	0.859580	0.125850	0.662470
C4331	C433	0.794170	0.992140	0.607930
C4341	C434	0.758650	0.002600	0.612830
C4351	C435	0.635860	0.043100	0.655440
C4361	C436	0.606510	0.053670	0.674360
C4371	C437	0.662430	0.121530	0.689480
C4381	C438	0.691450	0.175520	0.705670
C4391	C439	0.709800	0.960300	0.594300
C4401	C440	0.642700	0.001200	0.637300
C4411	C441	0.071700	0.140770	0.324050
C4421	C442	0.125850	0.162470	0.359580
C4431	C443	0.992140	0.107930	0.294170
C4441	C444	0.002600	0.112830	0.258650
C4451	C445	0.043100	0.155440	0.135860
C4461	C446	0.053670	0.174360	0.106510
C4471	C447	0.121530	0.189480	0.162430
C4481	C448	0.175520	0.205670	0.191450
C4491	C449	0.960300	0.094300	0.209800
C4501	C450	0.001200	0.137300	0.142700
C4511	C451	0.428300	0.752350	0.069070
C4521	C452	0.374150	0.733730	0.036620
C4531	C453	0.507860	0.802030	0.115790
C4541	C454	0.497400	0.756050	0.110230
C4551	C455	0.456900	0.592760	0.112340
C4561	C456	0.446330	0.552840	0.120690
C4571	C457	0.378470	0.540900	0.067950
C4581	C458	0.324480	0.515930	0.030150
C4591	C459	0.539700	0.749500	0.134000
C4601	C460	0.498800	0.641500	0.136100
C4611	C461	0.183280	0.359230	0.430930
C4621	C462	0.197110	0.337530	0.463380
C4631	C463	0.186240	0.392070	0.384210
C4641	C464	0.145820	0.387170	0.389770
C4651	C465	0.980420	0.344560	0.387660
C4661	C466	0.932150	0.325640	0.379310
C4671	C467	0.972950	0.310520	0.432050
C4681	C468	0.985780	0.294330	0.469850
C4691	C469	0.115500	0.405700	0.366000
C4701	C470	0.005400	0.362700	0.363900
C4711	C471	0.316720	0.747650	0.175950
C4721	C472	0.302890	0.766270	0.140420
C4731	C473	0.313760	0.697970	0.205830
C4741	C474	0.354180	0.743950	0.241350
C4751	C475	0.519580	0.907240	0.364140
C4761	C476	0.567850	0.947160	0.393490
C4771	C477	0.527050	0.959100	0.337570
C4781	C478	0.514220	0.984070	0.308550
C4791	C479	0.384500	0.750500	0.290200
C4801	C480	0.494600	0.858500	0.357300
N11	N1	0.080500	0.223750	0.446050
N21	N2	0.089220	0.299440	0.464320
N31	N3	0.078810	0.084730	0.412820
N41	N4	0.092530	0.020360	0.397690
N51	N5	0.145200	0.215600	0.542600
N61	N6	0.120300	0.172300	0.495800
N71	N7	0.277700	0.634450	0.053950
N81	N8	0.335120	0.624900	0.035680
N91	N9	0.171910	0.665990	0.087180
N101	N10	0.122670	0.694840	0.102310
N111	N11	0.173000	0.602600	0.957400
N121	N12	0.176500	0.624500	0.004200
N131	N13	0.222300	0.276250	0.356750
N141	N14	0.164880	0.200560	0.289780
N151	N15	0.328090	0.415270	0.494080
N161	N16	0.377330	0.479640	0.572170
N171	N17	0.327000	0.284400	0.429600
N181	N18	0.323500	0.327700	0.448000
N191	N19	0.419500	0.865550	0.143250
N201	N20	0.410780	0.875100	0.210220
N211	N21	0.421190	0.834010	0.005920
N221	N22	0.407470	0.805160	0.927830
N231	N23	0.354800	0.897400	0.070400
N241	N24	0.379700	0.875500	0.052000
N251	N25	0.856750	0.222300	0.776250
N261	N26	0.789780	0.164880	0.700560
N271	N27	0.994080	0.328090	0.915270
N281	N28	0.072170	0.377330	0.979640
N291	N29	0.929600	0.327000	0.784400
N301	N30	0.948000	0.323500	0.827700
N311	N31	0.643250	0.419500	0.365550
N321	N32	0.710220	0.410780	0.375100
N331	N33	0.505920	0.421190	0.334010
N341	N34	0.427830	0.407470	0.305160
N351	N35	0.570400	0.354800	0.397400
N361	N36	0.552000	0.379700	0.375500
N371	N37	0.946050	0.080500	0.723750
N381	N38	0.964320	0.089220	0.799440
N391	N39	0.912820	0.078810	0.584730
N401	N40	0.897690	0.092530	0.520360
N411	N41	0.042600	0.145200	0.715600
N421	N42	0.995800	0.120300	0.672300
N431	N43	0.553950	0.277700	0.134450
N441	N44	0.535680	0.335120	0.124900
N451	N45	0.587180	0.171910	0.165990
N461	N46	0.602310	0.122670	0.194840
N471	N47	0.457400	0.173000	0.102600
N481	N48	0.504200	0.176500	0.124500
N491	N49	0.634450	0.553950	0.777700
N501	N50	0.624900	0.535680	0.835120
N511	N51	0.665990	0.587180	0.671910
N521	N52	0.694840	0.602310	0.622670
N531	N53	0.602600	0.457400	0.673000
N541	N54	0.624500	0.504200	0.676500
N551	N55	0.223750	0.946050	0.580500
N561	N56	0.299440	0.964320	0.589220
N571	N57	0.084730	0.912820	0.578810
N581	N58	0.020360	0.897690	0.592530
N591	N59	0.215600	0.042600	0.645200
N601	N60	0.172300	0.995800	0.620300
N611	N61	0.865550	0.643250	0.919500
N621	N62	0.875100	0.710220	0.910780
N631	N63	0.834010	0.505920	0.921190
N641	N64	0.805160	0.427830	0.907470
N651	N65	0.897400	0.570400	0.854800
N661	N66	0.875500	0.552000	0.879700
N671	N67	0.276250	0.856750	0.722300
N681	N68	0.200560	0.789780	0.664880
N691	N69	0.415270	0.994080	0.828090
N701	N70	0.479640	0.072170	0.877330
N711	N71	0.284400	0.929600	0.827000
N721	N72	0.327700	0.948000	0.823500
N731	N73	0.276250	0.419500	0.053950
N741	N74	0.200560	0.410780	0.035680
N751	N75	0.415270	0.421190	0.087180
N761	N76	0.479640	0.407470	0.102310
N771	N77	0.284400	0.354800	0.957400
N781	N78	0.327700	0.379700	0.004200
N791	N79	0.865550	0.222300	0.446050
N801	N80	0.875100	0.164880	0.464320
N811	N81	0.834010	0.328090	0.412820
N821	N82	0.805160	0.377330	0.397690
N831	N83	0.897400	0.327000	0.542600
N841	N84	0.875500	0.323500	0.495800
N851	N85	0.223750	0.277700	0.143250
N861	N86	0.299440	0.335120	0.210220
N871	N87	0.084730	0.171910	0.005920
N881	N88	0.020360	0.122670	0.927830
N891	N89	0.215600	0.173000	0.070400
N901	N90	0.172300	0.176500	0.052000
N911	N91	0.634450	0.080500	0.356750
N921	N92	0.624900	0.089220	0.289780
N931	N93	0.665990	0.078810	0.494080
N941	N94	0.694840	0.092530	0.572170
N951	N95	0.602600	0.145200	0.429600
N961	N96	0.624500	0.120300	0.448000
N971	N97	0.277700	0.643250	0.723750
N981	N98	0.335120	0.710220	0.799440
N991	N99	0.171910	0.505920	0.584730
N1001	N100	0.122670	0.427830	0.520360
N1011	N101	0.173000	0.570400	0.715600
N1021	N102	0.176500	0.552000	0.672300
N1031	N103	0.080500	0.856750	0.134450
N1041	N104	0.089220	0.789780	0.124900
N1051	N105	0.078810	0.994080	0.165990
N1061	N106	0.092530	0.072170	0.194840
N1071	N107	0.145200	0.929600	0.102600
N1081	N108	0.120300	0.948000	0.124500
N1091	N109	0.419500	0.553950	0.776250
N1101	N110	0.410780	0.535680	0.700560
N1111	N111	0.421190	0.587180	0.915270
N1121	N112	0.407470	0.602310	0.979640
N1131	N113	0.354800	0.457400	0.784400
N1141	N114	0.379700	0.504200	0.827700
N1151	N115	0.222300	0.946050	0.365550
N1161	N116	0.164880	0.964320	0.375100
N1171	N117	0.328090	0.912820	0.334010
N1181	N118	0.377330	0.897690	0.305160
N1191	N119	0.327000	0.042600	0.397400
N1201	N120	0.323500	0.995800	0.375500
N1211	N121	0.946050	0.865550	0.722300
N1221	N122	0.964320	0.875100	0.664880
N1231	N123	0.912820	0.834010	0.828090
N1241	N124	0.897690	0.805160	0.877330
N1251	N125	0.042600	0.897400	0.827000
N1261	N126	0.995800	0.875500	0.823500
N1271	N127	0.553950	0.276250	0.919500
N1281	N128	0.535680	0.200560	0.910780
N1291	N129	0.587180	0.415270	0.921190
N1301	N130	0.602310	0.479640	0.907470
N1311	N131	0.457400	0.284400	0.854800
N1321	N132	0.504200	0.327700	0.879700
N1331	N133	0.856750	0.634450	0.580500
N1341	N134	0.789780	0.624900	0.589220
N1351	N135	0.994080	0.665990	0.578810
N1361	N136	0.072170	0.694840	0.592530
N1371	N137	0.929600	0.602600	0.645200
N1381	N138	0.948000	0.624500	0.620300
N1391	N139	0.643250	0.223750	0.777700
N1401	N140	0.710220	0.299440	0.835120
N1411	N141	0.505920	0.084730	0.671910
N1421	N142	0.427830	0.020360	0.622670
N1431	N143	0.570400	0.215600	0.673000
N1441	N144	0.552000	0.172300	0.676500
N1451	N145	0.919500	0.776250	0.553950
N1461	N146	0.910780	0.700560	0.535680
N1471	N147	0.921190	0.915270	0.587180
N1481	N148	0.907470	0.979640	0.602310
N1491	N149	0.854800	0.784400	0.457400
N1501	N150	0.879700	0.827700	0.504200
N1511	N151	0.722300	0.365550	0.946050
N1521	N152	0.664880	0.375100	0.964320
N1531	N153	0.828090	0.334010	0.912820
N1541	N154	0.877330	0.305160	0.897690
N1551	N155	0.827000	0.397400	0.042600
N1561	N156	0.823500	0.375500	0.995800
N1571	N157	0.777700	0.723750	0.643250
N1581	N158	0.835120	0.799440	0.710220
N1591	N159	0.671910	0.584730	0.505920
N1601	N160	0.622670	0.520360	0.427830
N1611	N161	0.673000	0.715600	0.570400
N1621	N162	0.676500	0.672300	0.552000
N1631	N163	0.580500	0.134450	0.856750
N1641	N164	0.589220	0.124900	0.789780
N1651	N165	0.578810	0.165990	0.994080
N1661	N166	0.592530	0.194840	0.072170
N1671	N167	0.645200	0.102600	0.929600
N1681	N168	0.620300	0.124500	0.948000
N1691	N169	0.143250	0.777700	0.223750
N1701	N170	0.210220	0.835120	0.299440
N1711	N171	0.005920	0.671910	0.084730
N1721	N172	0.927830	0.622670	0.020360
N1731	N173	0.070400	0.673000	0.215600
N1741	N174	0.052000	0.676500	0.172300
N1751	N175	0.356750	0.580500	0.634450
N1761	N176	0.289780	0.589220	0.624900
N1771	N177	0.494080	0.578810	0.665990
N1781	N178	0.572170	0.592530	0.694840
N1791	N179	0.429600	0.645200	0.602600
N1801	N180	0.448000	0.620300	0.624500
N1811	N181	0.053950	0.919500	0.276250
N1821	N182	0.035680	0.910780	0.200560
N1831	N183	0.087180	0.921190	0.415270
N1841	N184	0.102310	0.907470	0.479640
N1851	N185	0.957400	0.854800	0.284400
N1861	N186	0.004200	0.879700	0.327700
N1871	N187	0.446050	0.722300	0.865550
N1881	N188	0.464320	0.664880	0.875100
N1891	N189	0.412820	0.828090	0.834010
N1901	N190	0.397690	0.877330	0.805160
N1911	N191	0.542600	0.827000	0.897400
N1921	N192	0.495800	0.823500	0.875500
N1931	N193	0.365550	0.446050	0.222300
N1941	N194	0.375100	0.464320	0.164880
N1951	N195	0.334010	0.412820	0.328090
N1961	N196	0.305160	0.397690	0.377330
N1971	N197	0.397400	0.542600	0.327000
N1981	N198	0.375500	0.495800	0.323500
N1991	N199	0.776250	0.053950	0.419500
N2001	N200	0.700560	0.035680	0.410780
N2011	N201	0.915270	0.087180	0.421190
N2021	N202	0.979640	0.102310	0.407470
N2031	N203	0.784400	0.957400	0.354800
N2041	N204	0.827700	0.004200	0.379700
N2051	N205	0.134450	0.356750	0.080500
N2061	N206	0.124900	0.289780	0.089220
N2071	N207	0.165990	0.494080	0.078810
N2081	N208	0.194840	0.572170	0.092530
N2091	N209	0.102600	0.429600	0.145200
N2101	N210	0.124500	0.448000	0.120300
N2111	N211	0.723750	0.143250	0.277700
N2121	N212	0.799440	0.210220	0.335120
N2131	N213	0.584730	0.005920	0.171910
N2141	N214	0.520360	0.927830	0.122670
N2151	N215	0.715600	0.070400	0.173000
N2161	N216	0.672300	0.052000	0.176500
N2171	N217	0.723750	0.580500	0.946050
N2181	N218	0.799440	0.589220	0.964320
N2191	N219	0.584730	0.578810	0.912820
N2201	N220	0.520360	0.592530	0.897690
N2211	N221	0.715600	0.645200	0.042600
N2221	N222	0.672300	0.620300	0.995800
N2231	N223	0.134450	0.777700	0.553950
N2241	N224	0.124900	0.835120	0.535680
N2251	N225	0.165990	0.671910	0.587180
N2261	N226	0.194840	0.622670	0.602310
N2271	N227	0.102600	0.673000	0.457400
N2281	N228	0.124500	0.676500	0.504200
N2291	N229	0.776250	0.722300	0.856750
N2301	N230	0.700560	0.664880	0.789780
N2311	N231	0.915270	0.828090	0.994080
N2321	N232	0.979640	0.877330	0.072170
N2331	N233	0.784400	0.827000	0.929600
N2341	N234	0.827700	0.823500	0.948000
N2351	N235	0.365550	0.919500	0.643250
N2361	N236	0.375100	0.910780	0.710220
N2371	N237	0.334010	0.921190	0.505920
N2381	N238	0.305160	0.907470	0.427830
N2391	N239	0.397400	0.854800	0.570400
N2401	N240	0.375500	0.879700	0.552000
N2411	N241	0.722300	0.356750	0.276250
N2421	N242	0.664880	0.289780	0.200560
N2431	N243	0.828090	0.494080	0.415270
N2441	N244	0.877330	0.572170	0.479640
N2451	N245	0.827000	0.429600	0.284400
N2461	N246	0.823500	0.448000	0.327700
N2471	N247	0.919500	0.143250	0.865550
N2481	N248	0.910780	0.210220	0.875100
N2491	N249	0.921190	0.005920	0.834010
N2501	N250	0.907470	0.927830	0.805160
N2511	N251	0.854800	0.070400	0.897400
N2521	N252	0.879700	0.052000	0.875500
N2531	N253	0.580500	0.446050	0.223750
N2541	N254	0.589220	0.464320	0.299440
N2551	N255	0.578810	0.412820	0.084730
N2561	N256	0.592530	0.397690	0.020360
N2571	N257	0.645200	0.542600	0.215600
N2581	N258	0.620300	0.495800	0.172300
N2591	N259	0.777700	0.053950	0.634450
N2601	N260	0.835120	0.035680	0.624900
N2611	N261	0.671910	0.087180	0.665990
N2621	N262	0.622670	0.102310	0.694840
N2631	N263	0.673000	0.957400	0.602600
N2641	N264	0.676500	0.004200	0.624500
N2651	N265	0.053950	0.134450	0.277700
N2661	N266	0.035680	0.124900	0.335120
N2671	N267	0.087180	0.165990	0.171910
N2681	N268	0.102310	0.194840	0.122670
N2691	N269	0.957400	0.102600	0.173000
N2701	N270	0.004200	0.124500	0.176500
N2711	N271	0.446050	0.723750	0.080500
N2721	N272	0.464320	0.799440	0.089220
N2731	N273	0.412820	0.584730	0.078810
N2741	N274	0.397690	0.520360	0.092530
N2751	N275	0.542600	0.715600	0.145200
N2761	N276	0.495800	0.672300	0.120300
N2771	N277	0.143250	0.365550	0.419500
N2781	N278	0.210220	0.375100	0.410780
N2791	N279	0.005920	0.334010	0.421190
N2801	N280	0.927830	0.305160	0.407470
N2811	N281	0.070400	0.397400	0.354800
N2821	N282	0.052000	0.375500	0.379700
N2831	N283	0.356750	0.776250	0.222300
N2841	N284	0.289780	0.700560	0.164880
N2851	N285	0.494080	0.915270	0.328090
N2861	N286	0.572170	0.979640	0.377330
N2871	N287	0.429600	0.784400	0.327000
N2881	N288	0.448000	0.827700	0.323500
