data_SEYDUW_freeONLY_PM
_symmetry_space_group_name_H-M	'P1'
_cell_length_a	8.910800
_cell_length_b	9.022300
_cell_length_c	15.683700
_cell_angle_alpha	90.000000
_cell_angle_beta	90.000000
_cell_angle_gamma	90.000000
_symmetry_Int_Tables_number 1

loop_
_symmetry_equiv_pos_as_xyz
'x,y,z'

loop_
_atom_site_label
_atom_site_type_symbol
_atom_site_fract_x
_atom_site_fract_y
_atom_site_fract_z
Y11	Y1	0.390730	0.031330	0.396090
Y21	Y2	0.609270	0.468670	0.896090
Y31	Y3	0.890730	0.968670	0.103910
Y41	Y4	0.109270	0.531330	0.603910
P11	P1	0.067990	0.127510	0.293990
P21	P2	0.932010	0.372490	0.793990
P31	P3	0.567990	0.872490	0.206010
P41	P4	0.432010	0.627510	0.706010
H11	H1	0.252400	0.144100	0.189600
H21	H2	0.177500	0.300000	0.203200
H31	H3	0.221200	0.440700	0.312800
H41	H4	0.391400	0.459900	0.334600
H51	H5	0.480700	0.376500	0.216300
H61	H6	0.488100	0.205700	0.197200
H71	H7	0.903900	0.269200	0.322400
H81	H8	0.747600	0.355900	0.689600
H91	H9	0.822500	0.200000	0.703200
H101	H10	0.778800	0.059300	0.812800
H111	H11	0.608600	0.040100	0.834600
H121	H12	0.519300	0.123500	0.716300
H131	H13	0.511900	0.294300	0.697200
H141	H14	0.096100	0.230800	0.822400
H151	H15	0.752400	0.855900	0.310400
H161	H16	0.677500	0.700000	0.296800
H171	H17	0.721200	0.559300	0.187200
H181	H18	0.891400	0.540100	0.165400
H191	H19	0.980700	0.623500	0.283700
H201	H20	0.988100	0.794300	0.302800
H211	H21	0.403900	0.730800	0.177600
H221	H22	0.247600	0.644100	0.810400
H231	H23	0.322500	0.800000	0.796800
H241	H24	0.278800	0.940700	0.687200
H251	H25	0.108600	0.959900	0.665400
H261	H26	0.019300	0.876500	0.783700
H271	H27	0.011900	0.705700	0.802800
H281	H28	0.596100	0.769200	0.677600
C11	C1	0.216200	0.213200	0.232300
C21	C2	0.306900	0.392500	0.339000
C31	C3	0.273300	0.368700	0.430500
C41	C4	0.480800	0.278900	0.242300
C51	C5	0.615000	0.264400	0.302200
C61	C6	0.783800	0.286800	0.732300
C71	C7	0.693100	0.107500	0.839000
C81	C8	0.726700	0.131300	0.930500
C91	C9	0.519200	0.221100	0.742300
C101	C10	0.385000	0.235600	0.802200
C111	C11	0.716200	0.786800	0.267700
C121	C12	0.806900	0.607500	0.161000
C131	C13	0.773300	0.631300	0.069500
C141	C14	0.980800	0.721100	0.257700
C151	C15	0.115000	0.735600	0.197800
C161	C16	0.283800	0.713200	0.767700
C171	C17	0.193100	0.892500	0.661000
C181	C18	0.226700	0.868700	0.569500
C191	C19	0.019200	0.778900	0.757700
C201	C20	0.885000	0.764400	0.697800
N11	N1	0.342100	0.257000	0.289800
N21	N2	0.657900	0.243000	0.789800
N31	N3	0.842100	0.743000	0.210200
N41	N4	0.157900	0.757000	0.710200
O11	O1	0.313700	0.244900	0.465210
O21	O2	0.208000	0.468400	0.470710
O31	O3	0.739400	0.316500	0.276400
O41	O4	0.599200	0.187900	0.370180
O51	O5	0.983200	0.249000	0.346300
O61	O6	0.964900	0.051000	0.232650
O71	O7	0.145800	0.025700	0.355310
O81	O8	0.593800	0.939600	0.479700
O91	O9	0.348800	0.766000	0.389300
O101	O10	0.686300	0.255100	0.965210
O111	O11	0.792000	0.031600	0.970710
O121	O12	0.260600	0.183500	0.776400
O131	O13	0.400800	0.312100	0.870180
O141	O14	0.016800	0.251000	0.846300
O151	O15	0.035100	0.449000	0.732650
O161	O16	0.854200	0.474300	0.855310
O171	O17	0.406200	0.560400	0.979700
O181	O18	0.651200	0.734000	0.889300
O191	O19	0.813700	0.755100	0.034790
O201	O20	0.708000	0.531600	0.029290
O211	O21	0.239400	0.683500	0.223600
O221	O22	0.099200	0.812100	0.129820
O231	O23	0.483200	0.751000	0.153700
O241	O24	0.464900	0.949000	0.267350
O251	O25	0.645800	0.974300	0.144690
O261	O26	0.093800	0.060400	0.020300
O271	O27	0.848800	0.234000	0.110700
O281	O28	0.186300	0.744900	0.534790
O291	O29	0.292000	0.968400	0.529290
O301	O30	0.760600	0.816500	0.723600
O311	O31	0.900800	0.687900	0.629820
O321	O32	0.516800	0.749000	0.653700
O331	O33	0.535100	0.551000	0.767350
O341	O34	0.354200	0.525700	0.644690
O351	O35	0.906200	0.439600	0.520300
O361	O36	0.151200	0.266000	0.610700
