data_SEYFEI_freeONLY_PM
_symmetry_space_group_name_H-M	'P1'
_cell_length_a	8.906200
_cell_length_b	8.946600
_cell_length_c	15.535300
_cell_angle_alpha	90.000000
_cell_angle_beta	90.000000
_cell_angle_gamma	90.000000
_symmetry_Int_Tables_number 1

loop_
_symmetry_equiv_pos_as_xyz
'x,y,z'

loop_
_atom_site_label
_atom_site_type_symbol
_atom_site_fract_x
_atom_site_fract_y
_atom_site_fract_z
Lu11	Lu1	0.388220	0.032140	0.395090
Lu21	Lu2	0.611780	0.467860	0.895090
Lu31	Lu3	0.888220	0.967860	0.104910
Lu41	Lu4	0.111780	0.532140	0.604910
P11	P1	0.066690	0.126830	0.293900
P21	P2	0.933310	0.373170	0.793900
P31	P3	0.566690	0.873170	0.206100
P41	P4	0.433310	0.626830	0.706100
H11	H1	0.249500	0.147000	0.187700
H21	H2	0.175300	0.303900	0.203800
H31	H3	0.220800	0.442200	0.312700
H41	H4	0.391500	0.460200	0.334400
H51	H5	0.482500	0.379200	0.216400
H61	H6	0.487900	0.207800	0.194400
H71	H7	0.902900	0.270400	0.323800
H81	H8	0.750500	0.353000	0.687700
H91	H9	0.824700	0.196100	0.703800
H101	H10	0.779200	0.057800	0.812700
H111	H11	0.608500	0.039800	0.834400
H121	H12	0.517500	0.120800	0.716400
H131	H13	0.512100	0.292200	0.694400
H141	H14	0.097100	0.229600	0.823800
H151	H15	0.749500	0.853000	0.312300
H161	H16	0.675300	0.696100	0.296200
H171	H17	0.720800	0.557800	0.187300
H181	H18	0.891500	0.539800	0.165600
H191	H19	0.982500	0.620800	0.283600
H201	H20	0.987900	0.792200	0.305600
H211	H21	0.402900	0.729600	0.176200
H221	H22	0.250500	0.647000	0.812300
H231	H23	0.324700	0.803900	0.796200
H241	H24	0.279200	0.942200	0.687300
H251	H25	0.108500	0.960200	0.665600
H261	H26	0.017500	0.879200	0.783600
H271	H27	0.012100	0.707800	0.805600
H281	H28	0.597100	0.770400	0.676200
C11	C1	0.214200	0.215100	0.231900
C21	C2	0.306500	0.392800	0.338700
C31	C3	0.273300	0.365800	0.432000
C41	C4	0.481300	0.279500	0.241100
C51	C5	0.614800	0.260300	0.301500
C61	C6	0.785800	0.284900	0.731900
C71	C7	0.693500	0.107200	0.838700
C81	C8	0.726700	0.134200	0.932000
C91	C9	0.518700	0.220500	0.741100
C101	C10	0.385200	0.239700	0.801500
C111	C11	0.714200	0.784900	0.268100
C121	C12	0.806500	0.607200	0.161300
C131	C13	0.773300	0.634200	0.068000
C141	C14	0.981300	0.720500	0.258900
C151	C15	0.114800	0.739700	0.198500
C161	C16	0.285800	0.715100	0.768100
C171	C17	0.193500	0.892800	0.661300
C181	C18	0.226700	0.865800	0.568000
C191	C19	0.018700	0.779500	0.758900
C201	C20	0.885200	0.760300	0.698500
N11	N1	0.340200	0.256400	0.289300
N21	N2	0.659800	0.243600	0.789300
N31	N3	0.840200	0.743600	0.210700
N41	N4	0.159800	0.756400	0.710700
O11	O1	0.315200	0.243200	0.465600
O21	O2	0.208600	0.469100	0.471900
O31	O3	0.738100	0.315300	0.277900
O41	O4	0.596000	0.187500	0.370700
O51	O5	0.982600	0.249700	0.347400
O61	O6	0.961000	0.049300	0.233400
O71	O7	0.146600	0.024800	0.355600
O81	O8	0.586400	0.943200	0.478900
O91	O9	0.347900	0.768200	0.388700
O101	O10	0.684800	0.256800	0.965600
O111	O11	0.791400	0.030900	0.971900
O121	O12	0.261900	0.184700	0.777900
O131	O13	0.404000	0.312500	0.870700
O141	O14	0.017400	0.250300	0.847400
O151	O15	0.039000	0.450700	0.733400
O161	O16	0.853400	0.475200	0.855600
O171	O17	0.413600	0.556800	0.978900
O181	O18	0.652100	0.731800	0.888700
O191	O19	0.815200	0.756800	0.034400
O201	O20	0.708600	0.530900	0.028100
O211	O21	0.238100	0.684700	0.222100
O221	O22	0.096000	0.812500	0.129300
O231	O23	0.482600	0.750300	0.152600
O241	O24	0.461000	0.950700	0.266600
O251	O25	0.646600	0.975200	0.144400
O261	O26	0.086400	0.056800	0.021100
O271	O27	0.847900	0.231800	0.111300
O281	O28	0.184800	0.743200	0.534400
O291	O29	0.291400	0.969100	0.528100
O301	O30	0.761900	0.815300	0.722100
O311	O31	0.904000	0.687500	0.629300
O321	O32	0.517400	0.749700	0.652600
O331	O33	0.539000	0.549300	0.766600
O341	O34	0.353400	0.524800	0.644400
O351	O35	0.913600	0.443200	0.521100
O361	O36	0.152100	0.268200	0.611300
