data_SIBMIB_freeONLY_PM
_symmetry_space_group_name_H-M	'P1'
_cell_length_a	13.632800
_cell_length_b	14.408300
_cell_length_c	25.846000
_cell_angle_alpha	90.000000
_cell_angle_beta	90.000000
_cell_angle_gamma	109.819000
_symmetry_Int_Tables_number 1

loop_
_symmetry_equiv_pos_as_xyz
'x,y,z'

loop_
_atom_site_label
_atom_site_type_symbol
_atom_site_fract_x
_atom_site_fract_y
_atom_site_fract_z
Cd11	Cd1	0.634870	0.144350	0.928260
Cd21	Cd2	0.631410	0.853790	0.003580
Cd31	Cd3	0.734840	0.753130	0.900810
Cd41	Cd4	0.757690	0.760130	0.099730
Cd51	Cd5	0.357330	0.351910	0.248650
Cd61	Cd6	0.865130	0.355650	0.428260
Cd71	Cd7	0.868590	0.646210	0.503580
Cd81	Cd8	0.765160	0.746870	0.400810
Cd91	Cd9	0.742310	0.739870	0.599730
Cd101	Cd10	0.142670	0.148090	0.748650
Cd111	Cd11	0.365130	0.855650	0.071740
Cd121	Cd12	0.368590	0.146210	0.996420
Cd131	Cd13	0.265160	0.246870	0.099190
Cd141	Cd14	0.242310	0.239870	0.900270
Cd151	Cd15	0.642670	0.648090	0.751350
Cd161	Cd16	0.134870	0.644350	0.571740
Cd171	Cd17	0.131410	0.353790	0.496420
Cd181	Cd18	0.234840	0.253130	0.599190
Cd191	Cd19	0.257690	0.260130	0.400270
Cd201	Cd20	0.857330	0.851910	0.251350
H11	H1	0.545000	0.265500	0.871000
H21	H2	0.530000	0.185000	0.838000
H31	H3	0.727000	0.137000	0.829100
H41	H4	0.716000	0.069500	0.869000
H51	H5	0.446600	0.988000	0.903000
H61	H6	0.529000	0.951000	0.903000
H71	H7	0.949800	0.137300	0.982100
H81	H8	0.660000	0.471600	0.978200
H91	H9	0.733700	0.537300	0.899300
H101	H10	0.833300	0.437700	0.907600
H111	H11	0.146200	0.551700	0.845300
H121	H12	0.234600	0.442900	0.847300
H131	H13	0.053700	0.288800	0.954800
H141	H14	0.954100	0.386800	0.952100
H151	H15	0.085500	0.674300	0.880500
H161	H16	0.980200	0.768300	0.875000
H171	H17	0.862600	0.063500	0.284000
H181	H18	0.761800	0.161100	0.289800
H191	H19	0.467400	0.051800	0.207300
H201	H20	0.370500	0.154500	0.205400
H211	H21	0.527000	0.308600	0.321200
H221	H22	0.627400	0.210000	0.325800
H231	H23	0.514700	0.930700	0.247700
H241	H24	0.621000	0.837000	0.245500
H251	H25	0.955000	0.234500	0.371000
H261	H26	0.970000	0.315000	0.338000
H271	H27	0.773000	0.363000	0.329100
H281	H28	0.784000	0.430500	0.369000
H291	H29	0.053400	0.512000	0.403000
H301	H30	0.971000	0.549000	0.403000
H311	H31	0.550200	0.362700	0.482100
H321	H32	0.840000	0.028400	0.478200
H331	H33	0.766300	0.962700	0.399300
H341	H34	0.666700	0.062300	0.407600
H351	H35	0.353800	0.948300	0.345300
H361	H36	0.265400	0.057100	0.347300
H371	H37	0.446300	0.211200	0.454800
H381	H38	0.545900	0.113200	0.452100
H391	H39	0.414500	0.825700	0.380500
H401	H40	0.519800	0.731700	0.375000
H411	H41	0.637400	0.436500	0.784000
H421	H42	0.738200	0.338900	0.789800
H431	H43	0.032600	0.448200	0.707300
H441	H44	0.129500	0.345500	0.705400
H451	H45	0.973000	0.191400	0.821200
H461	H46	0.872600	0.290000	0.825800
H471	H47	0.985300	0.569300	0.747700
H481	H48	0.879000	0.663000	0.745500
H491	H49	0.455000	0.734500	0.129000
H501	H50	0.470000	0.815000	0.162000
H511	H51	0.273000	0.863000	0.170900
H521	H52	0.284000	0.930500	0.131000
H531	H53	0.553400	0.012000	0.097000
H541	H54	0.471000	0.049000	0.097000
H551	H55	0.050200	0.862700	0.017900
H561	H56	0.340000	0.528400	0.021800
H571	H57	0.266300	0.462700	0.100700
H581	H58	0.166700	0.562300	0.092400
H591	H59	0.853800	0.448300	0.154700
H601	H60	0.765400	0.557100	0.152700
H611	H61	0.946300	0.711200	0.045200
H621	H62	0.045900	0.613200	0.047900
H631	H63	0.914500	0.325700	0.119500
H641	H64	0.019800	0.231700	0.125000
H651	H65	0.137400	0.936500	0.716000
H661	H66	0.238200	0.838900	0.710200
H671	H67	0.532600	0.948200	0.792700
H681	H68	0.629500	0.845500	0.794600
H691	H69	0.473000	0.691400	0.678800
H701	H70	0.372600	0.790000	0.674200
H711	H71	0.485300	0.069300	0.752300
H721	H72	0.379000	0.163000	0.754500
H731	H73	0.045000	0.765500	0.629000
H741	H74	0.030000	0.685000	0.662000
H751	H75	0.227000	0.637000	0.670900
H761	H76	0.216000	0.569500	0.631000
H771	H77	0.946600	0.488000	0.597000
H781	H78	0.029000	0.451000	0.597000
H791	H79	0.449800	0.637300	0.517900
H801	H80	0.160000	0.971600	0.521800
H811	H81	0.233700	0.037300	0.600700
H821	H82	0.333300	0.937700	0.592400
H831	H83	0.646200	0.051700	0.654700
H841	H84	0.734600	0.942900	0.652700
H851	H85	0.553700	0.788800	0.545200
H861	H86	0.454100	0.886800	0.547900
H871	H87	0.585500	0.174300	0.619500
H881	H88	0.480200	0.268300	0.625000
H891	H89	0.362600	0.563500	0.216000
H901	H90	0.261800	0.661100	0.210200
H911	H91	0.967400	0.551800	0.292700
H921	H92	0.870500	0.654500	0.294600
H931	H93	0.027000	0.808600	0.178800
H941	H94	0.127400	0.710000	0.174200
H951	H95	0.014700	0.430700	0.252300
H961	H96	0.121000	0.337000	0.254500
C11	C1	0.029000	0.097200	0.038600
C21	C2	0.018800	0.051700	0.086900
C31	C3	0.918100	0.010000	0.108100
C41	C4	0.830400	0.017500	0.082300
C51	C5	0.843500	0.068500	0.035600
C61	C6	0.941700	0.105700	0.014000
C71	C7	0.130500	0.133900	0.009200
C81	C8	0.109100	0.039000	0.117900
C91	C9	0.904700	0.955000	0.158800
C101	C10	0.722400	0.971300	0.105700
C111	C11	0.756300	0.081000	0.003300
C121	C12	0.610200	0.535400	0.037200
C131	C13	0.564600	0.517100	0.086200
C141	C14	0.526700	0.418700	0.104200
C151	C15	0.537800	0.342100	0.075000
C161	C16	0.589300	0.361400	0.027700
C171	C17	0.625000	0.458100	0.009700
C181	C18	0.641500	0.633300	0.010600
C191	C19	0.547200	0.598400	0.119600
C201	C20	0.469800	0.398900	0.155500
C211	C21	0.495800	0.236600	0.095100
C221	C22	0.606600	0.285100	0.992100
C231	C23	0.805800	0.565700	0.896600
C241	C24	0.864600	0.504700	0.900900
C251	C25	0.972200	0.546500	0.894900
C261	C26	0.037500	0.480800	0.898300
C271	C27	0.124300	0.497300	0.867200
C281	C28	0.177600	0.431700	0.869200
C291	C29	0.071400	0.340900	0.931300
C301	C30	0.012000	0.400600	0.930600
C311	C31	0.014000	0.645000	0.885100
C321	C32	0.950200	0.701300	0.882100
C331	C33	0.791700	0.036300	0.276900
C341	C34	0.732000	0.095600	0.279600
C351	C35	0.626800	0.057700	0.266900
C361	C36	0.560400	0.121100	0.266300
C371	C37	0.481500	0.104100	0.230400
C381	C38	0.423900	0.166500	0.229600
C391	C39	0.515800	0.257200	0.297600
C401	C40	0.575900	0.198100	0.300600
C411	C41	0.585400	0.959300	0.255000
C421	C42	0.649800	0.903500	0.254000
C431	C43	0.471000	0.402800	0.538600
C441	C44	0.481200	0.448300	0.586900
C451	C45	0.581900	0.490000	0.608100
C461	C46	0.669600	0.482500	0.582300
C471	C47	0.656500	0.431500	0.535600
C481	C48	0.558300	0.394300	0.514000
C491	C49	0.369500	0.366100	0.509200
C501	C50	0.390900	0.461000	0.617900
C511	C51	0.595300	0.545000	0.658800
C521	C52	0.777600	0.528700	0.605700
C531	C53	0.743700	0.419000	0.503300
C541	C54	0.889800	0.964600	0.537200
C551	C55	0.935400	0.982900	0.586200
C561	C56	0.973300	0.081300	0.604200
C571	C57	0.962200	0.157900	0.575000
C581	C58	0.910700	0.138600	0.527700
C591	C59	0.875000	0.041900	0.509700
C601	C60	0.858500	0.866700	0.510600
C611	C61	0.952800	0.901600	0.619600
C621	C62	0.030200	0.101100	0.655500
C631	C63	0.004200	0.263400	0.595100
C641	C64	0.893400	0.214900	0.492100
C651	C65	0.694200	0.934300	0.396600
C661	C66	0.635400	0.995300	0.400900
C671	C67	0.527800	0.953500	0.394900
C681	C68	0.462500	0.019200	0.398300
C691	C69	0.375700	0.002700	0.367200
C701	C70	0.322400	0.068300	0.369200
C711	C71	0.428600	0.159100	0.431300
C721	C72	0.488000	0.099400	0.430600
C731	C73	0.486000	0.855000	0.385100
C741	C74	0.549800	0.798700	0.382100
C751	C75	0.708300	0.463700	0.776900
C761	C76	0.768000	0.404400	0.779600
C771	C77	0.873200	0.442300	0.766900
C781	C78	0.939600	0.378900	0.766300
C791	C79	0.018500	0.395900	0.730400
C801	C80	0.076100	0.333500	0.729600
C811	C81	0.984200	0.242800	0.797600
C821	C82	0.924100	0.301900	0.800600
C831	C83	0.914600	0.540700	0.755000
C841	C84	0.850200	0.596500	0.754000
C851	C85	0.971000	0.902800	0.961400
C861	C86	0.981200	0.948300	0.913100
C871	C87	0.081900	0.990000	0.891900
C881	C88	0.169600	0.982500	0.917700
C891	C89	0.156500	0.931500	0.964400
C901	C90	0.058300	0.894300	0.986000
C911	C91	0.869500	0.866100	0.990800
C921	C92	0.890900	0.961000	0.882100
C931	C93	0.095300	0.045000	0.841200
C941	C94	0.277600	0.028700	0.894300
C951	C95	0.243700	0.919000	0.996700
C961	C96	0.389800	0.464600	0.962800
C971	C97	0.435400	0.482900	0.913800
C981	C98	0.473300	0.581300	0.895800
C991	C99	0.462200	0.657900	0.925000
C1001	C100	0.410700	0.638600	0.972300
C1011	C101	0.375000	0.541900	0.990300
C1021	C102	0.358500	0.366700	0.989400
C1031	C103	0.452800	0.401600	0.880400
C1041	C104	0.530200	0.601100	0.844500
C1051	C105	0.504200	0.763400	0.904900
C1061	C106	0.393400	0.714900	0.007900
C1071	C107	0.194200	0.434300	0.103400
C1081	C108	0.135400	0.495300	0.099100
C1091	C109	0.027800	0.453500	0.105100
C1101	C110	0.962500	0.519200	0.101700
C1111	C111	0.875700	0.502700	0.132800
C1121	C112	0.822400	0.568300	0.130800
C1131	C113	0.928600	0.659100	0.068700
C1141	C114	0.988000	0.599400	0.069400
C1151	C115	0.986000	0.355000	0.114900
C1161	C116	0.049800	0.298700	0.117900
C1171	C117	0.208300	0.963700	0.723100
C1181	C118	0.268000	0.904400	0.720400
C1191	C119	0.373200	0.942300	0.733100
C1201	C120	0.439600	0.878900	0.733700
C1211	C121	0.518500	0.895900	0.769600
C1221	C122	0.576100	0.833500	0.770400
C1231	C123	0.484200	0.742800	0.702400
C1241	C124	0.424100	0.801900	0.699400
C1251	C125	0.414600	0.040700	0.745000
C1261	C126	0.350200	0.096500	0.746000
C1271	C127	0.529000	0.597200	0.461400
C1281	C128	0.518800	0.551700	0.413100
C1291	C129	0.418100	0.510000	0.391900
C1301	C130	0.330400	0.517500	0.417700
C1311	C131	0.343500	0.568500	0.464400
C1321	C132	0.441700	0.605700	0.486000
C1331	C133	0.630500	0.633900	0.490800
C1341	C134	0.609100	0.539000	0.382100
C1351	C135	0.404700	0.455000	0.341200
C1361	C136	0.222400	0.471300	0.394300
C1371	C137	0.256300	0.581000	0.496700
C1381	C138	0.110200	0.035400	0.462800
C1391	C139	0.064600	0.017100	0.413800
C1401	C140	0.026700	0.918700	0.395800
C1411	C141	0.037800	0.842100	0.425000
C1421	C142	0.089300	0.861400	0.472300
C1431	C143	0.125000	0.958100	0.490300
C1441	C144	0.141500	0.133300	0.489400
C1451	C145	0.047200	0.098400	0.380400
C1461	C146	0.969800	0.898900	0.344500
C1471	C147	0.995800	0.736600	0.404900
C1481	C148	0.106600	0.785100	0.507900
C1491	C149	0.305800	0.065700	0.603400
C1501	C150	0.364600	0.004700	0.599100
C1511	C151	0.472200	0.046500	0.605100
C1521	C152	0.537500	0.980800	0.601700
C1531	C153	0.624300	0.997300	0.632800
C1541	C154	0.677600	0.931700	0.630800
C1551	C155	0.571400	0.840900	0.568700
C1561	C156	0.512000	0.900600	0.569400
C1571	C157	0.514000	0.145000	0.614900
C1581	C158	0.450200	0.201300	0.617900
C1591	C159	0.291700	0.536300	0.223100
C1601	C160	0.232000	0.595600	0.220400
C1611	C161	0.126800	0.557700	0.233100
C1621	C162	0.060400	0.621100	0.233700
C1631	C163	0.981500	0.604100	0.269600
C1641	C164	0.923900	0.666500	0.270400
C1651	C165	0.015800	0.757200	0.202400
C1661	C166	0.075900	0.698100	0.199400
C1671	C167	0.085400	0.459300	0.245000
C1681	C168	0.149800	0.403500	0.246000
N11	N1	0.846100	0.663400	0.888840
N21	N2	0.153300	0.352700	0.900500
N31	N3	0.752000	0.940700	0.264530
N41	N4	0.440700	0.243000	0.261540
N51	N5	0.653900	0.836600	0.388840
N61	N6	0.346700	0.147300	0.400500
N71	N7	0.748000	0.559300	0.764530
N81	N8	0.059300	0.257000	0.761540
N91	N9	0.153900	0.336600	0.111160
N101	N10	0.846700	0.647300	0.099500
N111	N11	0.248000	0.059300	0.735470
N121	N12	0.559300	0.757000	0.738460
N131	N13	0.346100	0.163400	0.611160
N141	N14	0.653300	0.852700	0.599500
N151	N15	0.252000	0.440700	0.235470
N161	N16	0.940700	0.743000	0.238460
O11	O1	0.129500	0.165700	0.964720
O21	O2	0.210700	0.129000	0.032640
O31	O3	0.168000	0.114400	0.141980
O41	O4	0.113700	0.955800	0.120600
O51	O5	0.956400	0.994000	0.196810
O61	O6	0.838100	0.867300	0.160530
O71	O7	0.690500	0.020300	0.135550
O81	O8	0.671000	0.881400	0.091530
O91	O9	0.666400	0.016300	0.004580
O101	O10	0.777400	0.155000	0.975500
O111	O11	0.674800	0.639200	0.965410
O121	O12	0.629800	0.705400	0.035640
O131	O13	0.626300	0.655700	0.143670
O141	O14	0.457400	0.599400	0.122020
O151	O15	0.510500	0.446600	0.194090
O161	O16	0.380200	0.331900	0.158070
O171	O17	0.552800	0.204900	0.120760
O181	O18	0.401200	0.185000	0.082960
O191	O19	0.543200	0.195200	0.994620
O201	O20	0.680300	0.310200	0.961400
O211	O21	0.540900	0.205300	0.868980
O221	O22	0.735500	0.130700	0.861500
O231	O23	0.511700	0.001800	0.907900
O241	O24	0.370500	0.334300	0.464720
O251	O25	0.289300	0.371000	0.532640
O261	O26	0.332000	0.385600	0.641980
O271	O27	0.386300	0.544200	0.620600
O281	O28	0.543600	0.506000	0.696810
O291	O29	0.661900	0.632700	0.660530
O301	O30	0.809500	0.479700	0.635550
O311	O31	0.829000	0.618600	0.591530
O321	O32	0.833600	0.483700	0.504580
O331	O33	0.722600	0.345000	0.475500
O341	O34	0.825200	0.860800	0.465410
O351	O35	0.870200	0.794600	0.535640
O361	O36	0.873700	0.844300	0.643670
O371	O37	0.042600	0.900600	0.622020
O381	O38	0.989500	0.053400	0.694090
O391	O39	0.119800	0.168100	0.658070
O401	O40	0.947200	0.295100	0.620760
O411	O41	0.098800	0.315000	0.582960
O421	O42	0.956800	0.304800	0.494620
O431	O43	0.819700	0.189800	0.461400
O441	O44	0.959100	0.294700	0.368980
O451	O45	0.764500	0.369300	0.361500
O461	O46	0.988300	0.498200	0.407900
O471	O47	0.870500	0.834300	0.035280
O481	O48	0.789300	0.871000	0.967360
O491	O49	0.832000	0.885600	0.858020
O501	O50	0.886300	0.044200	0.879400
O511	O51	0.043600	0.006000	0.803190
O521	O52	0.161900	0.132700	0.839470
O531	O53	0.309500	0.979700	0.864450
O541	O54	0.329000	0.118600	0.908470
O551	O55	0.333600	0.983700	0.995420
O561	O56	0.222600	0.845000	0.024500
O571	O57	0.325200	0.360800	0.034590
O581	O58	0.370200	0.294600	0.964360
O591	O59	0.373700	0.344300	0.856330
O601	O60	0.542600	0.400600	0.877980
O611	O61	0.489500	0.553400	0.805910
O621	O62	0.619800	0.668100	0.841930
O631	O63	0.447200	0.795100	0.879240
O641	O64	0.598800	0.815000	0.917040
O651	O65	0.456800	0.804800	0.005380
O661	O66	0.319700	0.689800	0.038600
O671	O67	0.459100	0.794700	0.131020
O681	O68	0.264500	0.869300	0.138500
O691	O69	0.488300	0.998200	0.092100
O701	O70	0.629500	0.665700	0.535280
O711	O71	0.710700	0.629000	0.467360
O721	O72	0.668000	0.614400	0.358020
O731	O73	0.613700	0.455800	0.379400
O741	O74	0.456400	0.494000	0.303190
O751	O75	0.338100	0.367300	0.339470
O761	O76	0.190500	0.520300	0.364450
O771	O77	0.171000	0.381400	0.408470
O781	O78	0.166400	0.516300	0.495420
O791	O79	0.277400	0.655000	0.524500
O801	O80	0.174800	0.139200	0.534590
O811	O81	0.129800	0.205400	0.464360
O821	O82	0.126300	0.155700	0.356330
O831	O83	0.957400	0.099400	0.377980
O841	O84	0.010500	0.946600	0.305910
O851	O85	0.880200	0.831900	0.341930
O861	O86	0.052800	0.704900	0.379240
O871	O87	0.901200	0.685000	0.417040
O881	O88	0.043200	0.695200	0.505380
O891	O89	0.180300	0.810200	0.538600
O901	O90	0.040900	0.705300	0.631020
O911	O91	0.235500	0.630700	0.638500
O921	O92	0.011700	0.501800	0.592100
