data_SITTUM_freeONLY_PM
_symmetry_space_group_name_H-M	'P1'
_cell_length_a	13.122000
_cell_length_b	20.288100
_cell_length_c	20.288100
_cell_angle_alpha	83.996900
_cell_angle_beta	71.131800
_cell_angle_gamma	71.131900
_symmetry_Int_Tables_number 1

loop_
_symmetry_equiv_pos_as_xyz
'x,y,z'

loop_
_atom_site_label
_atom_site_type_symbol
_atom_site_fract_x
_atom_site_fract_y
_atom_site_fract_z
Zn11	Zn1	0.434970	0.162870	0.113170
Zn21	Zn2	0.451860	0.113170	0.337130
Zn31	Zn3	0.469030	0.529080	0.802440
Zn41	Zn4	0.728530	0.802440	0.970920
Zn51	Zn5	0.565030	0.837130	0.886830
Zn61	Zn6	0.211010	0.337130	0.386830
Zn71	Zn7	0.998110	0.302440	0.470920
Zn81	Zn8	0.548140	0.886830	0.662870
Zn91	Zn9	0.001890	0.697560	0.529080
Zn101	Zn10	0.300550	0.970920	0.697560
Zn111	Zn11	0.402160	0.386830	0.162870
Zn121	Zn12	0.788990	0.662870	0.613170
Zn131	Zn13	0.271470	0.197560	0.029080
Zn141	Zn14	0.597840	0.613170	0.837130
Zn151	Zn15	0.699450	0.029080	0.302440
Zn161	Zn16	0.530970	0.470920	0.197560
H11	H1	0.441800	0.753500	0.402300
H21	H2	0.701400	0.012800	0.829800
H31	H3	0.512600	0.634100	0.640500
H41	H4	0.159800	0.462400	0.238600
H51	H5	0.277200	0.814400	0.990400
H61	H6	0.824500	0.545000	0.935000
H71	H7	0.673500	0.016500	0.147700
H81	H8	0.659800	0.525400	0.055600
H91	H9	0.368900	0.790100	0.860900
H101	H10	0.840200	0.537600	0.761400
H111	H11	0.493800	0.273000	0.674400
H121	H12	0.358600	0.891700	0.490300
H131	H13	0.897600	0.408300	0.614500
H141	H14	0.449500	0.343000	0.884800
H151	H15	0.678900	0.567900	0.186900
H161	H16	0.195500	0.045000	0.435000
H171	H17	0.601600	0.238600	0.037600
H181	H18	0.753200	0.313100	0.567900
H191	H19	0.995300	0.728900	0.153700
H201	H20	0.956000	0.512800	0.329800
H211	H21	0.420400	0.091700	0.885500
H221	H22	0.195300	0.902300	0.246500
H231	H23	0.281100	0.425400	0.927400
H241	H24	0.035800	0.316600	0.712000
H251	H25	0.178800	0.147700	0.483500
H261	H26	0.149000	0.846300	0.228900
H271	H27	0.626100	0.775700	0.163100
H281	H28	0.792500	0.384800	0.657000
H291	H29	0.102400	0.591700	0.385500
H301	H30	0.519900	0.709900	0.639100
H311	H31	0.229800	0.139100	0.290100
H321	H32	0.506200	0.727000	0.325600
H331	H33	0.213800	0.478700	0.378300
H341	H34	0.558200	0.246500	0.597700
H351	H35	0.246800	0.686900	0.432100
H361	H36	0.259200	0.025400	0.555600
H371	H37	0.398400	0.761400	0.962400
H381	H38	0.908400	0.509600	0.814400
H391	H39	0.153100	0.359500	0.134100
H401	H40	0.714200	0.329800	0.987200
H411	H41	0.334600	0.344300	0.604700
H421	H42	0.293500	0.572600	0.425400
H431	H43	0.334100	0.269700	0.903700
H441	H44	0.848900	0.509700	0.391700
H451	H45	0.429200	0.978700	0.878300
H461	H46	0.866100	0.925400	0.427400
H471	H47	0.066300	0.067900	0.686900
H481	H48	0.373900	0.224300	0.836900
H491	H49	0.307500	0.121700	0.478700
H501	H50	0.310000	0.352300	0.016500
H511	H51	0.284600	0.055600	0.974600
H521	H52	0.804500	0.955000	0.565000
H531	H53	0.665700	0.884800	0.157000
H541	H54	0.097600	0.746500	0.097700
H551	H55	0.134200	0.186900	0.932100
H561	H56	0.665900	0.730300	0.096300
H571	H57	0.004700	0.271100	0.846300
H581	H58	0.401800	0.663100	0.224300
H591	H59	0.269600	0.487600	0.062800
H601	H60	0.718900	0.574600	0.072600
H611	H61	0.044000	0.487200	0.670200
H621	H62	0.853300	0.859500	0.634100
H631	H63	0.240600	0.608300	0.009700
H641	H64	0.185700	0.231900	0.870900
H651	H65	0.185200	0.555600	0.474600
H661	H66	0.762200	0.903700	0.230300
H671	H67	0.007500	0.230300	0.596300
H681	H68	0.822700	0.843000	0.384800
H691	H69	0.352400	0.212000	0.683400
H701	H70	0.058800	0.773000	0.174400
H711	H71	0.582000	0.685600	0.509600
H721	H72	0.159000	0.360900	0.209900
H731	H73	0.168200	0.325600	0.773000
H741	H74	0.759400	0.391700	0.990300
H751	H75	0.831800	0.674400	0.227000
H761	H76	0.690000	0.647700	0.983500
H771	H77	0.788500	0.268100	0.629100
H781	H78	0.631100	0.209900	0.139100
H791	H79	0.789200	0.836900	0.275700
H801	H80	0.694100	0.885500	0.408300
H811	H81	0.240500	0.935000	0.955000
H821	H82	0.216400	0.844300	0.104700
H831	H83	0.759500	0.065000	0.045000
H841	H84	0.091600	0.490400	0.185600
H851	H85	0.603800	0.403700	0.730300
H861	H86	0.207500	0.615200	0.343000
H871	H87	0.814300	0.768100	0.129100
H881	H88	0.579600	0.908300	0.114500
H891	H89	0.662300	0.516500	0.647700
H901	H90	0.133900	0.074600	0.572600
H911	H91	0.377800	0.261400	0.462400
H921	H92	0.724200	0.653700	0.271100
H931	H93	0.174100	0.033000	0.176400
H941	H94	0.639200	0.962400	0.738600
H951	H95	0.369500	0.435000	0.455000
H961	H96	0.592100	0.621700	0.978700
H971	H97	0.846900	0.640500	0.865900
H981	H98	0.340200	0.474600	0.944400
H991	H99	0.155900	0.402300	0.746500
H1001	H100	0.825900	0.967000	0.823600
H1011	H101	0.680000	0.987600	0.562800
H1021	H102	0.933700	0.932100	0.313100
H1031	H103	0.935100	0.275700	0.663100
H1041	H104	0.722800	0.185600	0.009600
H1051	H105	0.791500	0.927400	0.074600
H1061	H106	0.582400	0.629100	0.231900
H1071	H107	0.943400	0.870900	0.268100
H1081	H108	0.883500	0.467000	0.323600
H1091	H109	0.377900	0.771100	0.346300
H1101	H110	0.622200	0.738600	0.537600
H1111	H111	0.564400	0.183400	0.788000
H1121	H112	0.305900	0.114500	0.591700
H1131	H113	0.706500	0.427400	0.574600
H1141	H114	0.321100	0.432100	0.813100
H1151	H115	0.766800	0.174400	0.727000
H1161	H116	0.321100	0.895300	0.344300
H1171	H117	0.732400	0.990400	0.685600
H1181	H118	0.570800	0.021300	0.121700
H1191	H119	0.116500	0.533000	0.676400
H1201	H120	0.298600	0.987200	0.170200
H1211	H121	0.641400	0.108300	0.509700
H1221	H122	0.814800	0.444400	0.525400
H1231	H123	0.250300	0.990300	0.108300
H1241	H124	0.622100	0.228900	0.653700
H1251	H125	0.865800	0.813100	0.067900
H1261	H126	0.649500	0.176400	0.467000
H1271	H127	0.678900	0.104700	0.655700
H1281	H128	0.730400	0.512400	0.937200
H1291	H129	0.630500	0.565000	0.545000
H1301	H130	0.841000	0.639100	0.790100
H1311	H131	0.175500	0.455000	0.065000
H1321	H132	0.350500	0.823600	0.533000
H1331	H133	0.770200	0.860900	0.709900
H1341	H134	0.056600	0.129100	0.731900
H1351	H135	0.480100	0.290100	0.360900
H1361	H136	0.964200	0.683400	0.288000
H1371	H137	0.531200	0.170200	0.512800
H1381	H138	0.715400	0.944400	0.025400
H1391	H139	0.804700	0.097700	0.753500
H1401	H140	0.665400	0.655700	0.395300
H1411	H141	0.992500	0.769700	0.403700
H1421	H142	0.487400	0.365900	0.359500
H1431	H143	0.418000	0.314400	0.490400
H1441	H144	0.740800	0.974600	0.444400
H1451	H145	0.064900	0.724300	0.336900
H1461	H146	0.487900	0.614500	0.091700
H1471	H147	0.821200	0.852300	0.516500
H1481	H148	0.747800	0.288000	0.816600
H1491	H149	0.783600	0.155700	0.895300
H1501	H150	0.435600	0.816600	0.212000
H1511	H151	0.396200	0.596300	0.269700
H1521	H152	0.360800	0.037600	0.261400
H1531	H153	0.233200	0.825600	0.273000
H1541	H154	0.210800	0.163100	0.724300
H1551	H155	0.211500	0.731900	0.370900
H1561	H156	0.939300	0.395300	0.844300
H1571	H157	0.757200	0.562800	0.512400
H1581	H158	0.285800	0.670200	0.012800
H1591	H159	0.844100	0.597700	0.253500
H1601	H160	0.207100	0.676400	0.967000
H1611	H161	0.941200	0.227000	0.825600
H1621	H162	0.512100	0.385500	0.908300
H1631	H163	0.792900	0.323600	0.033000
H1641	H164	0.749700	0.009700	0.891700
H1651	H165	0.598200	0.336900	0.775700
H1661	H166	0.267600	0.009600	0.314400
H1671	H167	0.786200	0.521300	0.621700
H1681	H168	0.337700	0.483500	0.352300
H1691	H169	0.468800	0.829800	0.487200
H1701	H170	0.177300	0.157000	0.615200
H1711	H171	0.334300	0.115200	0.843000
H1721	H172	0.647600	0.788000	0.316600
H1731	H173	0.902400	0.253500	0.902300
H1741	H174	0.275800	0.346300	0.728900
H1751	H175	0.151100	0.490300	0.608300
H1761	H176	0.712800	0.134100	0.140500
H1771	H177	0.326500	0.983500	0.852300
H1781	H178	0.417600	0.370900	0.768100
H1791	H179	0.332400	0.937200	0.987600
H1801	H180	0.667600	0.062800	0.012400
H1811	H181	0.208500	0.072600	0.925400
H1821	H182	0.252200	0.712000	0.183400
H1831	H183	0.146700	0.140500	0.365900
H1841	H184	0.060700	0.604700	0.155700
H1851	H185	0.287200	0.865900	0.859500
H1861	H186	0.550500	0.657000	0.115200
H1871	H187	0.407900	0.378300	0.021300
H1881	H188	0.242800	0.437200	0.487600
H1891	H189	0.851000	0.153700	0.771100
H1901	H190	0.692500	0.878300	0.521300
H1911	H191	0.320000	0.012400	0.437200
H1921	H192	0.237800	0.096300	0.769700
C11	C1	0.335900	0.021400	0.308800
C21	C2	0.239900	0.669700	0.181500
C31	C3	0.750200	0.983600	0.854800
C41	C4	0.912900	0.964300	0.218900
C51	C5	0.744600	0.681300	0.456300
C61	C6	0.622300	0.891200	0.303400
C71	C7	0.631100	0.777500	0.114100
C81	C8	0.074300	0.303400	0.608800
C91	C9	0.344200	0.426300	0.941900
C101	C10	0.651700	0.013900	0.106900
C111	C11	0.398100	0.418800	0.782000
C121	C12	0.016800	0.577100	0.615100
C131	C13	0.286100	0.058100	0.926300
C141	C14	0.254800	0.114100	0.722500
C151	C15	0.617800	0.181300	0.956300
C161	C16	0.760100	0.330300	0.818500
C171	C17	0.156200	0.307200	0.544400
C181	C18	0.749800	0.555400	0.930000
C191	C19	0.587300	0.647500	0.709300
C201	C20	0.578600	0.181500	0.830300
C211	C21	0.769700	0.889700	0.390300
C221	C22	0.733800	0.354800	0.016400
C231	C23	0.250200	0.444600	0.070000
C241	C24	0.183100	0.718000	0.418800
C251	C25	0.131800	0.781100	0.464300
C261	C26	0.574100	0.043700	0.681300
C271	C27	0.977300	0.277500	0.614100
C281	C28	0.868200	0.218900	0.535700
C291	C29	0.264800	0.055400	0.430000
C301	C30	0.444100	0.852500	0.790700
C311	C31	0.486500	0.196600	0.891200
C321	C32	0.180100	0.218000	0.918800
C331	C33	0.787600	0.926300	0.441900
C341	C34	0.310900	0.836000	0.170200
C351	C35	0.665600	0.606900	0.986100
C361	C36	0.320200	0.930000	0.944600
C371	C37	0.212400	0.073700	0.558100
C381	C38	0.709000	0.922900	0.884900
C391	C39	0.799100	0.456300	0.818700
C401	C40	0.875200	0.394100	0.834700
C411	C41	0.382200	0.818700	0.043700
C421	C42	0.507800	0.192800	0.955600
C431	C43	0.340600	0.109700	0.889700
C441	C44	0.241400	0.106900	0.486100
C451	C45	0.636200	0.160900	0.141700
C461	C46	0.098900	0.081200	0.718000
C471	C47	0.765200	0.790700	0.647500
C481	C48	0.408900	0.169700	0.681500
C491	C49	0.604000	0.105900	0.665300
C501	C50	0.425900	0.956300	0.318700
C511	C51	0.601900	0.581200	0.218000
C521	C52	0.853100	0.329800	0.836000
C531	C53	0.561200	0.660900	0.641700
C541	C54	0.549700	0.610300	0.109700
C551	C55	0.124800	0.605900	0.165300
C561	C56	0.396000	0.894100	0.334700
C571	C57	0.911400	0.483600	0.354800
C581	C58	0.272500	0.486100	0.393100
C591	C59	0.689100	0.164000	0.829800
C601	C60	0.901100	0.918800	0.282000
C611	C61	0.492200	0.807200	0.044400
C621	C62	0.450300	0.389700	0.890300
C631	C63	0.481100	0.829800	0.336000
C641	C64	0.694800	0.570000	0.555400
C651	C65	0.230300	0.110300	0.609700
C661	C66	0.727500	0.513900	0.606900
C671	C67	0.843800	0.692800	0.455600
C681	C68	0.368100	0.615100	0.922900
C691	C69	0.160000	0.609700	0.389700
C701	C70	0.664100	0.978600	0.691200
C711	C71	0.735200	0.944600	0.570000
C721	C72	0.166100	0.478600	0.191200
C731	C73	0.745200	0.885900	0.277500
C741	C74	0.357300	0.808800	0.978600
C751	C75	0.631900	0.384900	0.077100
C761	C76	0.291000	0.077100	0.115100
C771	C77	0.200900	0.543700	0.181300
C781	C78	0.833900	0.521400	0.808800
C791	C79	0.591100	0.830300	0.318500
C801	C80	0.642700	0.191200	0.021400
C811	C81	0.088600	0.516400	0.645200
C821	C82	0.819900	0.782000	0.081200
C831	C83	0.803000	0.645800	0.264600
C841	C84	0.730700	0.665300	0.394100
C851	C85	0.305200	0.430000	0.444600
C861	C86	0.644700	0.691200	0.521400
C871	C87	0.348300	0.986100	0.893100
C881	C88	0.448800	0.764600	0.354200
C891	C89	0.316900	0.608800	0.196600
C901	C90	0.513500	0.803400	0.108800
C911	C91	0.605000	0.145200	0.483600
C921	C92	0.377700	0.108800	0.696600
C931	C93	0.709900	0.165300	0.894100
C941	C94	0.266200	0.645200	0.983600
C951	C95	0.659400	0.890300	0.110300
C961	C96	0.213400	0.854200	0.235400
C971	C97	0.770500	0.441900	0.573700
C981	C98	0.202900	0.358300	0.160900
C991	C99	0.299400	0.544400	0.192800
C1001	C100	0.518900	0.170200	0.664000
C1011	C101	0.925700	0.696600	0.391200
C1021	C102	0.593900	0.115100	0.422900
C1031	C103	0.438800	0.339100	0.358300
C1041	C104	0.713900	0.941900	0.073700
C1051	C105	0.463400	0.044400	0.692800
C1061	C106	0.816900	0.282000	0.581200
C1071	C107	0.817100	0.664000	0.329800
C1081	C108	0.797100	0.641700	0.839100
C1091	C109	0.536600	0.955600	0.307200
C1101	C110	0.403900	0.464300	0.718900
C1111	C111	0.334400	0.393100	0.013900
C1121	C112	0.222100	0.141700	0.339100
C1131	C113	0.932400	0.264600	0.854200
C1141	C114	0.197000	0.354200	0.735400
C1151	C115	0.368900	0.222500	0.885900
C1161	C116	0.877200	0.718900	0.035700
C1171	C117	0.022700	0.722500	0.385900
C1181	C118	0.249800	0.016400	0.145200
C1191	C119	0.596100	0.535700	0.281100
C1201	C120	0.703400	0.709300	0.852500
C1211	C121	0.655800	0.573700	0.058100
C1221	C122	0.551200	0.235400	0.645800
C1231	C123	0.255400	0.318700	0.543700
C1241	C124	0.067600	0.735400	0.145800
C1251	C125	0.412700	0.352500	0.290700
C1261	C126	0.234800	0.209300	0.352500
C1271	C127	0.229500	0.558100	0.426300
C1281	C128	0.355300	0.308800	0.478600
C1291	C129	0.122800	0.281100	0.964300
C1301	C130	0.786600	0.145800	0.764600
C1311	C131	0.983200	0.422900	0.384900
C1321	C132	0.290100	0.834700	0.105900
C1331	C133	0.555900	0.147500	0.209300
C1341	C134	0.591400	0.385900	0.777500
C1351	C135	0.758600	0.893100	0.513900
C1361	C136	0.090400	0.318500	0.669700
C1371	C137	0.182900	0.336000	0.670200
C1381	C138	0.840000	0.390300	0.610300
C1391	C139	0.679800	0.070000	0.055400
C1401	C140	0.406100	0.884900	0.577100
C1411	C141	0.363800	0.839100	0.858300
C1421	C142	0.146900	0.670200	0.164000
C1431	C143	0.087100	0.035700	0.781100
C1441	C144	0.909600	0.681500	0.330300
C1451	C145	0.683100	0.391200	0.803400
C1461	C146	0.269300	0.334700	0.605900
C1471	C147	0.296600	0.290700	0.147500
C1481	C148	0.421400	0.818500	0.169700
C1491	C149	0.777900	0.858300	0.660900
C1501	C150	0.700600	0.455600	0.807200
C1511	C151	0.408600	0.614100	0.222500
C1521	C152	0.395000	0.854800	0.516400
N11	N1	0.612620	0.142370	0.079790
N21	N2	0.474200	0.423300	0.819500
N31	N3	0.217000	0.076700	0.680500
N41	N4	0.783000	0.923300	0.319500
N51	N5	0.293700	0.180500	0.923300
N61	N6	0.706300	0.819500	0.076700
N71	N7	0.334780	0.357630	0.420210
N81	N8	0.754990	0.579790	0.857630
N91	N9	0.525800	0.576700	0.180500
N101	N10	0.307590	0.079790	0.357630
N111	N11	0.102500	0.680500	0.423300
N121	N12	0.897500	0.319500	0.576700
N131	N13	0.387380	0.857630	0.920210
N141	N14	0.692410	0.920210	0.642370
N151	N15	0.245010	0.420210	0.142370
N161	N16	0.665220	0.642370	0.579790
O11	O1	0.430600	0.520500	0.720300
O21	O2	0.569400	0.479500	0.279700
O31	O3	0.461700	0.143520	0.209880
O41	O4	0.079500	0.419300	0.380300
O51	O5	0.488800	0.357690	0.236510
O61	O6	0.684900	0.643520	0.709880
O71	O7	0.849100	0.720300	0.979500
O81	O8	0.583000	0.142310	0.263490
O91	O9	0.538300	0.856480	0.790120
O101	O10	0.383600	0.447000	0.669400
O111	O11	0.328420	0.209880	0.356480
O121	O12	0.274690	0.236510	0.142310
O131	O13	0.048900	0.779700	0.520500
O141	O14	0.379100	0.080700	0.119700
O151	O15	0.688000	0.084700	0.377500
O161	O16	0.153510	0.263490	0.357690
O171	O17	0.000000	0.947000	0.169400
O181	O18	0.053000	0.330600	0.947000
O191	O19	0.616400	0.553000	0.330600
O201	O20	0.920500	0.580700	0.619700
O211	O21	0.934500	0.377500	0.415300
O221	O22	0.169400	0.830600	0.447000
O231	O23	0.374670	0.483900	0.203560
O241	O24	0.605220	0.709880	0.856480
O251	O25	0.394780	0.290120	0.143520
O261	O26	0.498800	0.880300	0.580700
O271	O27	0.511200	0.642310	0.763490
O281	O28	0.625330	0.516100	0.796440
O291	O29	0.065500	0.622500	0.584700
O301	O30	0.459800	0.619700	0.919300
O311	O31	0.349800	0.584700	0.877500
O321	O32	0.858570	0.703560	0.516100
O331	O33	0.540200	0.380300	0.080700
O341	O34	0.501200	0.119700	0.419300
O351	O35	0.620900	0.919300	0.880300
O361	O36	0.000000	0.053000	0.830600
O371	O37	0.947000	0.669400	0.053000
O381	O38	0.150900	0.279700	0.020500
O391	O39	0.437870	0.983900	0.703560
O401	O40	0.421770	0.203560	0.016100
O411	O41	0.141430	0.296440	0.483900
O421	O42	0.171400	0.979500	0.779700
O431	O43	0.227300	0.122500	0.084700
O441	O44	0.312000	0.915300	0.622500
O451	O45	0.671580	0.790120	0.643520
O461	O46	0.772700	0.877500	0.915300
O471	O47	0.315100	0.356480	0.290120
O481	O48	0.830600	0.169400	0.553000
O491	O49	0.417000	0.857690	0.736510
O501	O50	0.828600	0.020500	0.220300
O511	O51	0.725310	0.763490	0.857690
O521	O52	0.650200	0.415300	0.122500
O531	O53	0.846490	0.736510	0.642310
O541	O54	0.562130	0.016100	0.296440
O551	O55	0.578230	0.796440	0.983900
O561	O56	0.951100	0.220300	0.479500
