data_SOPLOA_freeONLY_PM
_symmetry_space_group_name_H-M	'P1'
_cell_length_a	14.170000
_cell_length_b	16.381000
_cell_length_c	19.415000
_cell_angle_alpha	104.250000
_cell_angle_beta	90.000000
_cell_angle_gamma	90.000000
_symmetry_Int_Tables_number 1

loop_
_symmetry_equiv_pos_as_xyz
'x,y,z'

loop_
_atom_site_label
_atom_site_type_symbol
_atom_site_fract_x
_atom_site_fract_y
_atom_site_fract_z
Zn11	Zn1	0.568370	0.768950	0.678390
Zn21	Zn2	0.931630	0.268950	0.178390
H11	H1	0.814600	0.987800	0.344900
H21	H2	0.413000	0.489800	0.612900
H31	H3	0.943800	0.472400	0.067200
H41	H4	0.336700	0.430300	0.509500
H51	H5	0.685400	0.487800	0.844900
H61	H6	0.450900	0.927800	0.736100
H71	H7	0.592500	0.070800	0.500500
H81	H8	0.834800	0.672100	0.969700
H91	H9	0.642100	0.576900	0.773800
H101	H10	0.828900	0.940900	0.437600
H111	H11	0.087000	0.989800	0.112900
H121	H12	0.907500	0.570800	0.000500
H131	H13	0.163300	0.930300	0.009500
H141	H14	0.154600	0.253900	0.371800
H151	H15	0.708600	0.347300	0.007200
H161	H16	0.459200	0.712300	0.785600
H171	H17	0.857900	0.076900	0.273800
H181	H18	0.040800	0.212300	0.285600
H191	H19	0.705800	0.262000	0.398000
H201	H20	0.159800	0.481100	0.323600
H211	H21	0.665200	0.172100	0.469700
H221	H22	0.253000	0.355000	0.432800
H231	H23	0.794200	0.762000	0.898000
H241	H24	0.102300	0.115000	0.957700
H251	H25	0.016800	0.221600	0.027800
H261	H26	0.345400	0.753900	0.871800
H271	H27	0.000100	0.100400	0.178800
H281	H28	0.049100	0.427800	0.236100
H291	H29	0.483200	0.721600	0.527800
H301	H30	0.340200	0.981100	0.823600
H311	H31	0.247000	0.855000	0.932800
H321	H32	0.556200	0.972400	0.567200
H331	H33	0.791400	0.847300	0.507200
H341	H34	0.671100	0.440900	0.937600
H351	H35	0.499900	0.600400	0.678800
H361	H36	0.397700	0.615000	0.457700
C11	C1	0.681700	0.737800	0.785700
C21	C2	0.110400	0.041100	0.028500
C31	C3	0.074700	0.037500	0.094600
C41	C4	0.680600	0.597500	0.814400
C51	C5	0.783500	0.514300	0.962300
C61	C6	0.366200	0.791600	0.844800
C71	C7	0.749400	0.393200	0.006800
C81	C8	0.819400	0.097500	0.314400
C91	C9	0.750600	0.893200	0.506800
C101	C10	0.172300	0.372600	0.356400
C111	C11	0.727500	0.449300	0.964900
C121	C12	0.083700	0.111200	0.003800
C131	C13	0.829000	0.404800	0.046800
C141	C14	0.730200	0.206300	0.387700
C151	C15	0.416300	0.611200	0.503800
C161	C16	0.434400	0.767700	0.793700
C171	C17	0.794200	0.044800	0.357500
C181	C18	0.217000	0.971200	0.930900
C191	C19	0.853600	0.343100	0.090000
C201	C20	0.614100	0.966800	0.541900
C211	C21	0.758900	0.572100	0.917200
C221	C22	0.772500	0.949300	0.464900
C231	C23	0.021700	0.103400	0.133100
C241	C24	0.646400	0.843100	0.590000
C251	C25	0.137800	0.424800	0.316500
C261	C26	0.711300	0.678600	0.830700
C271	C27	0.425300	0.537500	0.594600
C281	C28	0.634100	0.025500	0.501100
C291	C29	0.818300	0.237800	0.285700
C301	C30	0.069700	0.392700	0.265400
C311	C31	0.133800	0.291600	0.344800
C321	C32	0.327700	0.872600	0.856400
C331	C33	0.283000	0.471200	0.430900
C341	C34	0.468700	0.673800	0.545400
C351	C35	0.769800	0.706300	0.887700
C361	C36	0.031300	0.173800	0.045400
C371	C37	0.706300	0.152600	0.430500
C381	C38	0.705800	0.544800	0.857500
C391	C39	0.865900	0.525500	0.001100
C401	C40	0.389600	0.541100	0.528500
C411	C41	0.430300	0.892700	0.765400
C421	C42	0.716500	0.014300	0.462300
C431	C43	0.788700	0.178600	0.330700
C441	C44	0.671000	0.904800	0.546800
C451	C45	0.362200	0.924800	0.816500
C461	C46	0.885900	0.466800	0.041900
C471	C47	0.478300	0.603400	0.633100
C481	C48	0.065600	0.267700	0.293700
C491	C49	0.741100	0.072100	0.417200
C501	C50	0.793700	0.652600	0.930500
N11	N1	0.998700	0.171700	0.110200
N21	N2	0.032100	0.317800	0.254900
N31	N3	0.162900	0.975400	0.992500
N41	N4	0.467900	0.817800	0.754900
N51	N5	0.238200	0.393500	0.410100
N61	N6	0.337100	0.475400	0.492500
N71	N7	0.261800	0.893500	0.910100
N81	N8	0.501300	0.671700	0.610200
O11	O1	0.690500	0.775100	0.582300
O21	O2	0.922000	0.363300	0.134000
O31	O3	0.275500	0.528000	0.402900
O41	O4	0.638500	0.700400	0.727100
O51	O5	0.861500	0.200400	0.227100
O61	O6	0.578000	0.863300	0.634000
O71	O7	0.698600	0.812600	0.805300
O81	O8	0.801400	0.312600	0.305300
O91	O9	0.809500	0.275100	0.082300
O101	O10	0.224500	0.028000	0.902900
Zn31	Zn3	0.431630	0.231050	0.321610
Zn41	Zn4	0.068370	0.731050	0.821610
H371	H37	0.516800	0.278400	0.472200
H381	H38	0.840200	0.518900	0.676400
H391	H39	0.443800	0.027600	0.432800
H401	H40	0.999900	0.899600	0.821200
H411	H41	0.654600	0.246100	0.128200
H421	H42	0.291400	0.652700	0.992800
H431	H43	0.836700	0.069700	0.990500
H441	H44	0.540800	0.287700	0.214400
H451	H45	0.208600	0.152700	0.492800
H461	H46	0.587000	0.510200	0.387100
H471	H47	0.294200	0.738000	0.602000
H481	H48	0.165200	0.327900	0.030300
H491	H49	0.983200	0.778400	0.972200
H501	H50	0.602300	0.385000	0.542300
H511	H51	0.328900	0.559100	0.062400
H521	H52	0.171100	0.059100	0.562400
H531	H53	0.959200	0.787700	0.714400
H541	H54	0.549100	0.072200	0.263900
H551	H55	0.314600	0.512200	0.155100
H561	H56	0.334800	0.827900	0.530300
H571	H57	0.357900	0.423100	0.226200
H581	H58	0.950900	0.572200	0.763900
H591	H59	0.913000	0.010200	0.887100
H601	H60	0.845400	0.746100	0.628200
H611	H61	0.663300	0.569700	0.490500
H621	H62	0.142100	0.923100	0.726200
H631	H63	0.659800	0.018900	0.176400
H641	H64	0.753000	0.145000	0.067200
H651	H65	0.407500	0.929200	0.499500
H661	H66	0.056200	0.527600	0.932800
H671	H67	0.747000	0.645000	0.567200
H681	H68	0.092500	0.429200	0.999500
H691	H69	0.185400	0.012200	0.655100
H701	H70	0.500100	0.399600	0.321200
H711	H71	0.205800	0.238000	0.102000
H721	H72	0.897700	0.885000	0.042300
C511	C51	0.968700	0.826200	0.954600
C521	C52	0.288700	0.321400	0.169300
C531	C53	0.827700	0.627400	0.643600
C541	C54	0.521700	0.396600	0.366900
C551	C55	0.294200	0.455200	0.142500
C561	C56	0.978300	0.896600	0.866900
C571	C57	0.171000	0.595200	0.953200
C581	C58	0.241100	0.427900	0.082800
C591	C59	0.610400	0.458900	0.471500
C601	C60	0.565600	0.232300	0.206300
C611	C61	0.205800	0.955200	0.642500
C621	C62	0.385900	0.033200	0.458100
C631	C63	0.269800	0.793700	0.612300
C641	C64	0.283500	0.985700	0.537700
C651	C65	0.134100	0.474500	0.998900
C661	C66	0.934400	0.732300	0.706300
C671	C67	0.211300	0.821400	0.669300
C681	C68	0.574700	0.462500	0.405400
C691	C69	0.783000	0.028800	0.069100
C701	C70	0.181700	0.762200	0.714300
C711	C71	0.230200	0.293700	0.112300
C721	C72	0.889600	0.958900	0.971500
C731	C73	0.250600	0.606800	0.993200
C741	C74	0.866200	0.708400	0.655200
C751	C75	0.258900	0.927900	0.582800
C761	C76	0.925300	0.962500	0.905400
C771	C77	0.227500	0.050700	0.535100
C781	C78	0.249400	0.106800	0.493200
C791	C79	0.329000	0.095200	0.453200
C801	C80	0.930300	0.607300	0.734600
C811	C81	0.637800	0.075200	0.183500
C821	C82	0.319400	0.402500	0.185600
C831	C83	0.114100	0.533200	0.958100
C841	C84	0.206300	0.347400	0.069500
C851	C85	0.272500	0.550700	0.035100
C861	C86	0.916300	0.888800	0.996200
C871	C87	0.318300	0.262200	0.214300
C881	C88	0.583700	0.388800	0.496200
C891	C89	0.531300	0.326200	0.454600
C901	C90	0.365900	0.974500	0.498900
C911	C91	0.293700	0.847400	0.569500
C921	C92	0.672300	0.127400	0.143600
C931	C93	0.216500	0.485700	0.037700
C941	C94	0.353600	0.156900	0.410000
C951	C95	0.569700	0.107300	0.234600
C961	C96	0.862200	0.575200	0.683500
C971	C97	0.146400	0.656900	0.910000
C981	C98	0.717000	0.528800	0.569100
C991	C99	0.633800	0.208400	0.155200
C1001	C100	0.180600	0.902500	0.685600
N91	N9	0.761800	0.606500	0.589900
N101	N10	0.498700	0.328300	0.389800
N111	N11	0.001300	0.828300	0.889800
N121	N12	0.967900	0.682200	0.745100
N131	N13	0.532100	0.182200	0.245100
N141	N14	0.662900	0.524600	0.507500
N151	N15	0.738200	0.106500	0.089900
N161	N16	0.837100	0.024600	0.007500
O111	O11	0.422000	0.136700	0.366000
O121	O12	0.361500	0.299600	0.272900
O131	O13	0.138500	0.799600	0.772900
O141	O14	0.775500	0.972000	0.097100
O151	O15	0.078000	0.636700	0.866000
O161	O16	0.190500	0.724900	0.917700
O171	O17	0.301400	0.187400	0.194700
O181	O18	0.309500	0.224900	0.417700
O191	O19	0.198600	0.687400	0.694700
O201	O20	0.724500	0.472000	0.597100
