data_SOTTUR_freeONLY_PM
_symmetry_space_group_name_H-M	'P1'
_cell_length_a	7.133000
_cell_length_b	10.519000
_cell_length_c	11.519000
_cell_angle_alpha	74.034000
_cell_angle_beta	83.174000
_cell_angle_gamma	72.585000
_symmetry_Int_Tables_number 1

loop_
_symmetry_equiv_pos_as_xyz
'x,y,z'

loop_
_atom_site_label
_atom_site_type_symbol
_atom_site_fract_x
_atom_site_fract_y
_atom_site_fract_z
Sr11	Sr1	0.779220	0.400070	0.540960
Sr21	Sr2	0.220780	0.599930	0.459040
P11	P1	0.287670	0.322010	0.676690
P21	P2	0.822730	0.258260	0.316390
P31	P3	0.712330	0.677990	0.323310
P41	P4	0.177270	0.741740	0.683610
H11	H1	0.545900	0.151300	0.532500
H21	H2	0.879500	0.515300	0.145900
H31	H3	0.238600	0.034700	0.557000
H41	H4	0.224000	0.188200	0.487900
H51	H5	0.722200	0.944100	0.651400
H61	H6	0.541300	0.886200	0.657300
H71	H7	0.304400	0.088200	0.731600
H81	H8	0.508900	0.106200	0.747200
H91	H9	0.784600	0.482900	0.932500
H101	H10	0.662000	0.601400	0.992000
H111	H11	0.127800	0.314500	0.160900
H121	H12	0.069900	0.307200	0.036000
H131	H13	0.607800	0.442100	0.185400
H141	H14	0.706000	0.324800	0.119800
H151	H15	0.454100	0.848700	0.467500
H161	H16	0.120500	0.484700	0.854100
H171	H17	0.761400	0.965300	0.443000
H181	H18	0.776000	0.811800	0.512100
H191	H19	0.277800	0.055900	0.348600
H201	H20	0.458700	0.113800	0.342700
H211	H21	0.695600	0.911800	0.268400
H221	H22	0.491100	0.893800	0.252800
H231	H23	0.215400	0.517100	0.067500
H241	H24	0.338000	0.398600	0.008000
H251	H25	0.872200	0.685500	0.839100
H261	H26	0.930100	0.692800	0.964000
H271	H27	0.392200	0.557900	0.814600
H281	H28	0.294000	0.675200	0.880200
C11	C1	0.312300	0.095700	0.507800
C21	C2	0.612200	0.948400	0.606900
C31	C3	0.401000	0.136400	0.693100
C41	C4	0.793100	0.542800	0.981200
C51	C5	0.074600	0.369400	0.083400
C61	C6	0.731600	0.377500	0.170300
C71	C7	0.687700	0.904300	0.492200
C81	C8	0.387800	0.051600	0.393100
C91	C9	0.599000	0.863600	0.306900
C101	C10	0.206900	0.457200	0.018800
C111	C11	0.925400	0.630600	0.916600
C121	C12	0.268400	0.622500	0.829700
N11	N1	0.478000	0.093000	0.578300
N21	N2	0.871000	0.457000	0.102500
N31	N3	0.522000	0.907000	0.421700
N41	N4	0.129000	0.543000	0.897500
O11	O1	0.222300	0.323900	0.807500
O21	O2	0.119700	0.372200	0.592000
O31	O3	0.442500	0.397400	0.624300
O41	O4	0.915800	0.119800	0.290900
O51	O5	0.962500	0.320000	0.357500
O61	O6	0.639400	0.264400	0.400600
O71	O7	0.722100	0.564200	0.686000
O81	O8	0.859000	0.146400	0.673300
O91	O9	0.777700	0.676100	0.192500
O101	O10	0.880300	0.627800	0.408000
O111	O11	0.557500	0.602600	0.375700
O121	O12	0.084200	0.880200	0.709100
O131	O13	0.037500	0.680000	0.642500
O141	O14	0.360600	0.735600	0.599400
O151	O15	0.277900	0.435800	0.314000
O161	O16	0.141000	0.853600	0.326700
