data_SOTXEG_neutral_PM
_symmetry_space_group_name_H-M	'P1'
_cell_length_a	9.288140
_cell_length_b	14.711300
_cell_length_c	19.847100
_cell_angle_alpha	74.970600
_cell_angle_beta	76.467800
_cell_angle_gamma	71.598100
_symmetry_Int_Tables_number 1

loop_
_symmetry_equiv_pos_as_xyz
'x,y,z'

loop_
_atom_site_label
_atom_site_type_symbol
_atom_site_fract_x
_atom_site_fract_y
_atom_site_fract_z
Yb11	Yb1	0.496160	0.531870	0.624870
Yb21	Yb2	0.652900	0.968130	0.875130
Yb31	Yb3	0.503840	0.468130	0.375130
Yb41	Yb4	0.347100	0.031870	0.124870
H11	H1	0.522500	0.785100	0.512900
H21	H2	0.442900	0.754500	0.330300
H31	H3	0.445100	0.016900	0.352100
H41	H4	0.716000	0.528000	0.734800
H51	H5	0.891800	0.670100	0.781300
H61	H6	0.815000	0.585600	0.821200
H71	H7	0.948700	0.569600	0.756800
H81	H8	0.766600	0.785200	0.715800
H91	H9	0.744500	0.761800	0.646800
H101	H10	0.604300	0.781900	0.707900
H111	H11	0.798400	0.371200	0.551000
H121	H12	0.200400	0.312200	0.517200
H131	H13	0.082600	0.249500	0.535500
H141	H14	0.073900	0.336700	0.470100
H151	H15	0.179400	0.404100	0.576700
H161	H16	0.040900	0.498300	0.569900
H171	H17	0.043200	0.419300	0.640100
H181	H18	0.820500	0.714900	0.987100
H191	H19	0.527700	0.745500	0.169700
H201	H20	0.814100	0.483100	0.147900
H211	H21	0.978800	0.972000	0.765200
H221	H22	0.343200	0.829900	0.718700
H231	H23	0.221800	0.914400	0.678800
H241	H24	0.275100	0.930400	0.743200
H251	H25	0.267600	0.714800	0.784200
H261	H26	0.153100	0.738200	0.853200
H271	H27	0.094100	0.718100	0.792100
H281	H28	0.720600	0.128800	0.949000
H291	H29	0.029800	0.187800	0.982800
H301	H30	0.867600	0.250500	0.964500
H311	H31	0.880700	0.163300	0.029900
H321	H32	0.160200	0.095900	0.923300
H331	H33	0.109100	0.001700	0.930100
H341	H34	0.102600	0.080700	0.859900
H351	H35	0.477500	0.214900	0.487100
H361	H36	0.557100	0.245500	0.669700
H371	H37	0.554900	0.983100	0.647900
H381	H38	0.284000	0.472000	0.265200
H391	H39	0.108200	0.329900	0.218700
H401	H40	0.185000	0.414400	0.178800
H411	H41	0.051300	0.430400	0.243200
H421	H42	0.233400	0.214800	0.284200
H431	H43	0.255500	0.238200	0.353200
H441	H44	0.395700	0.218100	0.292100
H451	H45	0.201600	0.628800	0.449000
H461	H46	0.799600	0.687800	0.482800
H471	H47	0.917400	0.750500	0.464500
H481	H48	0.926100	0.663300	0.529900
H491	H49	0.820600	0.595900	0.423300
H501	H50	0.959100	0.501700	0.430100
H511	H51	0.956800	0.580700	0.359900
H521	H52	0.179500	0.285100	0.012900
H531	H53	0.472300	0.254500	0.830300
H541	H54	0.185900	0.516900	0.852100
H551	H55	0.021200	0.028000	0.234800
H561	H56	0.656800	0.170100	0.281300
H571	H57	0.778200	0.085600	0.321200
H581	H58	0.724900	0.069600	0.256800
H591	H59	0.732400	0.285200	0.215800
H601	H60	0.846900	0.261800	0.146800
H611	H61	0.905900	0.281900	0.207900
H621	H62	0.279400	0.871200	0.051000
H631	H63	0.970200	0.812200	0.017200
H641	H64	0.132400	0.749500	0.035500
H651	H65	0.119300	0.836700	0.970100
H661	H66	0.839800	0.904100	0.076700
H671	H67	0.890900	0.998300	0.069900
H681	H68	0.897400	0.919300	0.140100
C11	C1	0.487900	0.910800	0.440200
C21	C2	0.503500	0.811700	0.466900
C31	C3	0.491100	0.752400	0.426000
C41	C4	0.455300	0.793500	0.357500
C51	C5	0.438700	0.891800	0.331200
C61	C6	0.455300	0.950600	0.371000
C71	C7	0.498200	0.972900	0.482700
C81	C8	0.519600	0.644100	0.454300
C91	C9	0.403000	0.939400	0.257800
C101	C10	0.686100	0.593700	0.713500
C111	C11	0.860600	0.616300	0.775900
C121	C12	0.713200	0.753500	0.697100
C131	C13	0.842300	0.403100	0.572100
C141	C14	0.096300	0.314000	0.517400
C151	C15	0.070300	0.429700	0.589500
C161	C16	0.838900	0.589200	0.059800
C171	C17	0.782100	0.688300	0.033100
C181	C18	0.669500	0.747600	0.074000
C191	C19	0.606300	0.706500	0.142500
C201	C20	0.661700	0.608200	0.168800
C211	C21	0.776900	0.549400	0.129000
C221	C22	0.953800	0.527100	0.017300
C231	C23	0.618000	0.855900	0.045700
C241	C24	0.600200	0.560600	0.242200
C251	C25	0.993300	0.906300	0.786500
C261	C26	0.252800	0.883700	0.724100
C271	C27	0.163800	0.746500	0.802900
C281	C28	0.817500	0.096900	0.927900
C291	C29	0.927700	0.186000	0.982600
C301	C30	0.089500	0.070300	0.910500
C311	C31	0.512100	0.089200	0.559800
C321	C32	0.496500	0.188300	0.533100
C331	C33	0.508900	0.247600	0.574000
C341	C34	0.544700	0.206500	0.642500
C351	C35	0.561300	0.108200	0.668800
C361	C36	0.544700	0.049400	0.629000
C371	C37	0.501800	0.027100	0.517300
C381	C38	0.480400	0.355900	0.545700
C391	C39	0.597000	0.060600	0.742200
C401	C40	0.313900	0.406300	0.286500
C411	C41	0.139400	0.383700	0.224100
C421	C42	0.286800	0.246500	0.302900
C431	C43	0.157700	0.596900	0.427900
C441	C44	0.903700	0.686000	0.482600
C451	C45	0.929700	0.570300	0.410500
C461	C46	0.161100	0.410800	0.940200
C471	C47	0.217900	0.311700	0.966900
C481	C48	0.330500	0.252400	0.926000
C491	C49	0.393700	0.293500	0.857500
C501	C50	0.338300	0.391800	0.831200
C511	C51	0.223100	0.450600	0.871000
C521	C52	0.046200	0.472900	0.982700
C531	C53	0.382000	0.144100	0.954300
C541	C54	0.399800	0.439400	0.757800
C551	C55	0.006700	0.093700	0.213500
C561	C56	0.747200	0.116300	0.275900
C571	C57	0.836200	0.253500	0.197100
C581	C58	0.182500	0.903100	0.072100
C591	C59	0.072300	0.814000	0.017400
C601	C60	0.910500	0.929700	0.089500
N11	N1	0.748800	0.652400	0.728000
N21	N2	0.991500	0.380300	0.562300
N31	N3	0.218100	0.671700	0.605100
N41	N4	0.129200	0.847600	0.772000
N51	N5	0.934100	0.119700	0.937700
N61	N6	0.494900	0.828300	0.894900
N71	N7	0.251200	0.347600	0.272000
N81	N8	0.008500	0.619700	0.437700
N91	N9	0.781900	0.328300	0.394900
N101	N10	0.870800	0.152400	0.228000
N111	N11	0.065900	0.880300	0.062300
N121	N12	0.505100	0.171700	0.105100
O11	O1	0.557300	0.611600	0.514600
O21	O2	0.506000	0.593500	0.415900
O31	O3	0.438500	0.017100	0.227700
O41	O4	0.339900	0.902200	0.227400
O51	O5	0.592500	0.617400	0.674600
O61	O6	0.755400	0.461700	0.605700
O71	O7	0.250000	0.590000	0.585400
O81	O8	0.314600	0.692500	0.624900
O91	O9	0.084700	0.724900	0.601700
O101	O10	0.683500	0.888400	0.985400
O111	O11	0.515400	0.906500	0.084100
O121	O12	0.683300	0.482900	0.272300
O131	O13	0.469500	0.597800	0.272600
O141	O14	0.884500	0.882600	0.825400
O151	O15	0.822800	0.038300	0.894300
O161	O16	0.425400	0.910000	0.914600
O171	O17	0.632000	0.807500	0.875100
O181	O18	0.411300	0.775100	0.898300
O191	O19	0.442700	0.388400	0.485400
O201	O20	0.494000	0.406500	0.584100
O211	O21	0.561500	0.982900	0.772300
O221	O22	0.660100	0.097800	0.772600
O231	O23	0.407500	0.382600	0.325400
O241	O24	0.244600	0.538300	0.394300
O251	O25	0.750000	0.410000	0.414600
O261	O26	0.685400	0.307500	0.375100
O271	O27	0.915300	0.275100	0.398300
O281	O28	0.316500	0.111600	0.014600
O291	O29	0.484600	0.093500	0.915900
O301	O30	0.316700	0.517100	0.727700
O311	O31	0.530500	0.402200	0.727400
O321	O32	0.115500	0.117400	0.174600
O331	O33	0.177200	0.961700	0.105700
O341	O34	0.574600	0.090000	0.085400
O351	O35	0.368000	0.192500	0.124900
O361	O36	0.588700	0.224900	0.101700
