data_SUJNUH_freeONLY_PM
_symmetry_space_group_name_H-M	'P1'
_cell_length_a	6.999400
_cell_length_b	20.539000
_cell_length_c	20.539000
_cell_angle_alpha	90.000000
_cell_angle_beta	90.000000
_cell_angle_gamma	90.000000
_symmetry_Int_Tables_number 1

loop_
_symmetry_equiv_pos_as_xyz
'x,y,z'

loop_
_atom_site_label
_atom_site_type_symbol
_atom_site_fract_x
_atom_site_fract_y
_atom_site_fract_z
Cu11	Cu1	0.663740	0.018970	0.023910
Cu21	Cu2	0.663740	0.481030	0.476090
Cu31	Cu3	0.163740	0.976090	0.518970
Cu41	Cu4	0.163740	0.523910	0.981030
Cu51	Cu5	0.336260	0.981030	0.976090
Cu61	Cu6	0.336260	0.518970	0.523910
Cu71	Cu7	0.836260	0.023910	0.481030
Cu81	Cu8	0.836260	0.476090	0.018970
H11	H1	0.067200	0.171700	0.028000
H21	H2	0.975600	0.281900	0.028200
H31	H3	0.456500	0.386700	0.907000
H41	H4	0.727200	0.351800	0.854000
H51	H5	0.825900	0.242300	0.860600
H61	H6	0.651000	0.168700	0.920900
H71	H7	0.067200	0.328300	0.472000
H81	H8	0.975600	0.218100	0.471800
H91	H9	0.456500	0.113300	0.593000
H101	H10	0.727200	0.148200	0.646000
H111	H11	0.825900	0.257700	0.639400
H121	H12	0.651000	0.331300	0.579100
H131	H13	0.567200	0.972000	0.671700
H141	H14	0.475600	0.971800	0.781900
H151	H15	0.956500	0.093000	0.886700
H161	H16	0.227200	0.146000	0.851800
H171	H17	0.325900	0.139400	0.742300
H181	H18	0.151000	0.079100	0.668700
H191	H19	0.567200	0.528000	0.828300
H201	H20	0.475600	0.528200	0.718100
H211	H21	0.956500	0.407000	0.613300
H221	H22	0.227200	0.354000	0.648200
H231	H23	0.325900	0.360600	0.757700
H241	H24	0.151000	0.420900	0.831300
H251	H25	0.932800	0.828300	0.972000
H261	H26	0.024400	0.718100	0.971800
H271	H27	0.543500	0.613300	0.093000
H281	H28	0.272800	0.648200	0.146000
H291	H29	0.174100	0.757700	0.139400
H301	H30	0.349000	0.831300	0.079100
H311	H31	0.932800	0.671700	0.528000
H321	H32	0.024400	0.781900	0.528200
H331	H33	0.543500	0.886700	0.407000
H341	H34	0.272800	0.851800	0.354000
H351	H35	0.174100	0.742300	0.360600
H361	H36	0.349000	0.668700	0.420900
H371	H37	0.432800	0.028000	0.328300
H381	H38	0.524400	0.028200	0.218100
H391	H39	0.043500	0.907000	0.113300
H401	H40	0.772800	0.854000	0.148200
H411	H41	0.674100	0.860600	0.257700
H421	H42	0.849000	0.920900	0.331300
H431	H43	0.432800	0.472000	0.171700
H441	H44	0.524400	0.471800	0.281900
H451	H45	0.043500	0.593000	0.386700
H461	H46	0.772800	0.646000	0.351800
H471	H47	0.674100	0.639400	0.242300
H481	H48	0.849000	0.579100	0.168700
C11	C1	0.322400	0.186000	0.984320
C21	C2	0.149300	0.203720	0.009760
C31	C3	0.093500	0.269660	0.008840
C41	C4	0.206100	0.316770	0.980420
C51	C5	0.493500	0.342280	0.910210
C61	C6	0.654300	0.321690	0.878780
C71	C7	0.713700	0.256100	0.882650
C81	C8	0.609600	0.212640	0.918090
C91	C9	0.439900	0.232020	0.950980
C101	C10	0.380000	0.298790	0.947670
C111	C11	0.383100	0.116190	0.991900
C121	C12	0.134800	0.385710	0.987370
C131	C13	0.322400	0.314000	0.515680
C141	C14	0.149300	0.296280	0.490240
C151	C15	0.093500	0.230340	0.491160
C161	C16	0.206100	0.183230	0.519580
C171	C17	0.493500	0.157720	0.589790
C181	C18	0.654300	0.178310	0.621220
C191	C19	0.713700	0.243900	0.617350
C201	C20	0.609600	0.287360	0.581910
C211	C21	0.439900	0.267980	0.549020
C221	C22	0.380000	0.201210	0.552330
C231	C23	0.383100	0.383810	0.508100
C241	C24	0.134800	0.114290	0.512630
C251	C25	0.822400	0.015680	0.686000
C261	C26	0.649300	0.990240	0.703720
C271	C27	0.593500	0.991160	0.769660
C281	C28	0.706100	0.019580	0.816770
C291	C29	0.993500	0.089790	0.842280
C301	C30	0.154300	0.121220	0.821690
C311	C31	0.213700	0.117350	0.756100
C321	C32	0.109600	0.081910	0.712640
C331	C33	0.939900	0.049020	0.732020
C341	C34	0.880000	0.052330	0.798790
C351	C35	0.883100	0.008100	0.616190
C361	C36	0.634800	0.012630	0.885710
C371	C37	0.822400	0.484320	0.814000
C381	C38	0.649300	0.509760	0.796280
C391	C39	0.593500	0.508840	0.730340
C401	C40	0.706100	0.480420	0.683230
C411	C41	0.993500	0.410210	0.657720
C421	C42	0.154300	0.378780	0.678310
C431	C43	0.213700	0.382650	0.743900
C441	C44	0.109600	0.418090	0.787360
C451	C45	0.939900	0.450980	0.767980
C461	C46	0.880000	0.447670	0.701210
C471	C47	0.883100	0.491900	0.883810
C481	C48	0.634800	0.487370	0.614290
C491	C49	0.677600	0.814000	0.015680
C501	C50	0.850700	0.796280	0.990240
C511	C51	0.906500	0.730340	0.991160
C521	C52	0.793900	0.683230	0.019580
C531	C53	0.506500	0.657720	0.089790
C541	C54	0.345700	0.678310	0.121220
C551	C55	0.286300	0.743900	0.117350
C561	C56	0.390400	0.787360	0.081910
C571	C57	0.560100	0.767980	0.049020
C581	C58	0.620000	0.701210	0.052330
C591	C59	0.616900	0.883810	0.008100
C601	C60	0.865200	0.614290	0.012630
C611	C61	0.677600	0.686000	0.484320
C621	C62	0.850700	0.703720	0.509760
C631	C63	0.906500	0.769660	0.508840
C641	C64	0.793900	0.816770	0.480420
C651	C65	0.506500	0.842280	0.410210
C661	C66	0.345700	0.821690	0.378780
C671	C67	0.286300	0.756100	0.382650
C681	C68	0.390400	0.712640	0.418090
C691	C69	0.560100	0.732020	0.450980
C701	C70	0.620000	0.798790	0.447670
C711	C71	0.616900	0.616190	0.491900
C721	C72	0.865200	0.885710	0.487370
C731	C73	0.177600	0.984320	0.314000
C741	C74	0.350700	0.009760	0.296280
C751	C75	0.406500	0.008840	0.230340
C761	C76	0.293900	0.980420	0.183230
C771	C77	0.006500	0.910210	0.157720
C781	C78	0.845700	0.878780	0.178310
C791	C79	0.786300	0.882650	0.243900
C801	C80	0.890400	0.918090	0.287360
C811	C81	0.060100	0.950980	0.267980
C821	C82	0.120000	0.947670	0.201210
C831	C83	0.116900	0.991900	0.383810
C841	C84	0.365200	0.987370	0.114290
C851	C85	0.177600	0.515680	0.186000
C861	C86	0.350700	0.490240	0.203720
C871	C87	0.406500	0.491160	0.269660
C881	C88	0.293900	0.519580	0.316770
C891	C89	0.006500	0.589790	0.342280
C901	C90	0.845700	0.621220	0.321690
C911	C91	0.786300	0.617350	0.256100
C921	C92	0.890400	0.581910	0.212640
C931	C93	0.060100	0.549020	0.232020
C941	C94	0.120000	0.552330	0.298790
C951	C95	0.116900	0.508100	0.116190
C961	C96	0.365200	0.512630	0.385710
O11	O1	0.548400	0.105900	0.014880
O21	O2	0.265500	0.073440	0.975190
O31	O3	0.249200	0.432510	0.976180
O41	O4	0.965300	0.392590	0.005370
O51	O5	0.917000	0.054650	0.068510
O61	O6	0.548400	0.394100	0.485120
O71	O7	0.265500	0.426560	0.524810
O81	O8	0.249200	0.067490	0.523820
O91	O9	0.965300	0.107410	0.494630
O101	O10	0.917000	0.445350	0.431490
O111	O11	0.048400	0.985120	0.605900
O121	O12	0.765500	0.024810	0.573440
O131	O13	0.749200	0.023820	0.932510
O141	O14	0.465300	0.994630	0.892590
O151	O15	0.417000	0.931490	0.554650
O161	O16	0.048400	0.514880	0.894100
O171	O17	0.765500	0.475190	0.926560
O181	O18	0.749200	0.476180	0.567490
O191	O19	0.465300	0.505370	0.607410
O201	O20	0.417000	0.568510	0.945350
O211	O21	0.451600	0.894100	0.985120
O221	O22	0.734500	0.926560	0.024810
O231	O23	0.750800	0.567490	0.023820
O241	O24	0.034700	0.607410	0.994630
O251	O25	0.083000	0.945350	0.931490
O261	O26	0.451600	0.605900	0.514880
O271	O27	0.734500	0.573440	0.475190
O281	O28	0.750800	0.932510	0.476180
O291	O29	0.034700	0.892590	0.505370
O301	O30	0.083000	0.554650	0.568510
O311	O31	0.951600	0.014880	0.394100
O321	O32	0.234500	0.975190	0.426560
O331	O33	0.250800	0.976180	0.067490
O341	O34	0.534700	0.005370	0.107410
O351	O35	0.583000	0.068510	0.445350
O361	O36	0.951600	0.485120	0.105900
O371	O37	0.234500	0.524810	0.073440
O381	O38	0.250800	0.523820	0.432510
O391	O39	0.534700	0.494630	0.392590
O401	O40	0.583000	0.431490	0.054650
