data_SUJQOE_freeONLY_PM
_symmetry_space_group_name_H-M	'P1'
_cell_length_a	13.737200
_cell_length_b	14.773100
_cell_length_c	21.075000
_cell_angle_alpha	90.000000
_cell_angle_beta	90.000000
_cell_angle_gamma	90.000000
_symmetry_Int_Tables_number 1

loop_
_symmetry_equiv_pos_as_xyz
'x,y,z'

loop_
_atom_site_label
_atom_site_type_symbol
_atom_site_fract_x
_atom_site_fract_y
_atom_site_fract_z
Zn11	Zn1	0.528770	0.097660	0.938390
Zn21	Zn2	0.471230	0.597660	0.561610
Zn31	Zn3	0.471230	0.902340	0.061610
Zn41	Zn4	0.528770	0.402340	0.438390
H11	H1	0.513400	0.365900	0.820100
H21	H2	0.531600	0.222100	0.737000
H31	H3	0.507900	0.410400	0.707500
H41	H4	0.529600	0.265800	0.625400
H51	H5	0.347000	0.030700	0.866500
H61	H6	0.181000	0.027800	0.870400
H71	H7	0.193200	0.172900	0.031800
H81	H8	0.359600	0.173700	0.022600
H91	H9	0.036400	0.129500	0.995100
H101	H10	0.020600	0.044900	0.879000
H111	H11	0.717500	0.148600	0.015000
H121	H12	0.883100	0.141200	0.009700
H131	H13	0.855100	0.014600	0.841300
H141	H14	0.689600	0.025700	0.852100
H151	H15	0.486600	0.865900	0.679900
H161	H16	0.468400	0.722100	0.763000
H171	H17	0.492100	0.910400	0.792500
H181	H18	0.470400	0.765800	0.874600
H191	H19	0.653000	0.530700	0.633500
H201	H20	0.819000	0.527800	0.629600
H211	H21	0.806800	0.672900	0.468200
H221	H22	0.640400	0.673700	0.477400
H231	H23	0.963600	0.629500	0.504900
H241	H24	0.979400	0.544900	0.621000
H251	H25	0.282500	0.648600	0.485000
H261	H26	0.116900	0.641200	0.490300
H271	H27	0.144900	0.514600	0.658700
H281	H28	0.310400	0.525700	0.647900
H291	H29	0.486600	0.634100	0.179900
H301	H30	0.468400	0.777900	0.263000
H311	H31	0.492100	0.589600	0.292500
H321	H32	0.470400	0.734200	0.374600
H331	H33	0.653000	0.969300	0.133500
H341	H34	0.819000	0.972200	0.129600
H351	H35	0.806800	0.827100	0.968200
H361	H36	0.640400	0.826300	0.977400
H371	H37	0.963600	0.870500	0.004900
H381	H38	0.979400	0.955100	0.121000
H391	H39	0.282500	0.851400	0.985000
H401	H40	0.116900	0.858800	0.990300
H411	H41	0.144900	0.985400	0.158700
H421	H42	0.310400	0.974300	0.147900
H431	H43	0.513400	0.134100	0.320100
H441	H44	0.531600	0.277900	0.237000
H451	H45	0.507900	0.089600	0.207500
H461	H46	0.529600	0.234200	0.125400
H471	H47	0.347000	0.469300	0.366500
H481	H48	0.181000	0.472200	0.370400
H491	H49	0.193200	0.327100	0.531800
H501	H50	0.359600	0.326300	0.522600
H511	H51	0.036400	0.370500	0.495100
H521	H52	0.020600	0.455100	0.379000
H531	H53	0.717500	0.351400	0.515000
H541	H54	0.883100	0.358800	0.509700
H551	H55	0.855100	0.485400	0.341300
H561	H56	0.689600	0.474300	0.352100
C11	C1	0.523300	0.235900	0.860940
C21	C2	0.519200	0.304500	0.808920
C31	C3	0.523400	0.283400	0.747890
C41	C4	0.516200	0.349100	0.696800
C51	C5	0.520700	0.327000	0.636050
C61	C6	0.512400	0.393900	0.583760
C71	C7	0.315600	0.059700	0.900500
C81	C8	0.216200	0.057800	0.902300
C91	C9	0.167600	0.100700	0.951700
C101	C10	0.223200	0.143600	0.997380
C111	C11	0.323000	0.142900	0.991740
C121	C12	0.061400	0.103200	0.957930
C131	C13	0.996600	0.071900	0.916260
C141	C14	0.746000	0.121000	0.979330
C151	C15	0.845400	0.117000	0.976570
C161	C16	0.890700	0.076800	0.924290
C171	C17	0.828800	0.042500	0.877520
C181	C18	0.729400	0.049400	0.884350
C191	C19	0.476700	0.735900	0.639060
C201	C20	0.480800	0.804500	0.691080
C211	C21	0.476600	0.783400	0.752110
C221	C22	0.483800	0.849100	0.803200
C231	C23	0.479300	0.827000	0.863950
C241	C24	0.487600	0.893900	0.916240
C251	C25	0.684400	0.559700	0.599500
C261	C26	0.783800	0.557800	0.597700
C271	C27	0.832400	0.600700	0.548300
C281	C28	0.776800	0.643600	0.502620
C291	C29	0.677000	0.642900	0.508260
C301	C30	0.938600	0.603200	0.542070
C311	C31	0.003400	0.571900	0.583740
C321	C32	0.254000	0.621000	0.520670
C331	C33	0.154600	0.617000	0.523430
C341	C34	0.109300	0.576800	0.575710
C351	C35	0.171200	0.542500	0.622480
C361	C36	0.270600	0.549400	0.615650
C371	C37	0.476700	0.764100	0.139060
C381	C38	0.480800	0.695500	0.191080
C391	C39	0.476600	0.716600	0.252110
C401	C40	0.483800	0.650900	0.303200
C411	C41	0.479300	0.673000	0.363950
C421	C42	0.487600	0.606100	0.416240
C431	C43	0.684400	0.940300	0.099500
C441	C44	0.783800	0.942200	0.097700
C451	C45	0.832400	0.899300	0.048300
C461	C46	0.776800	0.856400	0.002620
C471	C47	0.677000	0.857100	0.008260
C481	C48	0.938600	0.896800	0.042070
C491	C49	0.003400	0.928100	0.083740
C501	C50	0.254000	0.879000	0.020670
C511	C51	0.154600	0.883000	0.023430
C521	C52	0.109300	0.923200	0.075710
C531	C53	0.171200	0.957500	0.122480
C541	C54	0.270600	0.950600	0.115650
C551	C55	0.523300	0.264100	0.360940
C561	C56	0.519200	0.195500	0.308920
C571	C57	0.523400	0.216600	0.247890
C581	C58	0.516200	0.150900	0.196800
C591	C59	0.520700	0.173000	0.136050
C601	C60	0.512400	0.106100	0.083760
C611	C61	0.315600	0.440300	0.400500
C621	C62	0.216200	0.442200	0.402300
C631	C63	0.167600	0.399300	0.451700
C641	C64	0.223200	0.356400	0.497380
C651	C65	0.323000	0.357100	0.491740
C661	C66	0.061400	0.396800	0.457930
C671	C67	0.996600	0.428100	0.416260
C681	C68	0.746000	0.379000	0.479330
C691	C69	0.845400	0.383000	0.476570
C701	C70	0.890700	0.423200	0.424290
C711	C71	0.828800	0.457500	0.377520
C721	C72	0.729400	0.450600	0.384350
N11	N1	0.371440	0.100940	0.944910
N21	N2	0.686520	0.087910	0.934370
N31	N3	0.628560	0.600940	0.555090
N41	N4	0.313480	0.587910	0.565630
N51	N5	0.628560	0.899060	0.055090
N61	N6	0.313480	0.912090	0.065630
N71	N7	0.371440	0.399060	0.444910
N81	N8	0.686520	0.412090	0.434370
O11	O1	0.525310	0.152670	0.846950
O21	O2	0.525100	0.261860	0.916920
O31	O3	0.476730	0.469510	0.596230
O41	O4	0.542490	0.367430	0.530340
O51	O5	0.474690	0.652670	0.653050
O61	O6	0.474900	0.761860	0.583080
O71	O7	0.523270	0.969510	0.903770
O81	O8	0.457510	0.867430	0.969660
O91	O9	0.474690	0.847330	0.153050
O101	O10	0.474900	0.738140	0.083080
O111	O11	0.523270	0.530490	0.403770
O121	O12	0.457510	0.632570	0.469660
O131	O13	0.525310	0.347330	0.346950
O141	O14	0.525100	0.238140	0.416920
O151	O15	0.476730	0.030490	0.096230
O161	O16	0.542490	0.132570	0.030340
Zn51	Zn5	0.971230	0.902340	0.438390
Zn61	Zn6	0.028770	0.402340	0.061610
Zn71	Zn7	0.028770	0.097660	0.561610
Zn81	Zn8	0.971230	0.597660	0.938390
H571	H57	0.986600	0.634100	0.320100
H581	H58	0.968400	0.777900	0.237000
H591	H59	0.992100	0.589600	0.207500
H601	H60	0.970400	0.734200	0.125400
H611	H61	0.153000	0.969300	0.366500
H621	H62	0.319000	0.972200	0.370400
H631	H63	0.306800	0.827100	0.531800
H641	H64	0.140400	0.826300	0.522600
H651	H65	0.463600	0.870500	0.495100
H661	H66	0.479400	0.955100	0.379000
H671	H67	0.782500	0.851400	0.515000
H681	H68	0.616900	0.858800	0.509700
H691	H69	0.644900	0.985400	0.341300
H701	H70	0.810400	0.974300	0.352100
H711	H71	0.013400	0.134100	0.179900
H721	H72	0.031600	0.277900	0.263000
H731	H73	0.007900	0.089600	0.292500
H741	H74	0.029600	0.234200	0.374600
H751	H75	0.847000	0.469300	0.133500
H761	H76	0.681000	0.472200	0.129600
H771	H77	0.693200	0.327100	0.968200
H781	H78	0.859600	0.326300	0.977400
H791	H79	0.536400	0.370500	0.004900
H801	H80	0.520600	0.455100	0.121000
H811	H81	0.217500	0.351400	0.985000
H821	H82	0.383100	0.358800	0.990300
H831	H83	0.355100	0.485400	0.158700
H841	H84	0.189600	0.474300	0.147900
H851	H85	0.013400	0.365900	0.679900
H861	H86	0.031600	0.222100	0.763000
H871	H87	0.007900	0.410400	0.792500
H881	H88	0.029600	0.265800	0.874600
H891	H89	0.847000	0.030700	0.633500
H901	H90	0.681000	0.027800	0.629600
H911	H91	0.693200	0.172900	0.468200
H921	H92	0.859600	0.173700	0.477400
H931	H93	0.536400	0.129500	0.504900
H941	H94	0.520600	0.044900	0.621000
H951	H95	0.217500	0.148600	0.485000
H961	H96	0.383100	0.141200	0.490300
H971	H97	0.355100	0.014600	0.658700
H981	H98	0.189600	0.025700	0.647900
H991	H99	0.986600	0.865900	0.820100
H1001	H100	0.968400	0.722100	0.737000
H1011	H101	0.992100	0.910400	0.707500
H1021	H102	0.970400	0.765800	0.625400
H1031	H103	0.153000	0.530700	0.866500
H1041	H104	0.319000	0.527800	0.870400
H1051	H105	0.306800	0.672900	0.031800
H1061	H106	0.140400	0.673700	0.022600
H1071	H107	0.463600	0.629500	0.995100
H1081	H108	0.479400	0.544900	0.879000
H1091	H109	0.782500	0.648600	0.015000
H1101	H110	0.616900	0.641200	0.009700
H1111	H111	0.644900	0.514600	0.841300
H1121	H112	0.810400	0.525700	0.852100
C731	C73	0.976700	0.764100	0.360940
C741	C74	0.980800	0.695500	0.308920
C751	C75	0.976600	0.716600	0.247890
C761	C76	0.983800	0.650900	0.196800
C771	C77	0.979300	0.673000	0.136050
C781	C78	0.987600	0.606100	0.083760
C791	C79	0.184400	0.940300	0.400500
C801	C80	0.283800	0.942200	0.402300
C811	C81	0.332400	0.899300	0.451700
C821	C82	0.276800	0.856400	0.497380
C831	C83	0.177000	0.857100	0.491740
C841	C84	0.438600	0.896800	0.457930
C851	C85	0.503400	0.928100	0.416260
C861	C86	0.754000	0.879000	0.479330
C871	C87	0.654600	0.883000	0.476570
C881	C88	0.609300	0.923200	0.424290
C891	C89	0.671200	0.957500	0.377520
C901	C90	0.770600	0.950600	0.384350
C911	C91	0.023300	0.264100	0.139060
C921	C92	0.019200	0.195500	0.191080
C931	C93	0.023400	0.216600	0.252110
C941	C94	0.016200	0.150900	0.303200
C951	C95	0.020700	0.173000	0.363950
C961	C96	0.012400	0.106100	0.416240
C971	C97	0.815600	0.440300	0.099500
C981	C98	0.716200	0.442200	0.097700
C991	C99	0.667600	0.399300	0.048300
C1001	C100	0.723200	0.356400	0.002620
C1011	C101	0.823000	0.357100	0.008260
C1021	C102	0.561400	0.396800	0.042070
C1031	C103	0.496600	0.428100	0.083740
C1041	C104	0.246000	0.379000	0.020670
C1051	C105	0.345400	0.383000	0.023430
C1061	C106	0.390700	0.423200	0.075710
C1071	C107	0.328800	0.457500	0.122480
C1081	C108	0.229400	0.450600	0.115650
C1091	C109	0.023300	0.235900	0.639060
C1101	C110	0.019200	0.304500	0.691080
C1111	C111	0.023400	0.283400	0.752110
C1121	C112	0.016200	0.349100	0.803200
C1131	C113	0.020700	0.327000	0.863950
C1141	C114	0.012400	0.393900	0.916240
C1151	C115	0.815600	0.059700	0.599500
C1161	C116	0.716200	0.057800	0.597700
C1171	C117	0.667600	0.100700	0.548300
C1181	C118	0.723200	0.143600	0.502620
C1191	C119	0.823000	0.142900	0.508260
C1201	C120	0.561400	0.103200	0.542070
C1211	C121	0.496600	0.071900	0.583740
C1221	C122	0.246000	0.121000	0.520670
C1231	C123	0.345400	0.117000	0.523430
C1241	C124	0.390700	0.076800	0.575710
C1251	C125	0.328800	0.042500	0.622480
C1261	C126	0.229400	0.049400	0.615650
C1271	C127	0.976700	0.735900	0.860940
C1281	C128	0.980800	0.804500	0.808920
C1291	C129	0.976600	0.783400	0.747890
C1301	C130	0.983800	0.849100	0.696800
C1311	C131	0.979300	0.827000	0.636050
C1321	C132	0.987600	0.893900	0.583760
C1331	C133	0.184400	0.559700	0.900500
C1341	C134	0.283800	0.557800	0.902300
C1351	C135	0.332400	0.600700	0.951700
C1361	C136	0.276800	0.643600	0.997380
C1371	C137	0.177000	0.642900	0.991740
C1381	C138	0.438600	0.603200	0.957930
C1391	C139	0.503400	0.571900	0.916260
C1401	C140	0.754000	0.621000	0.979330
C1411	C141	0.654600	0.617000	0.976570
C1421	C142	0.609300	0.576800	0.924290
C1431	C143	0.671200	0.542500	0.877520
C1441	C144	0.770600	0.549400	0.884350
N91	N9	0.128560	0.899060	0.444910
N101	N10	0.813480	0.912090	0.434370
N111	N11	0.871440	0.399060	0.055090
N121	N12	0.186520	0.412090	0.065630
N131	N13	0.871440	0.100940	0.555090
N141	N14	0.186520	0.087910	0.565630
N151	N15	0.128560	0.600940	0.944910
N161	N16	0.813480	0.587910	0.934370
O171	O17	0.974690	0.847330	0.346950
O181	O18	0.974900	0.738140	0.416920
O191	O19	0.023270	0.530490	0.096230
O201	O20	0.957510	0.632570	0.030340
O211	O21	0.025310	0.347330	0.153050
O221	O22	0.025100	0.238140	0.083080
O231	O23	0.976730	0.030490	0.403770
O241	O24	0.042490	0.132570	0.469660
O251	O25	0.025310	0.152670	0.653050
O261	O26	0.025100	0.261860	0.583080
O271	O27	0.976730	0.469510	0.903770
O281	O28	0.042490	0.367430	0.969660
O291	O29	0.974690	0.652670	0.846950
O301	O30	0.974900	0.761860	0.916920
O311	O31	0.023270	0.969510	0.596230
O321	O32	0.957510	0.867430	0.530340
