data_SUJREV_freeONLY_PM
_symmetry_space_group_name_H-M	'P1'
_cell_length_a	13.500000
_cell_length_b	14.702000
_cell_length_c	21.245000
_cell_angle_alpha	90.000000
_cell_angle_beta	90.000000
_cell_angle_gamma	90.000000
_symmetry_Int_Tables_number 1

loop_
_symmetry_equiv_pos_as_xyz
'x,y,z'

loop_
_atom_site_label
_atom_site_type_symbol
_atom_site_fract_x
_atom_site_fract_y
_atom_site_fract_z
Zn11	Zn1	0.501870	0.394810	0.568550
Zn21	Zn2	0.498130	0.894810	0.931450
Zn31	Zn3	0.498130	0.605190	0.431450
Zn41	Zn4	0.501870	0.105190	0.068550
H11	H1	0.674100	0.471900	0.651100
H21	H2	0.839000	0.508300	0.644100
H31	H3	0.852400	0.367200	0.484100
H41	H4	0.687600	0.334400	0.495700
H51	H5	0.994400	0.512900	0.585400
H61	H6	0.307600	0.463000	0.633000
H71	H7	0.143000	0.482600	0.613700
H81	H8	0.174700	0.327500	0.460300
H91	H9	0.337900	0.309900	0.486200
H101	H10	0.006800	0.378800	0.491000
H111	H11	0.517000	0.138400	0.690200
H121	H12	0.505600	0.282700	0.771800
H131	H13	0.516400	0.094300	0.801500
H141	H14	0.500000	0.237700	0.882900
H151	H15	0.325900	0.971900	0.848900
H161	H16	0.161000	0.008300	0.855900
H171	H17	0.147600	0.867200	0.015900
H181	H18	0.312400	0.834400	0.004300
H191	H19	0.005600	0.012900	0.914600
H201	H20	0.692400	0.963000	0.867000
H211	H21	0.857000	0.982600	0.886300
H221	H22	0.825300	0.827500	0.039700
H231	H23	0.662100	0.809900	0.013800
H241	H24	0.993200	0.878800	0.009000
H251	H25	0.483000	0.638400	0.809800
H261	H26	0.494400	0.782700	0.728200
H271	H27	0.483600	0.594300	0.698500
H281	H28	0.500000	0.737700	0.617100
H291	H29	0.325900	0.528100	0.348900
H301	H30	0.161000	0.491700	0.355900
H311	H31	0.147600	0.632800	0.515900
H321	H32	0.312400	0.665600	0.504300
H331	H33	0.005600	0.487100	0.414600
H341	H34	0.692400	0.537000	0.367000
H351	H35	0.857000	0.517400	0.386300
H361	H36	0.825300	0.672500	0.539700
H371	H37	0.662100	0.690100	0.513800
H381	H38	0.993200	0.621200	0.509000
H391	H39	0.483000	0.861600	0.309800
H401	H40	0.494400	0.717300	0.228200
H411	H41	0.483600	0.905700	0.198500
H421	H42	0.500000	0.762300	0.117100
H431	H43	0.674100	0.028100	0.151100
H441	H44	0.839000	0.991700	0.144100
H451	H45	0.852400	0.132800	0.984100
H461	H46	0.687600	0.165600	0.995700
H471	H47	0.994400	0.987100	0.085400
H481	H48	0.307600	0.037000	0.133000
H491	H49	0.143000	0.017400	0.113700
H501	H50	0.174700	0.172500	0.960300
H511	H51	0.337900	0.190100	0.986200
H521	H52	0.006800	0.121200	0.991000
H531	H53	0.517000	0.361600	0.190200
H541	H54	0.505600	0.217300	0.271800
H551	H55	0.516400	0.405700	0.301500
H561	H56	0.500000	0.262300	0.382900
C11	C1	0.709800	0.452600	0.616200
C21	C2	0.809100	0.475100	0.612100
C31	C3	0.863900	0.448300	0.560300
C41	C4	0.817200	0.391800	0.517600
C51	C5	0.718100	0.372100	0.525000
C61	C6	0.963400	0.490000	0.546900
C71	C7	0.280800	0.436700	0.597000
C81	C8	0.181600	0.449500	0.585500
C91	C9	0.139400	0.412900	0.531800
C101	C10	0.200200	0.357600	0.495200
C111	C11	0.299000	0.347700	0.511200
C121	C12	0.038400	0.434500	0.506500
C131	C13	0.507600	0.268900	0.649800
C141	C14	0.512000	0.199500	0.701200
C151	C15	0.509100	0.221300	0.761300
C161	C16	0.511100	0.155400	0.812100
C171	C17	0.505800	0.176600	0.872100
C181	C18	0.508700	0.108600	0.923400
C191	C19	0.290200	0.952600	0.883800
C201	C20	0.190900	0.975100	0.887900
C211	C21	0.136100	0.948300	0.939700
C221	C22	0.182800	0.891800	0.982400
C231	C23	0.281900	0.872100	0.975000
C241	C24	0.036600	0.990000	0.953100
C251	C25	0.719200	0.936700	0.903000
C261	C26	0.818400	0.949500	0.914500
C271	C27	0.860600	0.912900	0.968200
C281	C28	0.799800	0.857600	0.004800
C291	C29	0.701000	0.847700	0.988800
C301	C30	0.961600	0.934500	0.993500
C311	C31	0.492400	0.768900	0.850200
C321	C32	0.488000	0.699500	0.798800
C331	C33	0.490900	0.721300	0.738700
C341	C34	0.488900	0.655400	0.687900
C351	C35	0.494200	0.676600	0.627900
C361	C36	0.491300	0.608600	0.576600
C371	C37	0.290200	0.547400	0.383800
C381	C38	0.190900	0.524900	0.387900
C391	C39	0.136100	0.551700	0.439700
C401	C40	0.182800	0.608200	0.482400
C411	C41	0.281900	0.627900	0.475000
C421	C42	0.036600	0.510000	0.453100
C431	C43	0.719200	0.563300	0.403000
C441	C44	0.818400	0.550500	0.414500
C451	C45	0.860600	0.587100	0.468200
C461	C46	0.799800	0.642400	0.504800
C471	C47	0.701000	0.652300	0.488800
C481	C48	0.961600	0.565500	0.493500
C491	C49	0.492400	0.731100	0.350200
C501	C50	0.488000	0.800500	0.298800
C511	C51	0.490900	0.778700	0.238700
C521	C52	0.488900	0.844600	0.187900
C531	C53	0.494200	0.823400	0.127900
C541	C54	0.491300	0.891400	0.076600
C551	C55	0.709800	0.047400	0.116200
C561	C56	0.809100	0.024900	0.112100
C571	C57	0.863900	0.051700	0.060300
C581	C58	0.817200	0.108200	0.017600
C591	C59	0.718100	0.127900	0.025000
C601	C60	0.963400	0.010000	0.046900
C611	C61	0.280800	0.063300	0.097000
C621	C62	0.181600	0.050500	0.085500
C631	C63	0.139400	0.087100	0.031800
C641	C64	0.200200	0.142400	0.995200
C651	C65	0.299000	0.152300	0.011200
C661	C66	0.038400	0.065500	0.006500
C671	C67	0.507600	0.231100	0.149800
C681	C68	0.512000	0.300500	0.201200
C691	C69	0.509100	0.278700	0.261300
C701	C70	0.511100	0.344600	0.312100
C711	C71	0.505800	0.323400	0.372100
C721	C72	0.508700	0.391400	0.423400
N11	N1	0.663600	0.405000	0.572800
N21	N2	0.341800	0.388400	0.559600
N31	N3	0.336400	0.905000	0.927200
N41	N4	0.658200	0.888400	0.940400
N51	N5	0.336400	0.595000	0.427200
N61	N6	0.658200	0.611600	0.440400
N71	N7	0.663600	0.095000	0.072800
N81	N8	0.341800	0.111600	0.059600
O11	O1	0.498900	0.352000	0.663640
O21	O2	0.511100	0.242000	0.594300
O31	O3	0.513300	0.142100	0.977440
O41	O4	0.507900	0.027700	0.908800
O51	O5	0.501100	0.852000	0.836360
O61	O6	0.488900	0.742000	0.905700
O71	O7	0.486700	0.642100	0.522560
O81	O8	0.492100	0.527700	0.591200
O91	O9	0.501100	0.648000	0.336360
O101	O10	0.488900	0.758000	0.405700
O111	O11	0.486700	0.857900	0.022560
O121	O12	0.492100	0.972300	0.091200
O131	O13	0.498900	0.148000	0.163640
O141	O14	0.511100	0.258000	0.094300
O151	O15	0.513300	0.357900	0.477440
O161	O16	0.507900	0.472300	0.408800
Zn51	Zn5	0.998130	0.605190	0.068550
Zn61	Zn6	0.001870	0.105190	0.431450
Zn71	Zn7	0.001870	0.394810	0.931450
Zn81	Zn8	0.998130	0.894810	0.568550
H571	H57	0.825900	0.528100	0.151100
H581	H58	0.661000	0.491700	0.144100
H591	H59	0.647600	0.632800	0.984100
H601	H60	0.812400	0.665600	0.995700
H611	H61	0.505600	0.487100	0.085400
H621	H62	0.192400	0.537000	0.133000
H631	H63	0.357000	0.517400	0.113700
H641	H64	0.325300	0.672500	0.960300
H651	H65	0.162100	0.690100	0.986200
H661	H66	0.493200	0.621200	0.991000
H671	H67	0.983000	0.861600	0.190200
H681	H68	0.994400	0.717300	0.271800
H691	H69	0.983600	0.905700	0.301500
H701	H70	0.000000	0.762300	0.382900
H711	H71	0.174100	0.028100	0.348900
H721	H72	0.339000	0.991700	0.355900
H731	H73	0.352400	0.132800	0.515900
H741	H74	0.187600	0.165600	0.504300
H751	H75	0.494400	0.987100	0.414600
H761	H76	0.807600	0.037000	0.367000
H771	H77	0.643000	0.017400	0.386300
H781	H78	0.674700	0.172500	0.539700
H791	H79	0.837900	0.190100	0.513800
H801	H80	0.506800	0.121200	0.509000
H811	H81	0.017000	0.361600	0.309800
H821	H82	0.005600	0.217300	0.228200
H831	H83	0.016400	0.405700	0.198500
H841	H84	0.000000	0.262300	0.117100
H851	H85	0.174100	0.471900	0.848900
H861	H86	0.339000	0.508300	0.855900
H871	H87	0.352400	0.367200	0.015900
H881	H88	0.187600	0.334400	0.004300
H891	H89	0.494400	0.512900	0.914600
H901	H90	0.807600	0.463000	0.867000
H911	H91	0.643000	0.482600	0.886300
H921	H92	0.674700	0.327500	0.039700
H931	H93	0.837900	0.309900	0.013800
H941	H94	0.506800	0.378800	0.009000
H951	H95	0.017000	0.138400	0.809800
H961	H96	0.005600	0.282700	0.728200
H971	H97	0.016400	0.094300	0.698500
H981	H98	0.000000	0.237700	0.617100
H991	H99	0.825900	0.971900	0.651100
H1001	H100	0.661000	0.008300	0.644100
H1011	H101	0.647600	0.867200	0.484100
H1021	H102	0.812400	0.834400	0.495700
H1031	H103	0.505600	0.012900	0.585400
H1041	H104	0.192400	0.963000	0.633000
H1051	H105	0.357000	0.982600	0.613700
H1061	H106	0.325300	0.827500	0.460300
H1071	H107	0.162100	0.809900	0.486200
H1081	H108	0.493200	0.878800	0.491000
H1091	H109	0.983000	0.638400	0.690200
H1101	H110	0.994400	0.782700	0.771800
H1111	H111	0.983600	0.594300	0.801500
H1121	H112	0.000000	0.737700	0.882900
C731	C73	0.790200	0.547400	0.116200
C741	C74	0.690900	0.524900	0.112100
C751	C75	0.636100	0.551700	0.060300
C761	C76	0.682800	0.608200	0.017600
C771	C77	0.781900	0.627900	0.025000
C781	C78	0.536600	0.510000	0.046900
C791	C79	0.219200	0.563300	0.097000
C801	C80	0.318400	0.550500	0.085500
C811	C81	0.360600	0.587100	0.031800
C821	C82	0.299800	0.642400	0.995200
C831	C83	0.201000	0.652300	0.011200
C841	C84	0.461600	0.565500	0.006500
C851	C85	0.992400	0.731100	0.149800
C861	C86	0.988000	0.800500	0.201200
C871	C87	0.990900	0.778700	0.261300
C881	C88	0.988900	0.844600	0.312100
C891	C89	0.994200	0.823400	0.372100
C901	C90	0.991300	0.891400	0.423400
C911	C91	0.209800	0.047400	0.383800
C921	C92	0.309100	0.024900	0.387900
C931	C93	0.363900	0.051700	0.439700
C941	C94	0.317200	0.108200	0.482400
C951	C95	0.218100	0.127900	0.475000
C961	C96	0.463400	0.010000	0.453100
C971	C97	0.780800	0.063300	0.403000
C981	C98	0.681600	0.050500	0.414500
C991	C99	0.639400	0.087100	0.468200
C1001	C100	0.700200	0.142400	0.504800
C1011	C101	0.799000	0.152300	0.488800
C1021	C102	0.538400	0.065500	0.493500
C1031	C103	0.007600	0.231100	0.350200
C1041	C104	0.012000	0.300500	0.298800
C1051	C105	0.009100	0.278700	0.238700
C1061	C106	0.011100	0.344600	0.187900
C1071	C107	0.005800	0.323400	0.127900
C1081	C108	0.008700	0.391400	0.076600
C1091	C109	0.209800	0.452600	0.883800
C1101	C110	0.309100	0.475100	0.887900
C1111	C111	0.363900	0.448300	0.939700
C1121	C112	0.317200	0.391800	0.982400
C1131	C113	0.218100	0.372100	0.975000
C1141	C114	0.463400	0.490000	0.953100
C1151	C115	0.780800	0.436700	0.903000
C1161	C116	0.681600	0.449500	0.914500
C1171	C117	0.639400	0.412900	0.968200
C1181	C118	0.700200	0.357600	0.004800
C1191	C119	0.799000	0.347700	0.988800
C1201	C120	0.538400	0.434500	0.993500
C1211	C121	0.007600	0.268900	0.850200
C1221	C122	0.012000	0.199500	0.798800
C1231	C123	0.009100	0.221300	0.738700
C1241	C124	0.011100	0.155400	0.687900
C1251	C125	0.005800	0.176600	0.627900
C1261	C126	0.008700	0.108600	0.576600
C1271	C127	0.790200	0.952600	0.616200
C1281	C128	0.690900	0.975100	0.612100
C1291	C129	0.636100	0.948300	0.560300
C1301	C130	0.682800	0.891800	0.517600
C1311	C131	0.781900	0.872100	0.525000
C1321	C132	0.536600	0.990000	0.546900
C1331	C133	0.219200	0.936700	0.597000
C1341	C134	0.318400	0.949500	0.585500
C1351	C135	0.360600	0.912900	0.531800
C1361	C136	0.299800	0.857600	0.495200
C1371	C137	0.201000	0.847700	0.511200
C1381	C138	0.461600	0.934500	0.506500
C1391	C139	0.992400	0.768900	0.649800
C1401	C140	0.988000	0.699500	0.701200
C1411	C141	0.990900	0.721300	0.761300
C1421	C142	0.988900	0.655400	0.812100
C1431	C143	0.994200	0.676600	0.872100
C1441	C144	0.991300	0.608600	0.923400
N91	N9	0.836400	0.595000	0.072800
N101	N10	0.158200	0.611600	0.059600
N111	N11	0.163600	0.095000	0.427200
N121	N12	0.841800	0.111600	0.440400
N131	N13	0.163600	0.405000	0.927200
N141	N14	0.841800	0.388400	0.940400
N151	N15	0.836400	0.905000	0.572800
N161	N16	0.158200	0.888400	0.559600
O171	O17	0.001100	0.648000	0.163640
O181	O18	0.988900	0.758000	0.094300
O191	O19	0.986700	0.857900	0.477440
O201	O20	0.992100	0.972300	0.408800
O211	O21	0.998900	0.148000	0.336360
O221	O22	0.011100	0.258000	0.405700
O231	O23	0.013300	0.357900	0.022560
O241	O24	0.007900	0.472300	0.091200
O251	O25	0.998900	0.352000	0.836360
O261	O26	0.011100	0.242000	0.905700
O271	O27	0.013300	0.142100	0.522560
O281	O28	0.007900	0.027700	0.591200
O291	O29	0.001100	0.852000	0.663640
O301	O30	0.988900	0.742000	0.594300
O311	O31	0.986700	0.642100	0.977440
O321	O32	0.992100	0.527700	0.908800
