data_TACPAP_freeONLY_PM
_symmetry_space_group_name_H-M	'P1'
_cell_length_a	5.826500
_cell_length_b	19.051300
_cell_length_c	19.051300
_cell_angle_alpha	90.000000
_cell_angle_beta	90.000000
_cell_angle_gamma	90.000000
_symmetry_Int_Tables_number 1

loop_
_symmetry_equiv_pos_as_xyz
'x,y,z'

loop_
_atom_site_label
_atom_site_type_symbol
_atom_site_fract_x
_atom_site_fract_y
_atom_site_fract_z
Zn11	Zn1	0.250000	0.727610	0.272390
Zn21	Zn2	0.750000	0.272390	0.727610
Zn31	Zn3	0.000000	0.227610	0.227610
Zn41	Zn4	0.500000	0.772390	0.772390
Zn51	Zn5	0.750000	0.775650	0.224350
Zn61	Zn6	0.250000	0.224350	0.775650
Zn71	Zn7	0.500000	0.275650	0.275650
Zn81	Zn8	0.000000	0.724350	0.724350
H11	H1	0.406000	0.624000	0.239000
H21	H2	0.978000	0.493000	0.303500
H31	H3	0.405200	0.460000	0.216400
H41	H4	0.686000	0.390000	0.250000
H51	H5	0.174200	0.549600	0.206900
H61	H6	0.454200	0.503300	0.329400
H71	H7	0.906000	0.376000	0.761000
H81	H8	0.478000	0.507000	0.696500
H91	H9	0.905200	0.540000	0.783600
H101	H10	0.186000	0.610000	0.750000
H111	H11	0.674200	0.450400	0.793100
H121	H12	0.954200	0.496700	0.670600
H131	H13	0.156000	0.261000	0.124000
H141	H14	0.728000	0.196500	0.993000
H151	H15	0.155200	0.283600	0.960000
H161	H16	0.436000	0.250000	0.890000
H171	H17	0.924200	0.293100	0.049600
H181	H18	0.204200	0.170600	0.003300
H191	H19	0.656000	0.739000	0.876000
H201	H20	0.228000	0.803500	0.007000
H211	H21	0.655200	0.716400	0.040000
H221	H22	0.936000	0.750000	0.110000
H231	H23	0.424200	0.706900	0.950400
H241	H24	0.704200	0.829400	0.996700
H251	H25	0.344000	0.876000	0.739000
H261	H26	0.772000	0.007000	0.803500
H271	H27	0.344800	0.040000	0.716400
H281	H28	0.064000	0.110000	0.750000
H291	H29	0.575800	0.950400	0.706900
H301	H30	0.295800	0.996700	0.829400
H311	H31	0.844000	0.124000	0.261000
H321	H32	0.272000	0.993000	0.196500
H331	H33	0.844800	0.960000	0.283600
H341	H34	0.564000	0.890000	0.250000
H351	H35	0.075800	0.049600	0.293100
H361	H36	0.795800	0.003300	0.170600
H371	H37	0.594000	0.239000	0.624000
H381	H38	0.022000	0.303500	0.493000
H391	H39	0.594800	0.216400	0.460000
H401	H40	0.314000	0.250000	0.390000
H411	H41	0.825800	0.206900	0.549600
H421	H42	0.545800	0.329400	0.503300
H431	H43	0.094000	0.761000	0.376000
H441	H44	0.522000	0.696500	0.507000
H451	H45	0.094800	0.783600	0.540000
H461	H46	0.814000	0.750000	0.610000
H471	H47	0.325800	0.793100	0.450400
H481	H48	0.045800	0.670600	0.496700
C11	C1	0.918500	0.617500	0.241900
C21	C2	0.113600	0.522100	0.312500
C31	C3	0.369700	0.429400	0.256300
C41	C4	0.169200	0.382500	0.237600
C51	C5	0.140200	0.575000	0.250400
C61	C6	0.319200	0.474000	0.320200
C71	C7	0.418500	0.382500	0.758100
C81	C8	0.613600	0.477900	0.687500
C91	C9	0.869700	0.570600	0.743700
C101	C10	0.669200	0.617500	0.762400
C111	C11	0.640200	0.425000	0.749600
C121	C12	0.819200	0.526000	0.679800
C131	C13	0.668500	0.258100	0.117500
C141	C14	0.863600	0.187500	0.022100
C151	C15	0.119700	0.243700	0.929400
C161	C16	0.919200	0.262400	0.882500
C171	C17	0.890200	0.249600	0.075000
C181	C18	0.069200	0.179800	0.974000
C191	C19	0.168500	0.741900	0.882500
C201	C20	0.363600	0.812500	0.977900
C211	C21	0.619700	0.756300	0.070600
C221	C22	0.419200	0.737600	0.117500
C231	C23	0.390200	0.750400	0.925000
C241	C24	0.569200	0.820200	0.026000
C251	C25	0.831500	0.882500	0.741900
C261	C26	0.636400	0.977900	0.812500
C271	C27	0.380300	0.070600	0.756300
C281	C28	0.580800	0.117500	0.737600
C291	C29	0.609800	0.925000	0.750400
C301	C30	0.430800	0.026000	0.820200
C311	C31	0.331500	0.117500	0.258100
C321	C32	0.136400	0.022100	0.187500
C331	C33	0.880300	0.929400	0.243700
C341	C34	0.080800	0.882500	0.262400
C351	C35	0.109800	0.075000	0.249600
C361	C36	0.930800	0.974000	0.179800
C371	C37	0.081500	0.241900	0.617500
C381	C38	0.886400	0.312500	0.522100
C391	C39	0.630300	0.256300	0.429400
C401	C40	0.830800	0.237600	0.382500
C411	C41	0.859800	0.250400	0.575000
C421	C42	0.680800	0.320200	0.474000
C431	C43	0.581500	0.758100	0.382500
C441	C44	0.386400	0.687500	0.477900
C451	C45	0.130300	0.743700	0.570600
C461	C46	0.330800	0.762400	0.617500
C471	C47	0.359800	0.749600	0.425000
C481	C48	0.180800	0.679800	0.526000
O11	O1	0.939300	0.683800	0.243000
O21	O2	0.738600	0.584600	0.231800
O31	O3	0.324400	0.622100	0.266800
O41	O4	0.075400	0.560100	0.374600
O51	O5	0.287700	0.429200	0.379100
O61	O6	0.566800	0.385200	0.271500
O71	O7	0.194200	0.315800	0.246900
O81	O8	0.991100	0.408600	0.213600
O91	O9	0.439300	0.316200	0.757000
O101	O10	0.238600	0.415400	0.768200
O111	O11	0.824400	0.377900	0.733200
O121	O12	0.575400	0.439900	0.625400
O131	O13	0.787700	0.570800	0.620900
O141	O14	0.066800	0.614800	0.728500
O151	O15	0.694200	0.684200	0.753100
O161	O16	0.491100	0.591400	0.786400
O171	O17	0.689300	0.257000	0.183800
O181	O18	0.488600	0.268200	0.084600
O191	O19	0.074400	0.233200	0.122100
O201	O20	0.825400	0.125400	0.060100
O211	O21	0.037700	0.120900	0.929200
O221	O22	0.316800	0.228500	0.885200
O231	O23	0.944200	0.253100	0.815800
O241	O24	0.741100	0.286400	0.908600
O251	O25	0.189300	0.743000	0.816200
O261	O26	0.988600	0.731800	0.915400
O271	O27	0.574400	0.766800	0.877900
O281	O28	0.325400	0.874600	0.939900
O291	O29	0.537700	0.879100	0.070800
O301	O30	0.816800	0.771500	0.114800
O311	O31	0.444200	0.746900	0.184200
O321	O32	0.241100	0.713600	0.091400
O331	O33	0.810700	0.816200	0.743000
O341	O34	0.011400	0.915400	0.731800
O351	O35	0.425600	0.877900	0.766800
O361	O36	0.674600	0.939900	0.874600
O371	O37	0.462300	0.070800	0.879100
O381	O38	0.183200	0.114800	0.771500
O391	O39	0.555800	0.184200	0.746900
O401	O40	0.758900	0.091400	0.713600
O411	O41	0.310700	0.183800	0.257000
O421	O42	0.511400	0.084600	0.268200
O431	O43	0.925600	0.122100	0.233200
O441	O44	0.174600	0.060100	0.125400
O451	O45	0.962300	0.929200	0.120900
O461	O46	0.683200	0.885200	0.228500
O471	O47	0.055800	0.815800	0.253100
O481	O48	0.258900	0.908600	0.286400
O491	O49	0.060700	0.243000	0.683800
O501	O50	0.261400	0.231800	0.584600
O511	O51	0.675600	0.266800	0.622100
O521	O52	0.924600	0.374600	0.560100
O531	O53	0.712300	0.379100	0.429200
O541	O54	0.433200	0.271500	0.385200
O551	O55	0.805800	0.246900	0.315800
O561	O56	0.008900	0.213600	0.408600
O571	O57	0.560700	0.757000	0.316200
O581	O58	0.761400	0.768200	0.415400
O591	O59	0.175600	0.733200	0.377900
O601	O60	0.424600	0.625400	0.439900
O611	O61	0.212300	0.620900	0.570800
O621	O62	0.933200	0.728500	0.614800
O631	O63	0.305800	0.753100	0.684200
O641	O64	0.508900	0.786400	0.591400
