data_TADWEC_manual_PM
_symmetry_space_group_name_H-M	'P1'
_cell_length_a	13.088400
_cell_length_b	26.618600
_cell_length_c	26.618600
_cell_angle_alpha	65.277900
_cell_angle_beta	75.767900
_cell_angle_gamma	75.768000
_symmetry_Int_Tables_number 1

loop_
_symmetry_equiv_pos_as_xyz
'x,y,z'

loop_
_atom_site_label
_atom_site_type_symbol
_atom_site_fract_x
_atom_site_fract_y
_atom_site_fract_z
Zn11	Zn1	0.158820	0.488960	0.362840
Zn21	Zn2	0.978580	0.576440	0.287380
Zn31	Zn3	0.989380	0.862840	0.988960
Zn41	Zn4	0.157600	0.787380	0.076440
Zn51	Zn5	0.341180	0.637160	0.511040
Zn61	Zn6	0.521420	0.712620	0.423560
Zn71	Zn7	0.510620	0.011040	0.137160
Zn81	Zn8	0.342400	0.923560	0.212620
H11	H1	0.026800	0.271700	0.366900
H21	H2	0.071900	0.351100	0.367700
H31	H3	0.852800	0.448100	0.267700
H41	H4	0.798900	0.366600	0.278200
H51	H5	0.010500	0.209900	0.328100
H61	H6	0.717200	0.294500	0.335500
H71	H7	0.951800	0.130100	0.338500
H81	H8	0.542200	0.317700	0.291500
H91	H9	0.413800	0.386600	0.314600
H101	H10	0.354600	0.275600	0.474400
H111	H11	0.482900	0.206800	0.451400
H121	H12	0.496700	0.161400	0.376000
H131	H13	0.805900	0.940800	0.113800
H141	H14	0.770800	0.983600	0.179400
H151	H15	0.076300	0.929800	0.206200
H161	H16	0.116100	0.889000	0.141200
H171	H17	0.789400	0.053600	0.204800
H181	H18	0.759300	0.095100	0.268300
H191	H19	0.990800	0.925200	0.294000
H201	H20	0.967500	0.958000	0.454400
H211	H21	0.167400	0.936300	0.326100
H221	H22	0.968600	0.854100	0.461100
H231	H23	0.298400	0.857700	0.347900
H241	H24	0.096800	0.777400	0.479400
H251	H25	0.484500	0.028600	0.389400
H261	H26	0.452600	0.090400	0.390400
H271	H27	0.415200	0.091700	0.307500
H281	H28	0.505600	0.129200	0.292000
H291	H29	0.537600	0.067600	0.291000
H301	H30	0.880600	0.982200	0.518000
H311	H31	0.832300	0.036000	0.534800
H321	H32	0.011900	0.017600	0.525600
H331	H33	0.018600	0.024800	0.462200
H341	H34	0.971200	0.077300	0.480300
H351	H35	0.334600	0.866900	0.771700
H361	H36	0.209300	0.867700	0.851100
H371	H37	0.431400	0.767700	0.948100
H381	H38	0.556300	0.778200	0.866600
H391	H39	0.451500	0.828100	0.709900
H401	H40	0.652800	0.835500	0.794500
H411	H41	0.579600	0.838500	0.630100
H421	H42	0.848600	0.791500	0.817700
H431	H43	0.885000	0.814600	0.886600
H441	H44	0.895400	0.974400	0.775600
H451	H45	0.858900	0.951400	0.706800
H461	H46	0.965900	0.876000	0.661400
H471	H47	0.139500	0.613800	0.440800
H481	H48	0.066200	0.679400	0.483600
H491	H49	0.787700	0.706200	0.429800
H501	H50	0.853700	0.641200	0.389000
H511	H51	0.952200	0.704800	0.553600
H521	H52	0.877300	0.768300	0.595100
H531	H53	0.790000	0.794000	0.425200
H541	H54	0.620100	0.954400	0.458000
H551	H55	0.570200	0.826100	0.436300
H561	H56	0.716200	0.961100	0.354100
H571	H57	0.496000	0.847900	0.357700
H581	H58	0.646400	0.979400	0.277400
H591	H59	0.097500	0.889400	0.528600
H601	H60	0.066600	0.890400	0.590400
H611	H61	0.185600	0.807500	0.591700
H621	H62	0.073200	0.792000	0.629200
H631	H63	0.103800	0.791000	0.567600
H641	H64	0.619200	0.018000	0.482200
H651	H65	0.596900	0.034800	0.536000
H661	H66	0.444900	0.025600	0.517600
H671	H67	0.494400	0.962200	0.524800
H681	H68	0.471200	0.980300	0.577300
H691	H69	0.473200	0.633100	0.728300
H701	H70	0.428100	0.632300	0.648900
H711	H71	0.647200	0.732300	0.551900
H721	H72	0.701100	0.721800	0.633400
H731	H73	0.489500	0.671900	0.790100
H741	H74	0.782800	0.664500	0.705500
H751	H75	0.548200	0.661500	0.869900
H761	H76	0.957800	0.708500	0.682300
H771	H77	0.086200	0.685400	0.613400
H781	H78	0.145400	0.525600	0.724400
H791	H79	0.017100	0.548600	0.793200
H801	H80	0.003300	0.624000	0.838600
H811	H81	0.694100	0.886200	0.059200
H821	H82	0.729200	0.820600	0.016400
H831	H83	0.423700	0.793800	0.070200
H841	H84	0.383900	0.858800	0.111000
H851	H85	0.710600	0.795200	0.946400
H861	H86	0.740700	0.731700	0.904900
H871	H87	0.509200	0.706000	0.074800
H881	H88	0.532500	0.545600	0.042000
H891	H89	0.332600	0.673900	0.063700
H901	H90	0.531400	0.538900	0.145900
H911	H91	0.201600	0.652100	0.142300
H921	H92	0.403200	0.520600	0.222600
H931	H93	0.015500	0.610600	0.971400
H941	H94	0.047400	0.609600	0.909600
H951	H95	0.084800	0.692500	0.908300
H961	H96	0.994400	0.708000	0.870800
H971	H97	0.962400	0.709000	0.932400
H981	H98	0.619400	0.482000	0.017800
H991	H99	0.667700	0.465200	0.964000
H1001	H100	0.488100	0.474400	0.982400
H1011	H101	0.481400	0.537800	0.975200
H1021	H102	0.528800	0.519700	0.922700
H1031	H103	0.165400	0.228300	0.133100
H1041	H104	0.290700	0.148900	0.132300
H1051	H105	0.068600	0.051900	0.232300
H1061	H106	0.943700	0.133400	0.221800
H1071	H107	0.048500	0.290100	0.171900
H1081	H108	0.847200	0.205500	0.164500
H1091	H109	0.920400	0.369900	0.161500
H1101	H110	0.651400	0.182300	0.208500
H1111	H111	0.615000	0.113400	0.185400
H1121	H112	0.604600	0.224400	0.025600
H1131	H113	0.641100	0.293200	0.048600
H1141	H114	0.534100	0.338600	0.124000
H1151	H115	0.360500	0.559200	0.386200
H1161	H116	0.433800	0.516400	0.320600
H1171	H117	0.712300	0.570200	0.293800
H1181	H118	0.646300	0.611000	0.358800
H1191	H119	0.547800	0.446400	0.295200
H1201	H120	0.622700	0.404900	0.231700
H1211	H121	0.710000	0.574800	0.206000
H1221	H122	0.879900	0.542000	0.045600
H1231	H123	0.929800	0.563700	0.173900
H1241	H124	0.783800	0.645900	0.038900
H1251	H125	0.004000	0.642300	0.152100
H1261	H126	0.853600	0.722600	0.020600
H1271	H127	0.402500	0.471400	0.110600
H1281	H128	0.433400	0.409600	0.109600
H1291	H129	0.314400	0.408300	0.192500
H1301	H130	0.426800	0.370800	0.208000
H1311	H131	0.396200	0.432400	0.209000
H1321	H132	0.880800	0.517800	0.982000
H1331	H133	0.903100	0.464000	0.965200
H1341	H134	0.055100	0.482400	0.974400
H1351	H135	0.005600	0.475200	0.037800
H1361	H136	0.028800	0.422700	0.019700
C11	C1	0.907430	0.311070	0.323870
C21	C2	0.988100	0.307600	0.348400
C31	C3	0.017500	0.355200	0.347600
C41	C4	0.967080	0.407920	0.318120
C51	C5	0.886750	0.412450	0.290050
C61	C6	0.857110	0.363490	0.295290
C71	C7	0.869610	0.260290	0.329890
C81	C8	0.935970	0.210930	0.331930
C91	C9	0.764870	0.260830	0.337030
C101	C10	0.721730	0.212370	0.346970
C111	C11	0.901920	0.162480	0.339280
C121	C12	0.790960	0.162640	0.348040
C131	C13	0.603620	0.207880	0.361080
C141	C14	0.524560	0.255740	0.369340
C151	C15	0.504090	0.309210	0.328610
C161	C16	0.427900	0.350100	0.342300
C171	C17	0.372180	0.337620	0.396620
C181	C18	0.392650	0.284150	0.437350
C191	C19	0.468800	0.243300	0.423700
C201	C20	0.571200	0.162300	0.368300
C211	C21	0.646160	0.112940	0.364940
C221	C22	0.753210	0.112990	0.356990
C231	C23	0.860830	0.938970	0.132370
C241	C24	0.963460	0.911140	0.121540
C251	C25	0.840330	0.964270	0.171470
C261	C26	0.920280	0.961320	0.198720
C271	C27	0.021970	0.932330	0.186930
C281	C28	0.045950	0.907850	0.149050
C291	C29	0.898470	0.985930	0.242930
C301	C30	0.825300	0.036300	0.236300
C311	C31	0.805430	0.060170	0.274770
C321	C32	0.945000	0.960100	0.288900
C331	C33	0.927510	0.983690	0.330890
C341	C34	0.850700	0.034800	0.323200
C351	C35	0.824840	0.057660	0.365060
C361	C36	0.873730	0.028470	0.413470
C371	C37	0.941220	0.978380	0.419980
C381	C38	0.972110	0.956790	0.379590
C391	C39	0.053290	0.904710	0.390110
C401	C40	0.151790	0.903810	0.358210
C411	C41	0.035680	0.855420	0.437020
C421	C42	0.230560	0.856540	0.371340
C431	C43	0.111660	0.810540	0.448140
C441	C44	0.214130	0.810870	0.414670
C451	C45	0.502300	0.067000	0.371000
C461	C46	0.489000	0.091000	0.310000
C471	C47	0.877390	0.023210	0.505210
C481	C48	0.976700	0.036600	0.492400
C491	C49	0.300420	0.759480	0.430880
C501	C50	0.989300	0.886300	0.075500
C511	C51	0.001130	0.458570	0.315970
C521	C52	0.300700	0.390000	0.407800
C531	C53	0.457630	0.823870	0.811070
C541	C54	0.355900	0.848400	0.807600
C551	C55	0.279700	0.847600	0.855200
C561	C56	0.306880	0.818120	0.907920
C571	C57	0.410750	0.790050	0.912450
C581	C58	0.484110	0.795290	0.863490
C591	C59	0.540210	0.829890	0.760290
C601	C60	0.521170	0.831930	0.710930
C611	C61	0.637270	0.837030	0.760830
C621	C62	0.718930	0.846970	0.712370
C631	C63	0.596320	0.839280	0.662480
C641	C64	0.698360	0.848040	0.662640
C651	C65	0.827420	0.861080	0.707880
C661	C66	0.850360	0.869340	0.755740
C671	C67	0.858090	0.828610	0.809210
C681	C68	0.879700	0.842300	0.850100
C691	C69	0.893580	0.896620	0.837620
C701	C70	0.885850	0.937350	0.784150
C711	C71	0.864200	0.923700	0.743300
C721	C72	0.898200	0.868300	0.662300
C731	C73	0.875960	0.864940	0.612940
C741	C74	0.776810	0.856990	0.612990
C751	C75	0.067830	0.632370	0.438970
C761	C76	0.003860	0.621540	0.411140
C771	C77	0.023930	0.671470	0.464270
C781	C78	0.919680	0.698720	0.461320
C791	C79	0.858770	0.686930	0.432330
C801	C80	0.897150	0.649050	0.407850
C811	C81	0.872670	0.742930	0.485930
C821	C82	0.902100	0.736300	0.536300
C831	C83	0.859630	0.774770	0.560170
C841	C84	0.806000	0.788900	0.460100
C851	C85	0.757910	0.830890	0.483690
C861	C86	0.791300	0.823200	0.534800
C871	C87	0.752440	0.865060	0.557660
C881	C88	0.684330	0.913470	0.528470
C891	C89	0.660420	0.919980	0.478380
C901	C90	0.691510	0.879590	0.456790
C911	C91	0.651890	0.890110	0.404710
C921	C92	0.586190	0.858210	0.403810
C931	C93	0.671880	0.937020	0.355420
C941	C94	0.541560	0.871340	0.356540
C951	C95	0.629660	0.948140	0.310540
C961	C96	0.560330	0.914670	0.310870
C971	C97	0.059700	0.871000	0.567000
C981	C98	0.110000	0.810000	0.591000
C991	C99	0.594190	0.005210	0.523210
C1001	C100	0.494300	0.992400	0.536600
C1011	C101	0.509220	0.930880	0.259480
C1021	C102	0.048900	0.575500	0.386300
C1031	C103	0.224330	0.815970	0.958570
C1041	C104	0.901500	0.907800	0.890000
C1051	C105	0.592570	0.676130	0.688930
C1061	C106	0.511900	0.651600	0.692400
C1071	C107	0.482500	0.652400	0.644800
C1081	C108	0.532920	0.681880	0.592080
C1091	C109	0.613250	0.709950	0.587550
C1101	C110	0.642890	0.704710	0.636510
C1111	C111	0.630390	0.670110	0.739710
C1121	C112	0.564030	0.668070	0.789070
C1131	C113	0.735130	0.662970	0.739170
C1141	C114	0.778270	0.653030	0.787630
C1151	C115	0.598080	0.660720	0.837520
C1161	C116	0.709040	0.651960	0.837360
C1171	C117	0.896380	0.638920	0.792120
C1181	C118	0.975440	0.630660	0.744260
C1191	C119	0.995910	0.671390	0.690790
C1201	C120	0.072100	0.657700	0.649900
C1211	C121	0.127820	0.603380	0.662380
C1221	C122	0.107350	0.562650	0.715850
C1231	C123	0.031200	0.576300	0.756700
C1241	C124	0.928800	0.631700	0.837700
C1251	C125	0.853840	0.635060	0.887060
C1261	C126	0.746790	0.643010	0.887010
C1271	C127	0.639170	0.867630	0.061030
C1281	C128	0.536540	0.878460	0.088860
C1291	C129	0.659670	0.828530	0.035730
C1301	C130	0.579720	0.801280	0.038680
C1311	C131	0.478030	0.813070	0.067670
C1321	C132	0.454050	0.850950	0.092150
C1331	C133	0.601530	0.757070	0.014070
C1341	C134	0.674700	0.763700	0.963700
C1351	C135	0.694570	0.725230	0.939830
C1361	C136	0.555000	0.711100	0.039900
C1371	C137	0.572490	0.669110	0.016310
C1381	C138	0.649300	0.676800	0.965200
C1391	C139	0.675160	0.634940	0.942340
C1401	C140	0.626270	0.586530	0.971530
C1411	C141	0.558780	0.580020	0.021620
C1421	C142	0.527890	0.620410	0.043210
C1431	C143	0.446710	0.609890	0.095290
C1441	C144	0.348210	0.641790	0.096190
C1451	C145	0.464320	0.562980	0.144580
C1461	C146	0.269440	0.628660	0.143460
C1471	C147	0.388340	0.551860	0.189460
C1481	C148	0.285870	0.585330	0.189130
C1491	C149	0.997700	0.629000	0.933000
C1501	C150	0.011000	0.690000	0.909000
C1511	C151	0.622610	0.494790	0.976790
C1521	C152	0.523300	0.507600	0.963400
C1531	C153	0.199580	0.569120	0.240520
C1541	C154	0.510700	0.924500	0.113700
C1551	C155	0.498870	0.684030	0.541430
C1561	C156	0.199300	0.592200	0.610000
C1571	C157	0.042370	0.188930	0.176130
C1581	C158	0.144100	0.192400	0.151600
C1591	C159	0.220300	0.144800	0.152400
C1601	C160	0.193120	0.092080	0.181880
C1611	C161	0.089250	0.087550	0.209950
C1621	C162	0.015890	0.136510	0.204710
C1631	C163	0.959790	0.239710	0.170110
C1641	C164	0.978830	0.289070	0.168070
C1651	C165	0.862730	0.239170	0.162970
C1661	C166	0.781070	0.287630	0.153030
C1671	C167	0.903680	0.337520	0.160720
C1681	C168	0.801640	0.337360	0.151960
C1691	C169	0.672580	0.292120	0.138920
C1701	C170	0.649640	0.244260	0.130660
C1711	C171	0.641910	0.190790	0.171390
C1721	C172	0.620300	0.149900	0.157700
C1731	C173	0.606420	0.162380	0.103380
C1741	C174	0.614150	0.215850	0.062650
C1751	C175	0.635800	0.256700	0.076300
C1761	C176	0.601800	0.337700	0.131700
C1771	C177	0.624040	0.387060	0.135060
C1781	C178	0.723190	0.387010	0.143010
C1791	C179	0.432170	0.561030	0.367630
C1801	C180	0.496140	0.588860	0.378460
C1811	C181	0.476070	0.535730	0.328530
C1821	C182	0.580320	0.538680	0.301280
C1831	C183	0.641230	0.567670	0.313070
C1841	C184	0.602850	0.592150	0.350950
C1851	C185	0.627330	0.514070	0.257070
C1861	C186	0.597900	0.463700	0.263700
C1871	C187	0.640370	0.439830	0.225230
C1881	C188	0.694000	0.539900	0.211100
C1891	C189	0.742090	0.516310	0.169110
C1901	C190	0.708700	0.465200	0.176800
C1911	C191	0.747560	0.442340	0.134940
C1921	C192	0.815670	0.471530	0.086530
C1931	C193	0.839580	0.521620	0.080020
C1941	C194	0.808490	0.543210	0.120410
C1951	C195	0.848110	0.595290	0.109890
C1961	C196	0.913810	0.596190	0.141790
C1971	C197	0.828120	0.644580	0.062980
C1981	C198	0.958440	0.643460	0.128660
C1991	C199	0.870340	0.689460	0.051860
C2001	C200	0.939670	0.689130	0.085330
C2011	C201	0.440300	0.433000	0.129000
C2021	C202	0.390000	0.409000	0.190000
C2031	C203	0.905810	0.476790	0.994790
C2041	C204	0.005700	0.463400	0.007600
C2051	C205	0.990780	0.740520	0.069120
C2061	C206	0.451100	0.613700	0.424500
C2071	C207	0.275670	0.041430	0.184030
C2081	C208	0.598500	0.110000	0.092200
O11	O1	0.837070	0.053030	0.452430
O21	O2	0.612020	0.065380	0.375780
O31	O3	0.394150	0.766920	0.406580
O41	O4	0.270690	0.715010	0.466610
O51	O5	0.949420	0.504780	0.291380
O61	O6	0.075960	0.450840	0.340840
O71	O7	0.917000	0.891900	0.050100
O81	O8	0.086420	0.861280	0.068880
O91	O9	0.290300	0.434000	0.373000
O101	O10	0.218400	0.370100	0.451700
O111	O11	0.657470	0.952430	0.553030
O121	O12	0.946820	0.875780	0.565380
O131	O13	0.432350	0.906580	0.266920
O141	O14	0.547690	0.966610	0.215010
O151	O15	0.254420	0.791380	0.004780
O161	O16	0.132360	0.840840	0.950840
O171	O17	0.141000	0.550100	0.391900
O181	O18	0.983420	0.568880	0.361280
O191	O19	0.902700	0.873000	0.934000
O201	O20	0.959800	0.951700	0.870100
O211	O21	0.662930	0.547570	0.946970
O221	O22	0.887980	0.624220	0.934620
O231	O23	0.105850	0.593420	0.233080
O241	O24	0.229310	0.533390	0.284990
O251	O25	0.550580	0.708620	0.495220
O261	O26	0.424040	0.659160	0.549160
O271	O27	0.583000	0.949900	0.108100
O281	O28	0.413580	0.931120	0.138720
O291	O29	0.209700	0.627000	0.566000
O301	O30	0.281600	0.548300	0.629900
O311	O31	0.842530	0.446970	0.047570
O321	O32	0.553180	0.434620	0.124220
O331	O33	0.067650	0.733080	0.093420
O341	O34	0.952310	0.784990	0.033390
O351	O35	0.245580	0.995220	0.208620
O361	O36	0.367640	0.049160	0.159160
O371	O37	0.359000	0.608100	0.449900
O381	O38	0.516580	0.638720	0.431120
O391	O39	0.597300	0.066000	0.127000
O401	O40	0.540200	0.129900	0.048300
