data_TAKYOV_freeONLY_PM
_symmetry_space_group_name_H-M	'P1'
_cell_length_a	15.147300
_cell_length_b	15.147300
_cell_length_c	15.476600
_cell_angle_alpha	90.000000
_cell_angle_beta	90.000000
_cell_angle_gamma	120.000000
_symmetry_Int_Tables_number 1

loop_
_symmetry_equiv_pos_as_xyz
'x,y,z'

loop_
_atom_site_label
_atom_site_type_symbol
_atom_site_fract_x
_atom_site_fract_y
_atom_site_fract_z
Dy11	Dy1	0.666670	0.333340	0.750000
Dy21	Dy2	0.333330	0.666660	0.750000
Dy31	Dy3	0.333330	0.666660	0.250000
Dy41	Dy4	0.666670	0.333340	0.250000
Co11	Co1	0.500000	0.500000	0.500000
Co21	Co2	0.000000	0.500000	0.500000
Co31	Co3	0.500000	0.000000	0.500000
Co41	Co4	0.000000	0.500000	0.000000
Co51	Co5	0.500000	0.500000	0.000000
Co61	Co6	0.500000	0.000000	0.000000
H11	H1	0.286700	0.233100	0.655000
H21	H2	0.347300	0.512900	0.544700
H31	H3	0.946400	0.713300	0.655000
H41	H4	0.165600	0.652700	0.544700
H51	H5	0.766900	0.053600	0.655000
H61	H6	0.487100	0.834400	0.544700
H71	H7	0.713300	0.766900	0.655000
H81	H8	0.652700	0.487100	0.544700
H91	H9	0.053600	0.286700	0.655000
H101	H10	0.834400	0.347300	0.544700
H111	H11	0.233100	0.946400	0.655000
H121	H12	0.512900	0.165600	0.544700
H131	H13	0.053600	0.766900	0.845000
H141	H14	0.834400	0.487100	0.955300
H151	H15	0.233100	0.286700	0.845000
H161	H16	0.512900	0.347300	0.955300
H171	H17	0.713300	0.946400	0.845000
H181	H18	0.652700	0.165600	0.955300
H191	H19	0.946400	0.233100	0.845000
H201	H20	0.165600	0.512900	0.955300
H211	H21	0.766900	0.713300	0.845000
H221	H22	0.487100	0.652700	0.955300
H231	H23	0.286700	0.053600	0.845000
H241	H24	0.347300	0.834400	0.955300
H251	H25	0.713300	0.766900	0.345000
H261	H26	0.652700	0.487100	0.455300
H271	H27	0.053600	0.286700	0.345000
H281	H28	0.834400	0.347300	0.455300
H291	H29	0.233100	0.946400	0.345000
H301	H30	0.512900	0.165600	0.455300
H311	H31	0.286700	0.233100	0.345000
H321	H32	0.347300	0.512900	0.455300
H331	H33	0.946400	0.713300	0.345000
H341	H34	0.165600	0.652700	0.455300
H351	H35	0.766900	0.053600	0.345000
H361	H36	0.487100	0.834400	0.455300
H371	H37	0.946400	0.233100	0.155000
H381	H38	0.165600	0.512900	0.044700
H391	H39	0.766900	0.713300	0.155000
H401	H40	0.487100	0.652700	0.044700
H411	H41	0.286700	0.053600	0.155000
H421	H42	0.347300	0.834400	0.044700
H431	H43	0.053600	0.766900	0.155000
H441	H44	0.834400	0.487100	0.044700
H451	H45	0.233100	0.286700	0.155000
H461	H46	0.512900	0.347300	0.044700
H471	H47	0.713300	0.946400	0.155000
H481	H48	0.652700	0.165600	0.044700
H491	H49	0.199300	0.099650	0.750000
H501	H50	0.900350	0.800700	0.750000
H511	H51	0.900350	0.099650	0.750000
H521	H52	0.800700	0.900350	0.750000
H531	H53	0.099650	0.199300	0.750000
H541	H54	0.099650	0.900350	0.750000
H551	H55	0.800700	0.900350	0.250000
H561	H56	0.099650	0.199300	0.250000
H571	H57	0.099650	0.900350	0.250000
H581	H58	0.199300	0.099650	0.250000
H591	H59	0.900350	0.800700	0.250000
H601	H60	0.900350	0.099650	0.250000
C11	C1	0.492400	0.354400	0.639200
C21	C2	0.426600	0.265100	0.696100
C31	C3	0.321400	0.214200	0.693600
C41	C4	0.862000	0.507600	0.639200
C51	C5	0.838500	0.573400	0.696100
C61	C6	0.892800	0.678600	0.693600
C71	C7	0.645600	0.138000	0.639200
C81	C8	0.734900	0.161500	0.696100
C91	C9	0.785800	0.107200	0.693600
C101	C10	0.507600	0.645600	0.639200
C111	C11	0.573400	0.734900	0.696100
C121	C12	0.678600	0.785800	0.693600
C131	C13	0.138000	0.492400	0.639200
C141	C14	0.161500	0.426600	0.696100
C151	C15	0.107200	0.321400	0.693600
C161	C16	0.354400	0.862000	0.639200
C171	C17	0.265100	0.838500	0.696100
C181	C18	0.214200	0.892800	0.693600
C191	C19	0.138000	0.645600	0.860800
C201	C20	0.161500	0.734900	0.803900
C211	C21	0.107200	0.785800	0.806400
C221	C22	0.354400	0.492400	0.860800
C231	C23	0.265100	0.426600	0.803900
C241	C24	0.214200	0.321400	0.806400
C251	C25	0.507600	0.862000	0.860800
C261	C26	0.573400	0.838500	0.803900
C271	C27	0.678600	0.892800	0.806400
C281	C28	0.862000	0.354400	0.860800
C291	C29	0.838500	0.265100	0.803900
C301	C30	0.892800	0.214200	0.806400
C311	C31	0.645600	0.507600	0.860800
C321	C32	0.734900	0.573400	0.803900
C331	C33	0.785800	0.678600	0.806400
C341	C34	0.492400	0.138000	0.860800
C351	C35	0.426600	0.161500	0.803900
C361	C36	0.321400	0.107200	0.806400
C371	C37	0.507600	0.645600	0.360800
C381	C38	0.573400	0.734900	0.303900
C391	C39	0.678600	0.785800	0.306400
C401	C40	0.138000	0.492400	0.360800
C411	C41	0.161500	0.426600	0.303900
C421	C42	0.107200	0.321400	0.306400
C431	C43	0.354400	0.862000	0.360800
C441	C44	0.265100	0.838500	0.303900
C451	C45	0.214200	0.892800	0.306400
C461	C46	0.492400	0.354400	0.360800
C471	C47	0.426600	0.265100	0.303900
C481	C48	0.321400	0.214200	0.306400
C491	C49	0.862000	0.507600	0.360800
C501	C50	0.838500	0.573400	0.303900
C511	C51	0.892800	0.678600	0.306400
C521	C52	0.645600	0.138000	0.360800
C531	C53	0.734900	0.161500	0.303900
C541	C54	0.785800	0.107200	0.306400
C551	C55	0.862000	0.354400	0.139200
C561	C56	0.838500	0.265100	0.196100
C571	C57	0.892800	0.214200	0.193600
C581	C58	0.645600	0.507600	0.139200
C591	C59	0.734900	0.573400	0.196100
C601	C60	0.785800	0.678600	0.193600
C611	C61	0.492400	0.138000	0.139200
C621	C62	0.426600	0.161500	0.196100
C631	C63	0.321400	0.107200	0.193600
C641	C64	0.138000	0.645600	0.139200
C651	C65	0.161500	0.734900	0.196100
C661	C66	0.107200	0.785800	0.193600
C671	C67	0.354400	0.492400	0.139200
C681	C68	0.265100	0.426600	0.196100
C691	C69	0.214200	0.321400	0.193600
C701	C70	0.507600	0.862000	0.139200
C711	C71	0.573400	0.838500	0.196100
C721	C72	0.678600	0.892800	0.193600
C731	C73	0.270200	0.135100	0.750000
C741	C74	0.864900	0.729800	0.750000
C751	C75	0.864900	0.135100	0.750000
C761	C76	0.729800	0.864900	0.750000
C771	C77	0.135100	0.270200	0.750000
C781	C78	0.135100	0.864900	0.750000
C791	C79	0.729800	0.864900	0.250000
C801	C80	0.135100	0.270200	0.250000
C811	C81	0.135100	0.864900	0.250000
C821	C82	0.270200	0.135100	0.250000
C831	C83	0.864900	0.729800	0.250000
C841	C84	0.864900	0.135100	0.250000
N11	N1	0.478100	0.239050	0.750000
N21	N2	0.760950	0.521900	0.750000
N31	N3	0.760950	0.239050	0.750000
N41	N4	0.521900	0.760950	0.750000
N51	N5	0.239050	0.478100	0.750000
N61	N6	0.239050	0.760950	0.750000
N71	N7	0.521900	0.760950	0.250000
N81	N8	0.239050	0.478100	0.250000
N91	N9	0.239050	0.760950	0.250000
N101	N10	0.478100	0.239050	0.250000
N111	N11	0.760950	0.521900	0.250000
N121	N12	0.760950	0.239050	0.250000
O11	O1	0.587700	0.388900	0.643600
O21	O2	0.448400	0.386900	0.592000
O31	O3	0.801200	0.412300	0.643600
O41	O4	0.938500	0.551600	0.592000
O51	O5	0.611100	0.198800	0.643600
O61	O6	0.613100	0.061500	0.592000
O71	O7	0.412300	0.611100	0.643600
O81	O8	0.551600	0.613100	0.592000
O91	O9	0.198800	0.587700	0.643600
O101	O10	0.061500	0.448400	0.592000
O111	O11	0.388900	0.801200	0.643600
O121	O12	0.386900	0.938500	0.592000
O131	O13	0.198800	0.611100	0.856400
O141	O14	0.061500	0.613100	0.908000
O151	O15	0.388900	0.587700	0.856400
O161	O16	0.386900	0.448400	0.908000
O171	O17	0.412300	0.801200	0.856400
O181	O18	0.551600	0.938500	0.908000
O191	O19	0.801200	0.388900	0.856400
O201	O20	0.938500	0.386900	0.908000
O211	O21	0.611100	0.412300	0.856400
O221	O22	0.613100	0.551600	0.908000
O231	O23	0.587700	0.198800	0.856400
O241	O24	0.448400	0.061500	0.908000
O251	O25	0.412300	0.611100	0.356400
O261	O26	0.551600	0.613100	0.408000
O271	O27	0.198800	0.587700	0.356400
O281	O28	0.061500	0.448400	0.408000
O291	O29	0.388900	0.801200	0.356400
O301	O30	0.386900	0.938500	0.408000
O311	O31	0.587700	0.388900	0.356400
O321	O32	0.448400	0.386900	0.408000
O331	O33	0.801200	0.412300	0.356400
O341	O34	0.938500	0.551600	0.408000
O351	O35	0.611100	0.198800	0.356400
O361	O36	0.613100	0.061500	0.408000
O371	O37	0.801200	0.388900	0.143600
O381	O38	0.938500	0.386900	0.092000
O391	O39	0.611100	0.412300	0.143600
O401	O40	0.613100	0.551600	0.092000
O411	O41	0.587700	0.198800	0.143600
O421	O42	0.448400	0.061500	0.092000
O431	O43	0.198800	0.611100	0.143600
O441	O44	0.061500	0.613100	0.092000
O451	O45	0.388900	0.587700	0.143600
O461	O46	0.386900	0.448400	0.092000
O471	O47	0.412300	0.801200	0.143600
O481	O48	0.551600	0.938500	0.092000
O491	O49	0.351200	0.485800	0.500000
O501	O50	0.134600	0.648800	0.500000
O511	O51	0.514200	0.865400	0.500000
O521	O52	0.648800	0.514200	0.500000
O531	O53	0.865400	0.351200	0.500000
O541	O54	0.485800	0.134600	0.500000
O551	O55	0.865400	0.514200	0.000000
O561	O56	0.485800	0.351200	0.000000
O571	O57	0.648800	0.134600	0.000000
O581	O58	0.134600	0.485800	0.000000
O591	O59	0.514200	0.648800	0.000000
O601	O60	0.351200	0.865400	0.000000
