data_TAPHOJ_freeONLY_PM
_symmetry_space_group_name_H-M	'P1'
_cell_length_a	9.856100
_cell_length_b	11.953800
_cell_length_c	22.846300
_cell_angle_alpha	90.000000
_cell_angle_beta	95.506000
_cell_angle_gamma	90.000000
_symmetry_Int_Tables_number 1

loop_
_symmetry_equiv_pos_as_xyz
'x,y,z'

loop_
_atom_site_label
_atom_site_type_symbol
_atom_site_fract_x
_atom_site_fract_y
_atom_site_fract_z
Zn11	Zn1	0.734650	0.219900	0.963340
Zn21	Zn2	0.234650	0.280100	0.463350
H11	H1	0.406000	0.548000	0.742600
H21	H2	0.576600	0.988700	0.785500
H31	H3	0.591300	0.143200	0.846500
H41	H4	0.870800	0.997000	0.955300
H51	H5	0.862800	0.838000	0.897100
H61	H6	0.749900	0.728400	0.819100
H71	H7	0.776800	0.806500	0.764600
H81	H8	0.648000	0.728000	0.689600
H91	H9	0.636000	0.621900	0.731600
H101	H10	0.407500	0.735800	0.672500
H111	H11	0.463400	0.617100	0.652400
H121	H12	0.544500	0.644700	0.825400
H131	H13	0.488400	0.764500	0.843300
H141	H14	0.307100	0.751800	0.768400
H151	H15	0.304800	0.644200	0.810200
H161	H16	0.186500	0.527900	0.731700
H171	H17	0.175000	0.640200	0.693500
H181	H18	0.114300	0.609100	0.594900
H191	H19	0.121600	0.504800	0.509500
H201	H20	0.357400	0.376600	0.680400
H211	H21	0.431800	0.483400	0.080300
H221	H22	0.284400	0.234900	0.971100
H231	H23	0.024800	0.429800	0.053100
H241	H24	0.354800	0.278500	0.593200
H251	H25	0.906000	0.952000	0.242600
H261	H26	0.076600	0.511300	0.285500
H271	H27	0.091300	0.356800	0.346500
H281	H28	0.370800	0.503000	0.455300
H291	H29	0.362800	0.662000	0.397100
H301	H30	0.249900	0.771600	0.319100
H311	H31	0.276800	0.693500	0.264600
H321	H32	0.148000	0.772000	0.189600
H331	H33	0.136000	0.878100	0.231600
H341	H34	0.907500	0.764200	0.172500
H351	H35	0.963400	0.882900	0.152400
H361	H36	0.044500	0.855300	0.325400
H371	H37	0.988400	0.735500	0.343300
H381	H38	0.807100	0.748200	0.268400
H391	H39	0.804800	0.855800	0.310200
H401	H40	0.686500	0.972100	0.231700
H411	H41	0.675000	0.859800	0.193500
H421	H42	0.614300	0.890900	0.094900
H431	H43	0.621600	0.995200	0.009500
H441	H44	0.857400	0.123400	0.180400
H451	H45	0.931800	0.016600	0.580300
H461	H46	0.784400	0.265100	0.471100
H471	H47	0.524800	0.070200	0.553100
H481	H48	0.854800	0.221500	0.093200
C11	C1	0.637400	0.987900	0.820400
C21	C2	0.646700	0.080000	0.857110
C31	C3	0.809500	0.995000	0.920590
C41	C4	0.805300	0.899800	0.885910
C51	C5	0.716900	0.894600	0.834630
C61	C6	0.714800	0.793600	0.795550
C71	C7	0.590800	0.692200	0.717610
C81	C8	0.453300	0.665900	0.686770
C91	C9	0.497600	0.713300	0.809850
C101	C10	0.357000	0.682900	0.781280
C111	C11	0.231200	0.572600	0.702570
C121	C12	0.235900	0.504800	0.647280
C131	C13	0.165200	0.541500	0.595650
C141	C14	0.169700	0.478200	0.544790
C151	C15	0.307700	0.404700	0.645860
C161	C16	0.224800	0.468300	0.072580
C171	C17	0.357200	0.442400	0.061690
C181	C18	0.379600	0.355300	0.022940
C191	C19	0.523900	0.325800	0.012260
C201	C20	0.269200	0.295000	0.996840
C211	C21	0.137400	0.321700	0.008020
C221	C22	0.016900	0.253200	0.982500
C231	C23	0.115000	0.410000	0.045820
C241	C24	0.305700	0.346800	0.593590
C251	C25	0.137400	0.512100	0.320400
C261	C26	0.146700	0.420000	0.357110
C271	C27	0.309500	0.505000	0.420590
C281	C28	0.305300	0.600200	0.385910
C291	C29	0.216900	0.605400	0.334630
C301	C30	0.214800	0.706400	0.295550
C311	C31	0.090800	0.807800	0.217610
C321	C32	0.953300	0.834100	0.186770
C331	C33	0.997600	0.786700	0.309850
C341	C34	0.857000	0.817100	0.281280
C351	C35	0.731200	0.927400	0.202570
C361	C36	0.735900	0.995200	0.147280
C371	C37	0.665200	0.958500	0.095650
C381	C38	0.669700	0.021800	0.044790
C391	C39	0.807700	0.095300	0.145860
C401	C40	0.724800	0.031700	0.572580
C411	C41	0.857200	0.057600	0.561690
C421	C42	0.879600	0.144700	0.522940
C431	C43	0.023900	0.174200	0.512260
C441	C44	0.769200	0.205000	0.496840
C451	C45	0.637400	0.178300	0.508020
C461	C46	0.516900	0.246800	0.482500
C471	C47	0.615000	0.090000	0.545820
C481	C48	0.805700	0.153200	0.093590
S11	S1	0.194250	0.569610	0.126730
S21	S2	0.694250	0.930390	0.626730
N11	N1	0.730100	0.084600	0.907000
N21	N2	0.579200	0.767100	0.767700
N31	N3	0.369400	0.607800	0.729070
N41	N4	0.237400	0.382600	0.542930
N51	N5	0.230100	0.415400	0.407000
N61	N6	0.079200	0.732900	0.267700
N71	N7	0.869400	0.892200	0.229070
N81	N8	0.737400	0.117400	0.042930
O11	O1	0.901400	0.293280	0.993190
O21	O2	0.036500	0.165950	0.956030
O31	O3	0.538400	0.261130	0.967910
O41	O4	0.620200	0.362810	0.044920
O51	O5	0.278900	0.667210	0.116180
O61	O6	0.049500	0.591980	0.120910
O71	O7	0.240700	0.516650	0.182810
O81	O8	0.401400	0.206720	0.493190
O91	O9	0.536500	0.334050	0.456030
O101	O10	0.038400	0.238870	0.467910
O111	O11	0.120200	0.137190	0.544920
O121	O12	0.778900	0.832790	0.616180
O131	O13	0.549500	0.908020	0.620910
O141	O14	0.740700	0.983350	0.682810
Zn31	Zn3	0.765350	0.719900	0.536660
Zn41	Zn4	0.265350	0.780100	0.036660
H491	H49	0.094000	0.048000	0.757400
H501	H50	0.923400	0.488700	0.714500
H511	H51	0.908700	0.643200	0.653500
H521	H52	0.629200	0.497000	0.544700
H531	H53	0.637200	0.338000	0.602900
H541	H54	0.750100	0.228400	0.680900
H551	H55	0.723200	0.306500	0.735400
H561	H56	0.852000	0.228000	0.810400
H571	H57	0.864000	0.121900	0.768400
H581	H58	0.092500	0.235800	0.827500
H591	H59	0.036600	0.117100	0.847600
H601	H60	0.955500	0.144700	0.674600
H611	H61	0.011600	0.264500	0.656700
H621	H62	0.192900	0.251800	0.731600
H631	H63	0.195200	0.144200	0.689800
H641	H64	0.313500	0.027900	0.768300
H651	H65	0.325000	0.140200	0.806500
H661	H66	0.385700	0.109100	0.905100
H671	H67	0.378400	0.004800	0.990500
H681	H68	0.142600	0.876600	0.819600
H691	H69	0.068200	0.983400	0.419700
H701	H70	0.215600	0.734900	0.528900
H711	H71	0.475200	0.929800	0.446900
H721	H72	0.145200	0.778500	0.906800
H731	H73	0.594000	0.452000	0.257400
H741	H74	0.423400	0.011300	0.214500
H751	H75	0.408700	0.856800	0.153500
H761	H76	0.129200	0.003000	0.044700
H771	H77	0.137200	0.162000	0.102900
H781	H78	0.250100	0.271600	0.180900
H791	H79	0.223200	0.193500	0.235400
H801	H80	0.352000	0.272000	0.310400
H811	H81	0.364000	0.378100	0.268400
H821	H82	0.592500	0.264200	0.327500
H831	H83	0.536600	0.382900	0.347600
H841	H84	0.455500	0.355300	0.174600
H851	H85	0.511600	0.235500	0.156700
H861	H86	0.692900	0.248200	0.231600
H871	H87	0.695200	0.355800	0.189800
H881	H88	0.813500	0.472100	0.268300
H891	H89	0.825000	0.359800	0.306500
H901	H90	0.885700	0.390900	0.405100
H911	H91	0.878400	0.495200	0.490500
H921	H92	0.642600	0.623400	0.319600
H931	H93	0.568200	0.516600	0.919700
H941	H94	0.715600	0.765100	0.028900
H951	H95	0.975200	0.570200	0.946900
H961	H96	0.645200	0.721500	0.406800
C491	C49	0.862600	0.487900	0.679600
C501	C50	0.853300	0.580000	0.642890
C511	C51	0.690500	0.495000	0.579410
C521	C52	0.694700	0.399800	0.614090
C531	C53	0.783100	0.394600	0.665370
C541	C54	0.785200	0.293600	0.704450
C551	C55	0.909200	0.192200	0.782390
C561	C56	0.046700	0.165900	0.813230
C571	C57	0.002400	0.213300	0.690150
C581	C58	0.143000	0.182900	0.718720
C591	C59	0.268800	0.072600	0.797430
C601	C60	0.264100	0.004800	0.852720
C611	C61	0.334800	0.041500	0.904350
C621	C62	0.330300	0.978200	0.955210
C631	C63	0.192300	0.904700	0.854140
C641	C64	0.275200	0.968300	0.427420
C651	C65	0.142800	0.942400	0.438310
C661	C66	0.120400	0.855300	0.477060
C671	C67	0.976100	0.825800	0.487740
C681	C68	0.230800	0.795000	0.503160
C691	C69	0.362600	0.821700	0.491980
C701	C70	0.483100	0.753200	0.517500
C711	C71	0.385000	0.910000	0.454180
C721	C72	0.194300	0.846800	0.906410
C731	C73	0.362600	0.012100	0.179600
C741	C74	0.353300	0.920000	0.142890
C751	C75	0.190500	0.005000	0.079410
C761	C76	0.194700	0.100200	0.114090
C771	C77	0.283100	0.105400	0.165370
C781	C78	0.285200	0.206400	0.204450
C791	C79	0.409200	0.307800	0.282390
C801	C80	0.546700	0.334100	0.313230
C811	C81	0.502400	0.286700	0.190150
C821	C82	0.643000	0.317100	0.218720
C831	C83	0.768800	0.427400	0.297430
C841	C84	0.764100	0.495200	0.352720
C851	C85	0.834800	0.458500	0.404350
C861	C86	0.830300	0.521800	0.455210
C871	C87	0.692300	0.595300	0.354140
C881	C88	0.775200	0.531700	0.927420
C891	C89	0.642800	0.557600	0.938310
C901	C90	0.620400	0.644700	0.977060
C911	C91	0.476100	0.674200	0.987740
C921	C92	0.730800	0.705000	0.003160
C931	C93	0.862600	0.678300	0.991980
C941	C94	0.983100	0.746800	0.017500
C951	C95	0.885000	0.590000	0.954180
C961	C96	0.694300	0.653200	0.406410
S31	S3	0.305750	0.069610	0.373270
S41	S4	0.805750	0.430390	0.873270
N91	N9	0.769900	0.584600	0.593000
N101	N10	0.920800	0.267100	0.732300
N111	N11	0.130600	0.107800	0.770930
N121	N12	0.262600	0.882600	0.957070
N131	N13	0.269900	0.915400	0.093000
N141	N14	0.420800	0.232900	0.232300
N151	N15	0.630600	0.392200	0.270930
N161	N16	0.762600	0.617400	0.457070
O151	O15	0.598600	0.793280	0.506810
O161	O16	0.463500	0.665950	0.543970
O171	O17	0.961600	0.761130	0.532090
O181	O18	0.879800	0.862810	0.455080
O191	O19	0.221100	0.167210	0.383820
O201	O20	0.450500	0.091980	0.379090
O211	O21	0.259300	0.016650	0.317190
O221	O22	0.098600	0.706720	0.006810
O231	O23	0.963500	0.834050	0.043970
O241	O24	0.461600	0.738870	0.032090
O251	O25	0.379800	0.637190	0.955080
O261	O26	0.721100	0.332790	0.883820
O271	O27	0.950500	0.408020	0.879090
O281	O28	0.759300	0.483350	0.817190
