data_TAPXIT01_freeONLY_PM
_symmetry_space_group_name_H-M	'P1'
_cell_length_a	7.178200
_cell_length_b	15.444100
_cell_length_c	15.444100
_cell_angle_alpha	119.448000
_cell_angle_beta	90.000000
_cell_angle_gamma	90.000000
_symmetry_Int_Tables_number 1

loop_
_symmetry_equiv_pos_as_xyz
'x,y,z'

loop_
_atom_site_label
_atom_site_type_symbol
_atom_site_fract_x
_atom_site_fract_y
_atom_site_fract_z
Yb11	Yb1	0.768600	0.366400	0.366400
Yb21	Yb2	0.268600	0.633600	0.633600
Na11	Na1	0.774800	0.679500	0.679500
Na21	Na2	0.274800	0.320500	0.320500
H11	H1	0.813800	0.310700	0.024300
H21	H2	0.291700	0.305300	0.110700
H31	H3	0.704100	0.301300	0.880300
H41	H4	0.168800	0.299200	0.966400
H51	H5	0.457300	0.194300	0.635100
H61	H6	0.424500	0.472700	0.890900
H71	H7	0.538200	0.276300	0.549300
H81	H8	0.517600	0.542300	0.791700
H91	H9	0.313800	0.689300	0.975700
H101	H10	0.791700	0.694700	0.889300
H111	H11	0.204100	0.698700	0.119700
H121	H12	0.668800	0.700800	0.033600
H131	H13	0.957300	0.805700	0.364900
H141	H14	0.924500	0.527300	0.109100
H151	H15	0.038200	0.723700	0.450700
H161	H16	0.017600	0.457700	0.208300
H171	H17	0.313800	0.975700	0.689300
H181	H18	0.791700	0.889300	0.694700
H191	H19	0.204100	0.119700	0.698700
H201	H20	0.668800	0.033600	0.700800
H211	H21	0.957300	0.364900	0.805700
H221	H22	0.924500	0.109100	0.527300
H231	H23	0.038200	0.450700	0.723700
H241	H24	0.017600	0.208300	0.457700
H251	H25	0.813800	0.024300	0.310700
H261	H26	0.291700	0.110700	0.305300
H271	H27	0.704100	0.880300	0.301300
H281	H28	0.168800	0.966400	0.299200
H291	H29	0.457300	0.635100	0.194300
H301	H30	0.424500	0.890900	0.472700
H311	H31	0.538200	0.549300	0.276300
H321	H32	0.517600	0.791700	0.542300
C11	C1	0.633900	0.318700	0.176700
C21	C2	0.566300	0.313200	0.087400
C31	C3	0.685900	0.309100	0.014100
C41	C4	0.374000	0.306400	0.064800
C51	C5	0.621000	0.303000	0.927400
C61	C6	0.296000	0.301300	0.978100
C71	C7	0.432000	0.299500	0.911700
C81	C8	0.446000	0.325200	0.768800
C91	C9	0.470900	0.262900	0.666500
C101	C10	0.452000	0.434300	0.823500
C111	C11	0.517000	0.312700	0.617500
C121	C12	0.504000	0.473700	0.763300
C131	C13	0.535000	0.415800	0.664800
C141	C14	0.590700	0.463900	0.600900
C151	C15	0.133900	0.681300	0.823300
C161	C16	0.066300	0.686800	0.912600
C171	C17	0.185900	0.690900	0.985900
C181	C18	0.874000	0.693600	0.935200
C191	C19	0.121000	0.697000	0.072600
C201	C20	0.796000	0.698700	0.021900
C211	C21	0.932000	0.700500	0.088300
C221	C22	0.946000	0.674800	0.231200
C231	C23	0.970900	0.737100	0.333500
C241	C24	0.952000	0.565700	0.176500
C251	C25	0.017000	0.687300	0.382500
C261	C26	0.004000	0.526300	0.236700
C271	C27	0.035000	0.584200	0.335200
C281	C28	0.090700	0.536100	0.399100
C291	C29	0.133900	0.823300	0.681300
C301	C30	0.066300	0.912600	0.686800
C311	C31	0.185900	0.985900	0.690900
C321	C32	0.874000	0.935200	0.693600
C331	C33	0.121000	0.072600	0.697000
C341	C34	0.796000	0.021900	0.698700
C351	C35	0.932000	0.088300	0.700500
C361	C36	0.946000	0.231200	0.674800
C371	C37	0.970900	0.333500	0.737100
C381	C38	0.952000	0.176500	0.565700
C391	C39	0.017000	0.382500	0.687300
C401	C40	0.004000	0.236700	0.526300
C411	C41	0.035000	0.335200	0.584200
C421	C42	0.090700	0.399100	0.536100
C431	C43	0.633900	0.176700	0.318700
C441	C44	0.566300	0.087400	0.313200
C451	C45	0.685900	0.014100	0.309100
C461	C46	0.374000	0.064800	0.306400
C471	C47	0.621000	0.927400	0.303000
C481	C48	0.296000	0.978100	0.301300
C491	C49	0.432000	0.911700	0.299500
C501	C50	0.446000	0.768800	0.325200
C511	C51	0.470900	0.666500	0.262900
C521	C52	0.452000	0.823500	0.434300
C531	C53	0.517000	0.617500	0.312700
C541	C54	0.504000	0.763300	0.473700
C551	C55	0.535000	0.664800	0.415800
C561	C56	0.590700	0.600900	0.463900
O11	O1	0.775000	0.312000	0.191400
O21	O2	0.529200	0.334100	0.247700
O31	O3	0.351800	0.279300	0.818500
O41	O4	0.668600	0.413500	0.520900
O51	O5	0.546200	0.560600	0.640600
O61	O6	0.275000	0.688000	0.808600
O71	O7	0.029200	0.665900	0.752300
O81	O8	0.851800	0.720700	0.181500
O91	O9	0.168600	0.586500	0.479100
O101	O10	0.046200	0.439400	0.359400
O111	O11	0.275000	0.808600	0.688000
O121	O12	0.029200	0.752300	0.665900
O131	O13	0.851800	0.181500	0.720700
O141	O14	0.168600	0.479100	0.586500
O151	O15	0.046200	0.359400	0.439400
O161	O16	0.775000	0.191400	0.312000
O171	O17	0.529200	0.247700	0.334100
O181	O18	0.351800	0.818500	0.279300
O191	O19	0.668600	0.520900	0.413500
O201	O20	0.546200	0.640600	0.560600
