data_TASXIW_freeONLY_PM
_symmetry_space_group_name_H-M	'P1'
_cell_length_a	13.951700
_cell_length_b	16.547400
_cell_length_c	16.547400
_cell_angle_alpha	103.395000
_cell_angle_beta	110.009000
_cell_angle_gamma	110.009000
_symmetry_Int_Tables_number 1

loop_
_symmetry_equiv_pos_as_xyz
'x,y,z'

loop_
_atom_site_label
_atom_site_type_symbol
_atom_site_fract_x
_atom_site_fract_y
_atom_site_fract_z
Zn11	Zn1	0.287750	0.347550	0.205730
Zn21	Zn2	0.539220	0.359320	0.278620
Zn31	Zn3	0.212250	0.794270	0.652450
Zn41	Zn4	0.960780	0.721380	0.640680
Zn51	Zn5	0.712250	0.652450	0.794270
Zn61	Zn6	0.460780	0.640680	0.721380
Zn71	Zn7	0.787750	0.205730	0.347550
Zn81	Zn8	0.039220	0.278620	0.359320
H11	H1	0.654400	0.505900	0.116100
H21	H2	0.133400	0.057200	0.036400
H31	H3	0.363100	0.482000	0.553200
H41	H4	0.055400	0.349000	0.155400
H51	H5	0.864600	0.258200	0.037200
H61	H6	0.978900	0.125200	0.880800
H71	H7	0.156900	0.217100	0.000900
H81	H8	0.278100	0.393300	0.017100
H91	H9	0.507100	0.157500	0.130900
H101	H10	0.845600	0.883900	0.494100
H111	H11	0.366600	0.963600	0.942800
H121	H12	0.136900	0.446800	0.518000
H131	H13	0.444600	0.844600	0.651000
H141	H14	0.635400	0.962800	0.741800
H151	H15	0.521100	0.119200	0.874800
H161	H16	0.343100	0.999100	0.782900
H171	H17	0.221900	0.982900	0.606700
H181	H18	0.992900	0.869100	0.842500
H191	H19	0.345600	0.494100	0.883900
H201	H20	0.866600	0.942800	0.963600
H211	H21	0.636900	0.518000	0.446800
H221	H22	0.944600	0.651000	0.844600
H231	H23	0.135400	0.741800	0.962800
H241	H24	0.021100	0.874800	0.119200
H251	H25	0.843100	0.782900	0.999100
H261	H26	0.721900	0.606700	0.982900
H271	H27	0.492900	0.842500	0.869100
H281	H28	0.154400	0.116100	0.505900
H291	H29	0.633400	0.036400	0.057200
H301	H30	0.863100	0.553200	0.482000
H311	H31	0.555400	0.155400	0.349000
H321	H32	0.364600	0.037200	0.258200
H331	H33	0.478900	0.880800	0.125200
H341	H34	0.656900	0.000900	0.217100
H351	H35	0.778100	0.017100	0.393300
H361	H36	0.007100	0.130900	0.157500
C11	C1	0.463500	0.417300	0.128500
C21	C2	0.481900	0.460300	0.062300
C31	C3	0.590800	0.503900	0.068100
C41	C4	0.391200	0.457500	0.990300
C51	C5	0.346800	0.184200	0.147400
C61	C6	0.300700	0.092900	0.067100
C71	C7	0.181000	0.038900	0.015100
C81	C8	0.368800	0.064000	0.038200
C91	C9	0.257700	0.370900	0.378100
C101	C10	0.384700	0.438300	0.438300
C111	C11	0.468200	0.445400	0.404400
C121	C12	0.420000	0.490900	0.532300
C131	C13	0.038300	0.301800	0.099800
C141	C14	0.925300	0.248900	0.030300
C151	C15	0.905500	0.182000	0.950400
C161	C16	0.992100	0.169300	0.936700
C171	C17	0.095500	0.224200	0.008800
C181	C18	0.036500	0.871500	0.582700
C191	C19	0.018100	0.937700	0.539700
C201	C20	0.909200	0.931900	0.496100
C211	C21	0.108800	0.009700	0.542500
C221	C22	0.153200	0.852600	0.815800
C231	C23	0.199300	0.932900	0.907100
C241	C24	0.319000	0.984900	0.961100
C251	C25	0.131200	0.961800	0.936000
C261	C26	0.242300	0.621900	0.629100
C271	C27	0.115300	0.561700	0.561700
C281	C28	0.031800	0.595600	0.554600
C291	C29	0.080000	0.467700	0.509100
C301	C30	0.461700	0.900200	0.698200
C311	C31	0.574700	0.969700	0.751100
C321	C32	0.594500	0.049600	0.818000
C331	C33	0.507900	0.063300	0.830700
C341	C34	0.404500	0.991200	0.775800
C351	C35	0.536500	0.582700	0.871500
C361	C36	0.518100	0.539700	0.937700
C371	C37	0.409200	0.496100	0.931900
C381	C38	0.608800	0.542500	0.009700
C391	C39	0.653200	0.815800	0.852600
C401	C40	0.699300	0.907100	0.932900
C411	C41	0.819000	0.961100	0.984900
C421	C42	0.631200	0.936000	0.961800
C431	C43	0.742300	0.629100	0.621900
C441	C44	0.615300	0.561700	0.561700
C451	C45	0.531800	0.554600	0.595600
C461	C46	0.580000	0.509100	0.467700
C471	C47	0.961700	0.698200	0.900200
C481	C48	0.074700	0.751100	0.969700
C491	C49	0.094500	0.818000	0.049600
C501	C50	0.007900	0.830700	0.063300
C511	C51	0.904500	0.775800	0.991200
C521	C52	0.963500	0.128500	0.417300
C531	C53	0.981900	0.062300	0.460300
C541	C54	0.090800	0.068100	0.503900
C551	C55	0.891200	0.990300	0.457500
C561	C56	0.846800	0.147400	0.184200
C571	C57	0.800700	0.067100	0.092900
C581	C58	0.681000	0.015100	0.038900
C591	C59	0.868800	0.038200	0.064000
C601	C60	0.757700	0.378100	0.370900
C611	C61	0.884700	0.438300	0.438300
C621	C62	0.968200	0.404400	0.445400
C631	C63	0.920000	0.532300	0.490900
C641	C64	0.538300	0.099800	0.301800
C651	C65	0.425300	0.030300	0.248900
C661	C66	0.405500	0.950400	0.182000
C671	C67	0.492100	0.936700	0.169300
C681	C68	0.595500	0.008800	0.224200
N11	N1	0.125400	0.287900	0.090700
N21	N2	0.784600	0.111300	0.875100
N31	N3	0.374600	0.909300	0.712100
N41	N4	0.715400	0.124900	0.888700
N51	N5	0.874600	0.712100	0.909300
N61	N6	0.215400	0.888700	0.124900
N71	N7	0.625400	0.090700	0.287900
N81	N8	0.284600	0.875100	0.111300
O11	O1	0.365200	0.378200	0.118800
O21	O2	0.548100	0.421900	0.190100
O31	O3	0.280000	0.415400	0.976400
O41	O4	0.282400	0.211900	0.163500
O51	O5	0.458400	0.229900	0.193100
O61	O6	0.485300	0.109500	0.084500
O71	O7	0.440300	0.395200	0.317200
O81	O8	0.217600	0.327300	0.292500
O91	O9	0.198200	0.362400	0.421000
O101	O10	0.299000	0.485900	0.236700
O111	O11	0.134800	0.881200	0.621800
O121	O12	0.951900	0.809900	0.578100
O131	O13	0.220000	0.023600	0.584600
O141	O14	0.217600	0.836500	0.788100
O151	O15	0.041600	0.806900	0.770100
O161	O16	0.014700	0.915500	0.890500
O171	O17	0.059700	0.682800	0.604800
O181	O18	0.282400	0.707500	0.672700
O191	O19	0.301800	0.579000	0.637600
O201	O20	0.201000	0.763300	0.514100
O211	O21	0.634800	0.621800	0.881200
O221	O22	0.451900	0.578100	0.809900
O231	O23	0.720000	0.584600	0.023600
O241	O24	0.717600	0.788100	0.836500
O251	O25	0.541600	0.770100	0.806900
O261	O26	0.514700	0.890500	0.915500
O271	O27	0.559700	0.604800	0.682800
O281	O28	0.782400	0.672700	0.707500
O291	O29	0.801800	0.637600	0.579000
O301	O30	0.701000	0.514100	0.763300
O311	O31	0.865200	0.118800	0.378200
O321	O32	0.048100	0.190100	0.421900
O331	O33	0.780000	0.976400	0.415400
O341	O34	0.782400	0.163500	0.211900
O351	O35	0.958400	0.193100	0.229900
O361	O36	0.985300	0.084500	0.109500
O371	O37	0.940300	0.317200	0.395200
O381	O38	0.717600	0.292500	0.327300
O391	O39	0.698200	0.421000	0.362400
O401	O40	0.799000	0.236700	0.485900
