data_TATPOV_freeONLY_PM
_symmetry_space_group_name_H-M	'P1'
_cell_length_a	10.523600
_cell_length_b	25.768000
_cell_length_c	25.950700
_cell_angle_alpha	90.000000
_cell_angle_beta	90.000000
_cell_angle_gamma	90.000000
_symmetry_Int_Tables_number 1

loop_
_symmetry_equiv_pos_as_xyz
'x,y,z'

loop_
_atom_site_label
_atom_site_type_symbol
_atom_site_fract_x
_atom_site_fract_y
_atom_site_fract_z
Zn11	Zn1	0.437840	0.421530	0.131480
Zn21	Zn2	0.201210	0.503890	0.111230
Zn31	Zn3	0.937840	0.578470	0.368520
Zn41	Zn4	0.701210	0.496110	0.388770
Zn51	Zn5	0.562160	0.921530	0.868520
Zn61	Zn6	0.798790	0.003890	0.888770
Zn71	Zn7	0.062160	0.078470	0.631480
Zn81	Zn8	0.298790	0.996110	0.611230
Zn91	Zn9	0.562160	0.578470	0.868520
Zn101	Zn10	0.798790	0.496110	0.888770
Zn111	Zn11	0.062160	0.421530	0.631480
Zn121	Zn12	0.298790	0.503890	0.611230
Zn131	Zn13	0.437840	0.078470	0.131480
Zn141	Zn14	0.201210	0.996110	0.111230
Zn151	Zn15	0.937840	0.921530	0.368520
Zn161	Zn16	0.701210	0.003890	0.388770
H11	H1	0.500800	0.624500	0.131500
H21	H2	0.718600	0.665300	0.254000
H31	H3	0.539700	0.526700	0.252300
H41	H4	0.871600	0.543500	0.008600
H51	H5	0.870800	0.633300	0.136300
H61	H6	0.619000	0.661500	0.021500
H71	H7	0.000800	0.375500	0.368500
H81	H8	0.218600	0.334700	0.246000
H91	H9	0.039700	0.473300	0.247700
H101	H10	0.371600	0.456500	0.491400
H111	H11	0.370800	0.366700	0.363700
H121	H12	0.119000	0.338500	0.478500
H131	H13	0.499200	0.124500	0.868500
H141	H14	0.281400	0.165300	0.746000
H151	H15	0.460300	0.026700	0.747700
H161	H16	0.128400	0.043500	0.991400
H171	H17	0.129200	0.133300	0.863700
H181	H18	0.381000	0.161500	0.978500
H191	H19	0.999200	0.875500	0.631500
H201	H20	0.781400	0.834700	0.754000
H211	H21	0.960300	0.973300	0.752300
H221	H22	0.628400	0.956500	0.508600
H231	H23	0.629200	0.866700	0.636300
H241	H24	0.881000	0.838500	0.521500
H251	H25	0.499200	0.375500	0.868500
H261	H26	0.281400	0.334700	0.746000
H271	H27	0.460300	0.473300	0.747700
H281	H28	0.128400	0.456500	0.991400
H291	H29	0.129200	0.366700	0.863700
H301	H30	0.381000	0.338500	0.978500
H311	H31	0.999200	0.624500	0.631500
H321	H32	0.781400	0.665300	0.754000
H331	H33	0.960300	0.526700	0.752300
H341	H34	0.628400	0.543500	0.508600
H351	H35	0.629200	0.633300	0.636300
H361	H36	0.881000	0.661500	0.521500
H371	H37	0.500800	0.875500	0.131500
H381	H38	0.718600	0.834700	0.254000
H391	H39	0.539700	0.973300	0.252300
H401	H40	0.871600	0.956500	0.008600
H411	H41	0.870800	0.866700	0.136300
H421	H42	0.619000	0.838500	0.021500
H431	H43	0.000800	0.124500	0.368500
H441	H44	0.218600	0.165300	0.246000
H451	H45	0.039700	0.026700	0.247700
H461	H46	0.371600	0.043500	0.491400
H471	H47	0.370800	0.133300	0.363700
H481	H48	0.119000	0.161500	0.478500
H491	H49	0.594000	0.750000	0.220500
H501	H50	0.744800	0.750000	0.052000
H511	H51	0.094000	0.250000	0.279500
H521	H52	0.244800	0.250000	0.448000
H531	H53	0.406000	0.250000	0.779500
H541	H54	0.255200	0.250000	0.948000
H551	H55	0.906000	0.750000	0.720500
H561	H56	0.755200	0.750000	0.552000
C11	C1	0.418800	0.532430	0.162610
C21	C2	0.505500	0.570440	0.188410
C31	C3	0.535200	0.616950	0.164510
C41	C4	0.615200	0.652820	0.188550
C51	C5	0.664200	0.641200	0.237200
C61	C6	0.557300	0.559120	0.236450
C71	C7	0.009700	0.559020	0.093510
C81	C8	0.891200	0.585990	0.074000
C91	C9	0.838800	0.572250	0.027290
C101	C10	0.838200	0.625950	0.102890
C111	C11	0.681800	0.586860	0.956480
C121	C12	0.736700	0.600950	0.007560
C131	C13	0.687700	0.642050	0.035310
C141	C14	0.737600	0.655530	0.083480
C151	C15	0.694700	0.702830	0.110890
C161	C16	0.646600	0.702640	0.161740
C171	C17	0.633900	0.594640	0.261140
C181	C18	0.689600	0.580170	0.312630
C191	C19	0.918800	0.467570	0.337390
C201	C20	0.005500	0.429560	0.311590
C211	C21	0.035200	0.383050	0.335490
C221	C22	0.115200	0.347180	0.311450
C231	C23	0.164200	0.358800	0.262800
C241	C24	0.057300	0.440880	0.263550
C251	C25	0.509700	0.440980	0.406490
C261	C26	0.391200	0.414010	0.426000
C271	C27	0.338800	0.427750	0.472710
C281	C28	0.338200	0.374050	0.397110
C291	C29	0.181800	0.413140	0.543520
C301	C30	0.236700	0.399050	0.492440
C311	C31	0.187700	0.357950	0.464690
C321	C32	0.237600	0.344470	0.416520
C331	C33	0.194700	0.297170	0.389110
C341	C34	0.146600	0.297360	0.338260
C351	C35	0.133900	0.405360	0.238860
C361	C36	0.189600	0.419830	0.187370
C371	C37	0.581200	0.032430	0.837390
C381	C38	0.494500	0.070440	0.811590
C391	C39	0.464800	0.116950	0.835490
C401	C40	0.384800	0.152820	0.811450
C411	C41	0.335800	0.141200	0.762800
C421	C42	0.442700	0.059120	0.763550
C431	C43	0.990300	0.059020	0.906490
C441	C44	0.108800	0.085990	0.926000
C451	C45	0.161200	0.072250	0.972710
C461	C46	0.161800	0.125950	0.897110
C471	C47	0.318200	0.086860	0.043520
C481	C48	0.263300	0.100950	0.992440
C491	C49	0.312300	0.142050	0.964690
C501	C50	0.262400	0.155530	0.916520
C511	C51	0.305300	0.202830	0.889110
C521	C52	0.353400	0.202640	0.838260
C531	C53	0.366100	0.094640	0.738860
C541	C54	0.310400	0.080170	0.687370
C551	C55	0.081200	0.967570	0.662610
C561	C56	0.994500	0.929560	0.688410
C571	C57	0.964800	0.883050	0.664510
C581	C58	0.884800	0.847180	0.688550
C591	C59	0.835800	0.858800	0.737200
C601	C60	0.942700	0.940880	0.736450
C611	C61	0.490300	0.940980	0.593510
C621	C62	0.608800	0.914010	0.574000
C631	C63	0.661200	0.927750	0.527290
C641	C64	0.661800	0.874050	0.602890
C651	C65	0.818200	0.913140	0.456480
C661	C66	0.763300	0.899050	0.507560
C671	C67	0.812300	0.857950	0.535310
C681	C68	0.762400	0.844470	0.583480
C691	C69	0.805300	0.797170	0.610890
C701	C70	0.853400	0.797360	0.661740
C711	C71	0.866100	0.905360	0.761140
C721	C72	0.810400	0.919830	0.812630
C731	C73	0.581200	0.467570	0.837390
C741	C74	0.494500	0.429560	0.811590
C751	C75	0.464800	0.383050	0.835490
C761	C76	0.384800	0.347180	0.811450
C771	C77	0.335800	0.358800	0.762800
C781	C78	0.442700	0.440880	0.763550
C791	C79	0.990300	0.440980	0.906490
C801	C80	0.108800	0.414010	0.926000
C811	C81	0.161200	0.427750	0.972710
C821	C82	0.161800	0.374050	0.897110
C831	C83	0.318200	0.413140	0.043520
C841	C84	0.263300	0.399050	0.992440
C851	C85	0.312300	0.357950	0.964690
C861	C86	0.262400	0.344470	0.916520
C871	C87	0.305300	0.297170	0.889110
C881	C88	0.353400	0.297360	0.838260
C891	C89	0.366100	0.405360	0.738860
C901	C90	0.310400	0.419830	0.687370
C911	C91	0.081200	0.532430	0.662610
C921	C92	0.994500	0.570440	0.688410
C931	C93	0.964800	0.616950	0.664510
C941	C94	0.884800	0.652820	0.688550
C951	C95	0.835800	0.641200	0.737200
C961	C96	0.942700	0.559120	0.736450
C971	C97	0.490300	0.559020	0.593510
C981	C98	0.608800	0.585990	0.574000
C991	C99	0.661200	0.572250	0.527290
C1001	C100	0.661800	0.625950	0.602890
C1011	C101	0.818200	0.586860	0.456480
C1021	C102	0.763300	0.600950	0.507560
C1031	C103	0.812300	0.642050	0.535310
C1041	C104	0.762400	0.655530	0.583480
C1051	C105	0.805300	0.702830	0.610890
C1061	C106	0.853400	0.702640	0.661740
C1071	C107	0.866100	0.594640	0.761140
C1081	C108	0.810400	0.580170	0.812630
C1091	C109	0.418800	0.967570	0.162610
C1101	C110	0.505500	0.929560	0.188410
C1111	C111	0.535200	0.883050	0.164510
C1121	C112	0.615200	0.847180	0.188550
C1131	C113	0.664200	0.858800	0.237200
C1141	C114	0.557300	0.940880	0.236450
C1151	C115	0.009700	0.940980	0.093510
C1161	C116	0.891200	0.914010	0.074000
C1171	C117	0.838800	0.927750	0.027290
C1181	C118	0.838200	0.874050	0.102890
C1191	C119	0.681800	0.913140	0.956480
C1201	C120	0.736700	0.899050	0.007560
C1211	C121	0.687700	0.857950	0.035310
C1221	C122	0.737600	0.844470	0.083480
C1231	C123	0.694700	0.797170	0.110890
C1241	C124	0.646600	0.797360	0.161740
C1251	C125	0.633900	0.905360	0.261140
C1261	C126	0.689600	0.919830	0.312630
C1271	C127	0.918800	0.032430	0.337390
C1281	C128	0.005500	0.070440	0.311590
C1291	C129	0.035200	0.116950	0.335490
C1301	C130	0.115200	0.152820	0.311450
C1311	C131	0.164200	0.141200	0.262800
C1321	C132	0.057300	0.059120	0.263550
C1331	C133	0.509700	0.059020	0.406490
C1341	C134	0.391200	0.085990	0.426000
C1351	C135	0.338800	0.072250	0.472710
C1361	C136	0.338200	0.125950	0.397110
C1371	C137	0.181800	0.086860	0.543520
C1381	C138	0.236700	0.100950	0.492440
C1391	C139	0.187700	0.142050	0.464690
C1401	C140	0.237600	0.155530	0.416520
C1411	C141	0.194700	0.202830	0.389110
C1421	C142	0.146600	0.202640	0.338260
C1431	C143	0.133900	0.094640	0.238860
C1441	C144	0.189600	0.080170	0.187370
C1451	C145	0.624800	0.750000	0.186070
C1461	C146	0.715400	0.750000	0.086570
C1471	C147	0.124800	0.250000	0.313930
C1481	C148	0.215400	0.250000	0.413430
C1491	C149	0.375200	0.250000	0.813930
C1501	C150	0.284600	0.250000	0.913430
C1511	C151	0.875200	0.750000	0.686070
C1521	C152	0.784600	0.750000	0.586570
O11	O1	0.049100	0.568490	0.137220
O21	O2	0.064000	0.527030	0.063990
O31	O3	0.342400	0.549930	0.129850
O41	O4	0.426300	0.485460	0.177040
O51	O5	0.705900	0.543520	0.936530
O61	O6	0.607300	0.618100	0.934490
O71	O7	0.639900	0.542530	0.335260
O81	O8	0.782400	0.607070	0.328960
O91	O9	0.565600	0.375130	0.163210
O101	O10	0.579100	0.464580	0.092500
O111	O11	0.549100	0.431510	0.362780
O121	O12	0.564000	0.472970	0.436010
O131	O13	0.842400	0.450070	0.370150
O141	O14	0.926300	0.514540	0.322960
O151	O15	0.205900	0.456480	0.563470
O161	O16	0.107300	0.381900	0.565510
O171	O17	0.139900	0.457470	0.164740
O181	O18	0.282400	0.392930	0.171040
O191	O19	0.065600	0.624870	0.336790
O201	O20	0.079100	0.535420	0.407500
O211	O21	0.950900	0.068490	0.862780
O221	O22	0.936000	0.027030	0.936010
O231	O23	0.657600	0.049930	0.870150
O241	O24	0.573700	0.985460	0.822960
O251	O25	0.294100	0.043520	0.063470
O261	O26	0.392700	0.118100	0.065510
O271	O27	0.360100	0.042530	0.664740
O281	O28	0.217600	0.107070	0.671040
O291	O29	0.434400	0.875130	0.836790
O301	O30	0.420900	0.964580	0.907500
O311	O31	0.450900	0.931510	0.637220
O321	O32	0.436000	0.972970	0.563990
O331	O33	0.157600	0.950070	0.629850
O341	O34	0.073700	0.014540	0.677040
O351	O35	0.794100	0.956480	0.436530
O361	O36	0.892700	0.881900	0.434490
O371	O37	0.860100	0.957470	0.835260
O381	O38	0.717600	0.892930	0.828960
O391	O39	0.934400	0.124870	0.663210
O401	O40	0.920900	0.035420	0.592500
O411	O41	0.950900	0.431510	0.862780
O421	O42	0.936000	0.472970	0.936010
O431	O43	0.657600	0.450070	0.870150
O441	O44	0.573700	0.514540	0.822960
O451	O45	0.294100	0.456480	0.063470
O461	O46	0.392700	0.381900	0.065510
O471	O47	0.360100	0.457470	0.664740
O481	O48	0.217600	0.392930	0.671040
O491	O49	0.434400	0.624870	0.836790
O501	O50	0.420900	0.535420	0.907500
O511	O51	0.450900	0.568490	0.637220
O521	O52	0.436000	0.527030	0.563990
O531	O53	0.157600	0.549930	0.629850
O541	O54	0.073700	0.485460	0.677040
O551	O55	0.794100	0.543520	0.436530
O561	O56	0.892700	0.618100	0.434490
O571	O57	0.860100	0.542530	0.835260
O581	O58	0.717600	0.607070	0.828960
O591	O59	0.934400	0.375130	0.663210
O601	O60	0.920900	0.464580	0.592500
O611	O61	0.049100	0.931510	0.137220
O621	O62	0.064000	0.972970	0.063990
O631	O63	0.342400	0.950070	0.129850
O641	O64	0.426300	0.014540	0.177040
O651	O65	0.705900	0.956480	0.936530
O661	O66	0.607300	0.881900	0.934490
O671	O67	0.639900	0.957470	0.335260
O681	O68	0.782400	0.892930	0.328960
O691	O69	0.565600	0.124870	0.163210
O701	O70	0.579100	0.035420	0.092500
O711	O71	0.549100	0.068490	0.362780
O721	O72	0.564000	0.027030	0.436010
O731	O73	0.842400	0.049930	0.370150
O741	O74	0.926300	0.985460	0.322960
O751	O75	0.205900	0.043520	0.563470
O761	O76	0.107300	0.118100	0.565510
O771	O77	0.139900	0.042530	0.164740
O781	O78	0.282400	0.107070	0.171040
O791	O79	0.065600	0.875130	0.336790
O801	O80	0.079100	0.964580	0.407500
