data_TAYNEN_freeONLY_PM
_symmetry_space_group_name_H-M	'P1'
_cell_length_a	11.966900
_cell_length_b	11.966900
_cell_length_c	19.026200
_cell_angle_alpha	102.448000
_cell_angle_beta	102.448000
_cell_angle_gamma	91.708700
_symmetry_Int_Tables_number 1

loop_
_symmetry_equiv_pos_as_xyz
'x,y,z'

loop_
_atom_site_label
_atom_site_type_symbol
_atom_site_fract_x
_atom_site_fract_y
_atom_site_fract_z
Cd11	Cd1	0.972610	0.772070	0.443600
Cd21	Cd2	0.772070	0.972610	0.943600
H11	H1	0.882400	0.901200	0.204700
H21	H2	0.658600	0.141200	0.166400
H31	H3	0.720700	0.052900	0.364300
H41	H4	0.714800	0.794200	0.466700
H51	H5	0.541800	0.696600	0.448700
H61	H6	0.420500	0.518700	0.418700
H71	H7	0.486100	0.403500	0.410500
H81	H8	0.398100	0.504500	0.289200
H91	H9	0.454800	0.384200	0.283000
H101	H10	0.296700	0.311700	0.330300
H111	H11	0.254900	0.337300	0.249800
H121	H12	0.164600	0.517200	0.243800
H131	H13	0.048500	0.656500	0.289000
H141	H14	0.100100	0.544500	0.473200
H151	H15	0.215600	0.414800	0.428800
H161	H16	0.671200	0.411400	0.355500
H171	H17	0.839400	0.521600	0.372700
H181	H18	0.128700	0.960500	0.511600
H191	H19	0.577100	0.217900	0.255800
H201	H20	0.901200	0.882400	0.704700
H211	H21	0.141200	0.658600	0.666400
H221	H22	0.052900	0.720700	0.864300
H231	H23	0.794200	0.714800	0.966700
H241	H24	0.696600	0.541800	0.948700
H251	H25	0.518700	0.420500	0.918700
H261	H26	0.403500	0.486100	0.910500
H271	H27	0.504500	0.398100	0.789200
H281	H28	0.384200	0.454800	0.783000
H291	H29	0.311700	0.296700	0.830300
H301	H30	0.337300	0.254900	0.749800
H311	H31	0.517200	0.164600	0.743800
H321	H32	0.656500	0.048500	0.789000
H331	H33	0.544500	0.100100	0.973200
H341	H34	0.414800	0.215600	0.928800
H351	H35	0.411400	0.671200	0.855500
H361	H36	0.521600	0.839400	0.872700
H371	H37	0.960500	0.128700	0.011600
H381	H38	0.217900	0.577100	0.755800
C11	C1	0.875700	0.902300	0.344200
C21	C2	0.783400	0.000400	0.094800
C31	C3	0.812700	0.967300	0.292700
C41	C4	0.829800	0.953200	0.220900
C51	C5	0.769300	0.015500	0.173000
C61	C6	0.696000	0.095400	0.198000
C71	C7	0.677300	0.108100	0.268400
C81	C8	0.734400	0.044400	0.316100
C91	C9	0.705700	0.715300	0.442400
C101	C10	0.602400	0.656800	0.432500
C111	C11	0.583300	0.543300	0.400200
C121	C12	0.470300	0.472500	0.390300
C131	C13	0.408200	0.436200	0.310700
C141	C14	0.287900	0.373100	0.302500
C151	C15	0.207500	0.457300	0.331800
C161	C16	0.155100	0.524500	0.292900
C171	C17	0.084000	0.608800	0.319900
C181	C18	0.115100	0.543700	0.426100
C191	C19	0.183200	0.465800	0.399400
C201	C20	0.676800	0.491000	0.377800
C211	C21	0.776900	0.558100	0.388900
C221	C22	0.902300	0.875700	0.844200
C231	C23	0.000400	0.783400	0.594800
C241	C24	0.967300	0.812700	0.792700
C251	C25	0.953200	0.829800	0.720900
C261	C26	0.015500	0.769300	0.673000
C271	C27	0.095400	0.696000	0.698000
C281	C28	0.108100	0.677300	0.768400
C291	C29	0.044400	0.734400	0.816100
C301	C30	0.715300	0.705700	0.942400
C311	C31	0.656800	0.602400	0.932500
C321	C32	0.543300	0.583300	0.900200
C331	C33	0.472500	0.470300	0.890300
C341	C34	0.436200	0.408200	0.810700
C351	C35	0.373100	0.287900	0.802500
C361	C36	0.457300	0.207500	0.831800
C371	C37	0.524500	0.155100	0.792900
C381	C38	0.608800	0.084000	0.819900
C391	C39	0.543700	0.115100	0.926100
C401	C40	0.465800	0.183200	0.899400
C411	C41	0.491000	0.676800	0.877800
C421	C42	0.558100	0.776900	0.888900
N11	N1	0.794100	0.668700	0.420100
N21	N2	0.066200	0.622200	0.388000
N31	N3	0.668700	0.794100	0.920100
N41	N4	0.622200	0.066200	0.888000
O11	O1	0.859200	0.917000	0.408600
O21	O2	0.133100	0.909700	0.474400
O31	O3	0.944300	0.832300	0.322600
O41	O4	0.930400	0.851800	0.573600
O51	O5	0.053200	0.726000	0.552900
O61	O6	0.604200	0.186400	0.290500
O71	O7	0.917000	0.859200	0.908600
O81	O8	0.909700	0.133100	0.974400
O91	O9	0.832300	0.944300	0.822600
O101	O10	0.851800	0.930400	0.073600
O111	O11	0.726000	0.053200	0.052900
O121	O12	0.186400	0.604200	0.790500
Cd31	Cd3	0.227930	0.027390	0.056400
Cd41	Cd4	0.027390	0.227930	0.556400
H391	H39	0.098800	0.117600	0.295300
H401	H40	0.858800	0.341400	0.333600
H411	H41	0.947100	0.279300	0.135700
H421	H42	0.205800	0.285200	0.033300
H431	H43	0.303400	0.458200	0.051300
H441	H44	0.481300	0.579500	0.081300
H451	H45	0.596500	0.513900	0.089500
H461	H46	0.495500	0.601900	0.210800
H471	H47	0.615800	0.545200	0.217000
H481	H48	0.688300	0.703300	0.169700
H491	H49	0.662700	0.745100	0.250200
H501	H50	0.482800	0.835400	0.256200
H511	H51	0.343500	0.951500	0.211000
H521	H52	0.455500	0.899900	0.026800
H531	H53	0.585200	0.784400	0.071200
H541	H54	0.588600	0.328800	0.144500
H551	H55	0.478400	0.160600	0.127300
H561	H56	0.039500	0.871300	0.988400
H571	H57	0.782100	0.422900	0.244200
H581	H58	0.117600	0.098800	0.795300
H591	H59	0.341400	0.858800	0.833600
H601	H60	0.279300	0.947100	0.635700
H611	H61	0.285200	0.205800	0.533300
H621	H62	0.458200	0.303400	0.551300
H631	H63	0.579500	0.481300	0.581300
H641	H64	0.513900	0.596500	0.589500
H651	H65	0.601900	0.495500	0.710800
H661	H66	0.545200	0.615800	0.717000
H671	H67	0.703300	0.688300	0.669700
H681	H68	0.745100	0.662700	0.750200
H691	H69	0.835400	0.482800	0.756200
H701	H70	0.951500	0.343500	0.711000
H711	H71	0.899900	0.455500	0.526800
H721	H72	0.784400	0.585200	0.571200
H731	H73	0.328800	0.588600	0.644500
H741	H74	0.160600	0.478400	0.627300
H751	H75	0.871300	0.039500	0.488400
H761	H76	0.422900	0.782100	0.744200
C431	C43	0.097700	0.124300	0.155800
C441	C44	0.999600	0.216600	0.405200
C451	C45	0.032700	0.187300	0.207300
C461	C46	0.046800	0.170200	0.279100
C471	C47	0.984500	0.230700	0.327000
C481	C48	0.904600	0.304000	0.302000
C491	C49	0.891900	0.322700	0.231600
C501	C50	0.955600	0.265600	0.183900
C511	C51	0.284700	0.294300	0.057600
C521	C52	0.343200	0.397600	0.067500
C531	C53	0.456700	0.416700	0.099800
C541	C54	0.527500	0.529700	0.109700
C551	C55	0.563800	0.591800	0.189300
C561	C56	0.626900	0.712100	0.197500
C571	C57	0.542700	0.792500	0.168200
C581	C58	0.475500	0.844900	0.207100
C591	C59	0.391200	0.916000	0.180100
C601	C60	0.456300	0.884900	0.073900
C611	C61	0.534200	0.816800	0.100600
C621	C62	0.509000	0.323200	0.122200
C631	C63	0.441900	0.223100	0.111100
C641	C64	0.124300	0.097700	0.655800
C651	C65	0.216600	0.999600	0.905200
C661	C66	0.187300	0.032700	0.707300
C671	C67	0.170200	0.046800	0.779100
C681	C68	0.230700	0.984500	0.827000
C691	C69	0.304000	0.904600	0.802000
C701	C70	0.322700	0.891900	0.731600
C711	C71	0.265600	0.955600	0.683900
C721	C72	0.294300	0.284700	0.557600
C731	C73	0.397600	0.343200	0.567500
C741	C74	0.416700	0.456700	0.599800
C751	C75	0.529700	0.527500	0.609700
C761	C76	0.591800	0.563800	0.689300
C771	C77	0.712100	0.626900	0.697500
C781	C78	0.792500	0.542700	0.668200
C791	C79	0.844900	0.475500	0.707100
C801	C80	0.916000	0.391200	0.680100
C811	C81	0.884900	0.456300	0.573900
C821	C82	0.816800	0.534200	0.600600
C831	C83	0.323200	0.509000	0.622200
C841	C84	0.223100	0.441900	0.611100
N51	N5	0.331300	0.205900	0.079900
N61	N6	0.377800	0.933800	0.112000
N71	N7	0.205900	0.331300	0.579900
N81	N8	0.933800	0.377800	0.612000
O131	O13	0.083000	0.140800	0.091400
O141	O14	0.090300	0.866900	0.025600
O151	O15	0.167700	0.055700	0.177400
O161	O16	0.148200	0.069600	0.926400
O171	O17	0.274000	0.946800	0.947100
O181	O18	0.813600	0.395800	0.209500
O191	O19	0.140800	0.083000	0.591400
O201	O20	0.866900	0.090300	0.525600
O211	O21	0.055700	0.167700	0.677400
O221	O22	0.069600	0.148200	0.426400
O231	O23	0.946800	0.274000	0.447100
O241	O24	0.395800	0.813600	0.709500
