data_TAZLUD_freeONLY_PM
_symmetry_space_group_name_H-M	'P1'
_cell_length_a	19.468700
_cell_length_b	19.468700
_cell_length_c	26.374600
_cell_angle_alpha	90.000000
_cell_angle_beta	90.000000
_cell_angle_gamma	90.000000
_symmetry_Int_Tables_number 1

loop_
_symmetry_equiv_pos_as_xyz
'x,y,z'

loop_
_atom_site_label
_atom_site_type_symbol
_atom_site_fract_x
_atom_site_fract_y
_atom_site_fract_z
Gd11	Gd1	0.556140	0.556140	0.302360
Gd21	Gd2	0.943860	0.943860	0.302360
Gd31	Gd3	0.943860	0.556140	0.802360
Gd41	Gd4	0.556140	0.943860	0.802360
Gd51	Gd5	0.443860	0.056140	0.197640
Gd61	Gd6	0.056140	0.443860	0.197640
Gd71	Gd7	0.056140	0.056140	0.697640
Gd81	Gd8	0.443860	0.443860	0.697640
Cd11	Cd1	0.467400	0.467400	0.195730
Cd21	Cd2	0.032600	0.032600	0.195730
Cd31	Cd3	0.032600	0.467400	0.695730
Cd41	Cd4	0.467400	0.032600	0.695730
Cd51	Cd5	0.532600	0.967400	0.304270
Cd61	Cd6	0.967400	0.532600	0.304270
Cd71	Cd7	0.967400	0.967400	0.804270
Cd81	Cd8	0.532600	0.532600	0.804270
Cd91	Cd9	0.250000	0.750000	0.000000
Cd101	Cd10	0.750000	0.250000	0.500000
Cd111	Cd11	0.750000	0.250000	0.000000
Cd121	Cd12	0.250000	0.750000	0.500000
H11	H1	0.408100	0.868800	0.135600
H21	H2	0.409900	0.665500	0.116100
H31	H3	0.511800	0.748200	0.231700
H41	H4	0.500200	0.736000	0.383900
H51	H5	0.470800	0.810800	0.380200
H61	H6	0.430300	0.754300	0.410100
H71	H7	0.343200	0.813600	0.328200
H81	H8	0.367900	0.779100	0.277700
H91	H9	0.323700	0.737100	0.316500
H101	H10	0.091900	0.631200	0.135600
H111	H11	0.090100	0.834500	0.116100
H121	H12	0.988200	0.751800	0.231700
H131	H13	0.999800	0.764000	0.383900
H141	H14	0.029200	0.689200	0.380200
H151	H15	0.069700	0.745700	0.410100
H161	H16	0.156800	0.686400	0.328200
H171	H17	0.132100	0.720900	0.277700
H181	H18	0.176300	0.762900	0.316500
H191	H19	0.631200	0.408100	0.635600
H201	H20	0.834500	0.409900	0.616100
H211	H21	0.751800	0.511800	0.731700
H221	H22	0.764000	0.500200	0.883900
H231	H23	0.689200	0.470800	0.880200
H241	H24	0.745700	0.430300	0.910100
H251	H25	0.686400	0.343200	0.828200
H261	H26	0.720900	0.367900	0.777700
H271	H27	0.762900	0.323700	0.816500
H281	H28	0.868800	0.091900	0.635600
H291	H29	0.665500	0.090100	0.616100
H301	H30	0.748200	0.988200	0.731700
H311	H31	0.736000	0.999800	0.883900
H321	H32	0.810800	0.029200	0.880200
H331	H33	0.754300	0.069700	0.910100
H341	H34	0.813600	0.156800	0.828200
H351	H35	0.779100	0.132100	0.777700
H361	H36	0.737100	0.176300	0.816500
H371	H37	0.591900	0.368800	0.364400
H381	H38	0.590100	0.165500	0.383900
H391	H39	0.488200	0.248200	0.268300
H401	H40	0.499800	0.236000	0.116100
H411	H41	0.529200	0.310800	0.119800
H421	H42	0.569700	0.254300	0.089900
H431	H43	0.656800	0.313600	0.171800
H441	H44	0.632100	0.279100	0.222300
H451	H45	0.676300	0.237100	0.183500
H461	H46	0.908100	0.131200	0.364400
H471	H47	0.909900	0.334500	0.383900
H481	H48	0.011800	0.251800	0.268300
H491	H49	0.000200	0.264000	0.116100
H501	H50	0.970800	0.189200	0.119800
H511	H51	0.930300	0.245700	0.089900
H521	H52	0.843200	0.186400	0.171800
H531	H53	0.867900	0.220900	0.222300
H541	H54	0.823700	0.262900	0.183500
H551	H55	0.368800	0.908100	0.864400
H561	H56	0.165500	0.909900	0.883900
H571	H57	0.248200	0.011800	0.768300
H581	H58	0.236000	0.000200	0.616100
H591	H59	0.310800	0.970800	0.619800
H601	H60	0.254300	0.930300	0.589900
H611	H61	0.313600	0.843200	0.671800
H621	H62	0.279100	0.867900	0.722300
H631	H63	0.237100	0.823700	0.683500
H641	H64	0.131200	0.591900	0.864400
H651	H65	0.334500	0.590100	0.883900
H661	H66	0.251800	0.488200	0.768300
H671	H67	0.264000	0.499800	0.616100
H681	H68	0.189200	0.529200	0.619800
H691	H69	0.245700	0.569700	0.589900
H701	H70	0.186400	0.656800	0.671800
H711	H71	0.220900	0.632100	0.722300
H721	H72	0.262900	0.676300	0.683500
H731	H73	0.591900	0.131200	0.864400
H741	H74	0.590100	0.334500	0.883900
H751	H75	0.488200	0.251800	0.768300
H761	H76	0.499800	0.264000	0.616100
H771	H77	0.529200	0.189200	0.619800
H781	H78	0.569700	0.245700	0.589900
H791	H79	0.656800	0.186400	0.671800
H801	H80	0.632100	0.220900	0.722300
H811	H81	0.676300	0.262900	0.683500
H821	H82	0.908100	0.368800	0.864400
H831	H83	0.909900	0.165500	0.883900
H841	H84	0.011800	0.248200	0.768300
H851	H85	0.000200	0.236000	0.616100
H861	H86	0.970800	0.310800	0.619800
H871	H87	0.930300	0.254300	0.589900
H881	H88	0.843200	0.313600	0.671800
H891	H89	0.867900	0.279100	0.722300
H901	H90	0.823700	0.237100	0.683500
H911	H91	0.368800	0.591900	0.364400
H921	H92	0.165500	0.590100	0.383900
H931	H93	0.248200	0.488200	0.268300
H941	H94	0.236000	0.499800	0.116100
H951	H95	0.310800	0.529200	0.119800
H961	H96	0.254300	0.569700	0.089900
H971	H97	0.313600	0.656800	0.171800
H981	H98	0.279100	0.632100	0.222300
H991	H99	0.237100	0.676300	0.183500
H1001	H100	0.131200	0.908100	0.364400
H1011	H101	0.334500	0.909900	0.383900
H1021	H102	0.251800	0.011800	0.268300
H1031	H103	0.264000	0.000200	0.116100
H1041	H104	0.189200	0.970800	0.119800
H1051	H105	0.245700	0.930300	0.089900
H1061	H106	0.186400	0.843200	0.171800
H1071	H107	0.220900	0.867900	0.222300
H1081	H108	0.262900	0.823700	0.183500
H1091	H109	0.408100	0.631200	0.635600
H1101	H110	0.409900	0.834500	0.616100
H1111	H111	0.511800	0.751800	0.731700
H1121	H112	0.500200	0.764000	0.883900
H1131	H113	0.470800	0.689200	0.880200
H1141	H114	0.430300	0.745700	0.910100
H1151	H115	0.343200	0.686400	0.828200
H1161	H116	0.367900	0.720900	0.777700
H1171	H117	0.323700	0.762900	0.816500
H1181	H118	0.091900	0.868800	0.635600
H1191	H119	0.090100	0.665500	0.616100
H1201	H120	0.988200	0.748200	0.731700
H1211	H121	0.999800	0.736000	0.883900
H1221	H122	0.029200	0.810800	0.880200
H1231	H123	0.069700	0.754300	0.910100
H1241	H124	0.156800	0.813600	0.828200
H1251	H125	0.132100	0.779100	0.777700
H1261	H126	0.176300	0.737100	0.816500
H1271	H127	0.631200	0.091900	0.135600
H1281	H128	0.834500	0.090100	0.116100
H1291	H129	0.751800	0.988200	0.231700
H1301	H130	0.764000	0.999800	0.383900
H1311	H131	0.689200	0.029200	0.380200
H1321	H132	0.745700	0.069700	0.410100
H1331	H133	0.686400	0.156800	0.328200
H1341	H134	0.720900	0.132100	0.277700
H1351	H135	0.762900	0.176300	0.316500
H1361	H136	0.868800	0.408100	0.135600
H1371	H137	0.665500	0.409900	0.116100
H1381	H138	0.748200	0.511800	0.231700
H1391	H139	0.736000	0.500200	0.383900
H1401	H140	0.810800	0.470800	0.380200
H1411	H141	0.754300	0.430300	0.410100
H1421	H142	0.813600	0.343200	0.328200
H1431	H143	0.779100	0.367900	0.277700
H1441	H144	0.737100	0.323700	0.316500
C11	C1	0.483400	0.625300	0.194100
C21	C2	0.421600	0.825200	0.146000
C31	C3	0.423100	0.704200	0.134400
C41	C4	0.400800	0.768000	0.118900
C51	C5	0.482900	0.880300	0.219100
C61	C6	0.351800	0.775400	0.075700
C71	C7	0.462500	0.817600	0.188600
C81	C8	0.464200	0.696500	0.175900
C91	C9	0.484000	0.753300	0.203300
C101	C10	0.451400	0.688900	0.321600
C111	C11	0.459000	0.762900	0.381300
C121	C12	0.359000	0.771500	0.313000
C131	C13	0.016600	0.874700	0.194100
C141	C14	0.078400	0.674800	0.146000
C151	C15	0.076900	0.795800	0.134400
C161	C16	0.099200	0.732000	0.118900
C171	C17	0.017100	0.619700	0.219100
C181	C18	0.148200	0.724600	0.075700
C191	C19	0.037500	0.682400	0.188600
C201	C20	0.035800	0.803500	0.175900
C211	C21	0.016000	0.746700	0.203300
C221	C22	0.048600	0.811100	0.321600
C231	C23	0.041000	0.737100	0.381300
C241	C24	0.141000	0.728500	0.313000
C251	C25	0.874700	0.483400	0.694100
C261	C26	0.674800	0.421600	0.646000
C271	C27	0.795800	0.423100	0.634400
C281	C28	0.732000	0.400800	0.618900
C291	C29	0.619700	0.482900	0.719100
C301	C30	0.724600	0.351800	0.575700
C311	C31	0.682400	0.462500	0.688600
C321	C32	0.803500	0.464200	0.675900
C331	C33	0.746700	0.484000	0.703300
C341	C34	0.811100	0.451400	0.821600
C351	C35	0.737100	0.459000	0.881300
C361	C36	0.728500	0.359000	0.813000
C371	C37	0.625300	0.016600	0.694100
C381	C38	0.825200	0.078400	0.646000
C391	C39	0.704200	0.076900	0.634400
C401	C40	0.768000	0.099200	0.618900
C411	C41	0.880300	0.017100	0.719100
C421	C42	0.775400	0.148200	0.575700
C431	C43	0.817600	0.037500	0.688600
C441	C44	0.696500	0.035800	0.675900
C451	C45	0.753300	0.016000	0.703300
C461	C46	0.688900	0.048600	0.821600
C471	C47	0.762900	0.041000	0.881300
C481	C48	0.771500	0.141000	0.813000
C491	C49	0.516600	0.125300	0.305900
C501	C50	0.578400	0.325200	0.354000
C511	C51	0.576900	0.204200	0.365600
C521	C52	0.599200	0.268000	0.381100
C531	C53	0.517100	0.380300	0.280900
C541	C54	0.648200	0.275400	0.424300
C551	C55	0.537500	0.317600	0.311400
C561	C56	0.535800	0.196500	0.324100
C571	C57	0.516000	0.253300	0.296700
C581	C58	0.548600	0.188900	0.178400
C591	C59	0.541000	0.262900	0.118700
C601	C60	0.641000	0.271500	0.187000
C611	C61	0.983400	0.374700	0.305900
C621	C62	0.921600	0.174800	0.354000
C631	C63	0.923100	0.295800	0.365600
C641	C64	0.900800	0.232000	0.381100
C651	C65	0.982900	0.119700	0.280900
C661	C66	0.851800	0.224600	0.424300
C671	C67	0.962500	0.182400	0.311400
C681	C68	0.964200	0.303500	0.324100
C691	C69	0.984000	0.246700	0.296700
C701	C70	0.951400	0.311100	0.178400
C711	C71	0.959000	0.237100	0.118700
C721	C72	0.859000	0.228500	0.187000
C731	C73	0.125300	0.983400	0.805900
C741	C74	0.325200	0.921600	0.854000
C751	C75	0.204200	0.923100	0.865600
C761	C76	0.268000	0.900800	0.881100
C771	C77	0.380300	0.982900	0.780900
C781	C78	0.275400	0.851800	0.924300
C791	C79	0.317600	0.962500	0.811400
C801	C80	0.196500	0.964200	0.824100
C811	C81	0.253300	0.984000	0.796700
C821	C82	0.188900	0.951400	0.678400
C831	C83	0.262900	0.959000	0.618700
C841	C84	0.271500	0.859000	0.687000
C851	C85	0.374700	0.516600	0.805900
C861	C86	0.174800	0.578400	0.854000
C871	C87	0.295800	0.576900	0.865600
C881	C88	0.232000	0.599200	0.881100
C891	C89	0.119700	0.517100	0.780900
C901	C90	0.224600	0.648200	0.924300
C911	C91	0.182400	0.537500	0.811400
C921	C92	0.303500	0.535800	0.824100
C931	C93	0.246700	0.516000	0.796700
C941	C94	0.311100	0.548600	0.678400
C951	C95	0.237100	0.541000	0.618700
C961	C96	0.228500	0.641000	0.687000
C971	C97	0.516600	0.374700	0.805900
C981	C98	0.578400	0.174800	0.854000
C991	C99	0.576900	0.295800	0.865600
C1001	C100	0.599200	0.232000	0.881100
C1011	C101	0.517100	0.119700	0.780900
C1021	C102	0.648200	0.224600	0.924300
C1031	C103	0.537500	0.182400	0.811400
C1041	C104	0.535800	0.303500	0.824100
C1051	C105	0.516000	0.246700	0.796700
C1061	C106	0.548600	0.311100	0.678400
C1071	C107	0.541000	0.237100	0.618700
C1081	C108	0.641000	0.228500	0.687000
C1091	C109	0.983400	0.125300	0.805900
C1101	C110	0.921600	0.325200	0.854000
C1111	C111	0.923100	0.204200	0.865600
C1121	C112	0.900800	0.268000	0.881100
C1131	C113	0.982900	0.380300	0.780900
C1141	C114	0.851800	0.275400	0.924300
C1151	C115	0.962500	0.317600	0.811400
C1161	C116	0.964200	0.196500	0.824100
C1171	C117	0.984000	0.253300	0.796700
C1181	C118	0.951400	0.188900	0.678400
C1191	C119	0.959000	0.262900	0.618700
C1201	C120	0.859000	0.271500	0.687000
C1211	C121	0.125300	0.516600	0.305900
C1221	C122	0.325200	0.578400	0.354000
C1231	C123	0.204200	0.576900	0.365600
C1241	C124	0.268000	0.599200	0.381100
C1251	C125	0.380300	0.517100	0.280900
C1261	C126	0.275400	0.648200	0.424300
C1271	C127	0.317600	0.537500	0.311400
C1281	C128	0.196500	0.535800	0.324100
C1291	C129	0.253300	0.516000	0.296700
C1301	C130	0.188900	0.548600	0.178400
C1311	C131	0.262900	0.541000	0.118700
C1321	C132	0.271500	0.641000	0.187000
C1331	C133	0.374700	0.983400	0.305900
C1341	C134	0.174800	0.921600	0.354000
C1351	C135	0.295800	0.923100	0.365600
C1361	C136	0.232000	0.900800	0.381100
C1371	C137	0.119700	0.982900	0.280900
C1381	C138	0.224600	0.851800	0.424300
C1391	C139	0.182400	0.962500	0.311400
C1401	C140	0.303500	0.964200	0.324100
C1411	C141	0.246700	0.984000	0.296700
C1421	C142	0.311100	0.951400	0.178400
C1431	C143	0.237100	0.959000	0.118700
C1441	C144	0.228500	0.859000	0.187000
C1451	C145	0.483400	0.874700	0.694100
C1461	C146	0.421600	0.674800	0.646000
C1471	C147	0.423100	0.795800	0.634400
C1481	C148	0.400800	0.732000	0.618900
C1491	C149	0.482900	0.619700	0.719100
C1501	C150	0.351800	0.724600	0.575700
C1511	C151	0.462500	0.682400	0.688600
C1521	C152	0.464200	0.803500	0.675900
C1531	C153	0.484000	0.746700	0.703300
C1541	C154	0.451400	0.811100	0.821600
C1551	C155	0.459000	0.737100	0.881300
C1561	C156	0.359000	0.728500	0.813000
C1571	C157	0.016600	0.625300	0.694100
C1581	C158	0.078400	0.825200	0.646000
C1591	C159	0.076900	0.704200	0.634400
C1601	C160	0.099200	0.768000	0.618900
C1611	C161	0.017100	0.880300	0.719100
C1621	C162	0.148200	0.775400	0.575700
C1631	C163	0.037500	0.817600	0.688600
C1641	C164	0.035800	0.696500	0.675900
C1651	C165	0.016000	0.753300	0.703300
C1661	C166	0.048600	0.688900	0.821600
C1671	C167	0.041000	0.762900	0.881300
C1681	C168	0.141000	0.771500	0.813000
C1691	C169	0.874700	0.016600	0.194100
C1701	C170	0.674800	0.078400	0.146000
C1711	C171	0.795800	0.076900	0.134400
C1721	C172	0.732000	0.099200	0.118900
C1731	C173	0.619700	0.017100	0.219100
C1741	C174	0.724600	0.148200	0.075700
C1751	C175	0.682400	0.037500	0.188600
C1761	C176	0.803500	0.035800	0.175900
C1771	C177	0.746700	0.016000	0.203300
C1781	C178	0.811100	0.048600	0.321600
C1791	C179	0.737100	0.041000	0.381300
C1801	C180	0.728500	0.141000	0.313000
C1811	C181	0.625300	0.483400	0.194100
C1821	C182	0.825200	0.421600	0.146000
C1831	C183	0.704200	0.423100	0.134400
C1841	C184	0.768000	0.400800	0.118900
C1851	C185	0.880300	0.482900	0.219100
C1861	C186	0.775400	0.351800	0.075700
C1871	C187	0.817600	0.462500	0.188600
C1881	C188	0.696500	0.464200	0.175900
C1891	C189	0.753300	0.484000	0.203300
C1901	C190	0.688900	0.451400	0.321600
C1911	C191	0.762900	0.459000	0.381300
C1921	C192	0.771500	0.359000	0.313000
N11	N1	0.426600	0.746500	0.340400
N21	N2	0.073400	0.753500	0.340400
N31	N3	0.753500	0.426600	0.840400
N41	N4	0.746500	0.073400	0.840400
N51	N5	0.573400	0.246500	0.159600
N61	N6	0.926600	0.253500	0.159600
N71	N7	0.246500	0.926600	0.659600
N81	N8	0.253500	0.573400	0.659600
N91	N9	0.573400	0.253500	0.659600
N101	N10	0.926600	0.246500	0.659600
N111	N11	0.246500	0.573400	0.159600
N121	N12	0.253500	0.926600	0.159600
N131	N13	0.426600	0.753500	0.840400
N141	N14	0.073400	0.746500	0.840400
N151	N15	0.753500	0.073400	0.340400
N161	N16	0.746500	0.426600	0.340400
O11	O1	0.460800	0.575600	0.169300
O21	O2	0.518100	0.620000	0.232600
O31	O3	0.335100	0.720600	0.051600
O41	O4	0.461500	0.937300	0.205600
O51	O5	0.517000	0.869700	0.259300
O61	O6	0.328500	0.831800	0.064100
O71	O7	0.505900	0.660800	0.337000
O81	O8	0.039200	0.924400	0.169300
O91	O9	0.981900	0.880000	0.232600
O101	O10	0.164900	0.779400	0.051600
O111	O11	0.038500	0.562700	0.205600
O121	O12	0.983000	0.630300	0.259300
O131	O13	0.171500	0.668200	0.064100
O141	O14	0.994100	0.839200	0.337000
O151	O15	0.924400	0.460800	0.669300
O161	O16	0.880000	0.518100	0.732600
O171	O17	0.779400	0.335100	0.551600
O181	O18	0.562700	0.461500	0.705600
O191	O19	0.630300	0.517000	0.759300
O201	O20	0.668200	0.328500	0.564100
O211	O21	0.839200	0.505900	0.837000
O221	O22	0.575600	0.039200	0.669300
O231	O23	0.620000	0.981900	0.732600
O241	O24	0.720600	0.164900	0.551600
O251	O25	0.937300	0.038500	0.705600
O261	O26	0.869700	0.983000	0.759300
O271	O27	0.831800	0.171500	0.564100
O281	O28	0.660800	0.994100	0.837000
O291	O29	0.539200	0.075600	0.330700
O301	O30	0.481900	0.120000	0.267400
O311	O31	0.664900	0.220600	0.448400
O321	O32	0.538500	0.437300	0.294400
O331	O33	0.483000	0.369700	0.240700
O341	O34	0.671500	0.331800	0.435900
O351	O35	0.494100	0.160800	0.163000
O361	O36	0.960800	0.424400	0.330700
O371	O37	0.018100	0.380000	0.267400
O381	O38	0.835100	0.279400	0.448400
O391	O39	0.961500	0.062700	0.294400
O401	O40	0.017000	0.130300	0.240700
O411	O41	0.828500	0.168200	0.435900
O421	O42	0.005900	0.339200	0.163000
O431	O43	0.075600	0.960800	0.830700
O441	O44	0.120000	0.018100	0.767400
O451	O45	0.220600	0.835100	0.948400
O461	O46	0.437300	0.961500	0.794400
O471	O47	0.369700	0.017000	0.740700
O481	O48	0.331800	0.828500	0.935900
O491	O49	0.160800	0.005900	0.663000
O501	O50	0.424400	0.539200	0.830700
O511	O51	0.380000	0.481900	0.767400
O521	O52	0.279400	0.664900	0.948400
O531	O53	0.062700	0.538500	0.794400
O541	O54	0.130300	0.483000	0.740700
O551	O55	0.168200	0.671500	0.935900
O561	O56	0.339200	0.494100	0.663000
O571	O57	0.539200	0.424400	0.830700
O581	O58	0.481900	0.380000	0.767400
O591	O59	0.664900	0.279400	0.948400
O601	O60	0.538500	0.062700	0.794400
O611	O61	0.483000	0.130300	0.740700
O621	O62	0.671500	0.168200	0.935900
O631	O63	0.494100	0.339200	0.663000
O641	O64	0.960800	0.075600	0.830700
O651	O65	0.018100	0.120000	0.767400
O661	O66	0.835100	0.220600	0.948400
O671	O67	0.961500	0.437300	0.794400
O681	O68	0.017000	0.369700	0.740700
O691	O69	0.828500	0.331800	0.935900
O701	O70	0.005900	0.160800	0.663000
O711	O71	0.075600	0.539200	0.330700
O721	O72	0.120000	0.481900	0.267400
O731	O73	0.220600	0.664900	0.448400
O741	O74	0.437300	0.538500	0.294400
O751	O75	0.369700	0.483000	0.240700
O761	O76	0.331800	0.671500	0.435900
O771	O77	0.160800	0.494100	0.163000
O781	O78	0.424400	0.960800	0.330700
O791	O79	0.380000	0.018100	0.267400
O801	O80	0.279400	0.835100	0.448400
O811	O81	0.062700	0.961500	0.294400
O821	O82	0.130300	0.017000	0.240700
O831	O83	0.168200	0.828500	0.435900
O841	O84	0.339200	0.005900	0.163000
O851	O85	0.460800	0.924400	0.669300
O861	O86	0.518100	0.880000	0.732600
O871	O87	0.335100	0.779400	0.551600
O881	O88	0.461500	0.562700	0.705600
O891	O89	0.517000	0.630300	0.759300
O901	O90	0.328500	0.668200	0.564100
O911	O91	0.505900	0.839200	0.837000
O921	O92	0.039200	0.575600	0.669300
O931	O93	0.981900	0.620000	0.732600
O941	O94	0.164900	0.720600	0.551600
O951	O95	0.038500	0.937300	0.705600
O961	O96	0.983000	0.869700	0.759300
O971	O97	0.171500	0.831800	0.564100
O981	O98	0.994100	0.660800	0.837000
O991	O99	0.924400	0.039200	0.169300
O1001	O100	0.880000	0.981900	0.232600
O1011	O101	0.779400	0.164900	0.051600
O1021	O102	0.562700	0.038500	0.205600
O1031	O103	0.630300	0.983000	0.259300
O1041	O104	0.668200	0.171500	0.064100
O1051	O105	0.839200	0.994100	0.337000
O1061	O106	0.575600	0.460800	0.169300
O1071	O107	0.620000	0.518100	0.232600
O1081	O108	0.720600	0.335100	0.051600
O1091	O109	0.937300	0.461500	0.205600
O1101	O110	0.869700	0.517000	0.259300
O1111	O111	0.831800	0.328500	0.064100
O1121	O112	0.660800	0.505900	0.337000
O1131	O113	0.536400	0.536400	0.390400
O1141	O114	0.642600	0.642600	0.300500
O1151	O115	0.411100	0.411100	0.132000
O1161	O116	0.963600	0.963600	0.390400
O1171	O117	0.857400	0.857400	0.300500
O1181	O118	0.088900	0.088900	0.132000
O1191	O119	0.963600	0.536400	0.890400
O1201	O120	0.857400	0.642600	0.800500
O1211	O121	0.088900	0.411100	0.632000
O1221	O122	0.536400	0.963600	0.890400
O1231	O123	0.642600	0.857400	0.800500
O1241	O124	0.411100	0.088900	0.632000
O1251	O125	0.463600	0.036400	0.109600
O1261	O126	0.357400	0.142600	0.199500
O1271	O127	0.588900	0.911100	0.368000
O1281	O128	0.036400	0.463600	0.109600
O1291	O129	0.142600	0.357400	0.199500
O1301	O130	0.911100	0.588900	0.368000
O1311	O131	0.036400	0.036400	0.609600
O1321	O132	0.142600	0.142600	0.699500
O1331	O133	0.911100	0.911100	0.868000
O1341	O134	0.463600	0.463600	0.609600
O1351	O135	0.357400	0.357400	0.699500
O1361	O136	0.588900	0.588900	0.868000
