data_TEBWII_freeONLY_PM
_symmetry_space_group_name_H-M	'P1'
_cell_length_a	16.021000
_cell_length_b	19.247000
_cell_length_c	22.482000
_cell_angle_alpha	90.000000
_cell_angle_beta	90.000000
_cell_angle_gamma	90.430000
_symmetry_Int_Tables_number 1

loop_
_symmetry_equiv_pos_as_xyz
'x,y,z'

loop_
_atom_site_label
_atom_site_type_symbol
_atom_site_fract_x
_atom_site_fract_y
_atom_site_fract_z
Cu11	Cu1	0.753100	0.995930	0.248920
Cu21	Cu2	0.757000	0.499090	0.249870
Cu31	Cu3	0.746900	0.004070	0.748920
Cu41	Cu4	0.743000	0.500910	0.749870
Cu51	Cu5	0.246900	0.004070	0.751080
Cu61	Cu6	0.243000	0.500910	0.750130
Cu71	Cu7	0.253100	0.995930	0.251080
Cu81	Cu8	0.257000	0.499090	0.250130
H11	H1	0.671400	0.686400	0.067100
H21	H2	0.701800	0.755700	0.097100
H31	H3	0.811200	0.665200	0.034100
H41	H4	0.840100	0.735600	0.062900
H51	H5	0.761400	0.796800	0.998000
H61	H6	0.722100	0.728600	0.972300
H71	H7	0.885500	0.765800	0.959800
H81	H8	0.842400	0.700200	0.931500
H91	H9	0.789800	0.834500	0.906200
H101	H10	0.857700	0.797900	0.867800
H111	H11	0.727800	0.792400	0.821100
H121	H12	0.690600	0.751900	0.875700
H131	H13	0.886500	0.612400	0.753800
H141	H14	0.670600	0.626400	0.832400
H151	H15	0.689900	0.519800	0.382400
H161	H16	0.585200	0.580100	0.237300
H171	H17	0.430900	0.607600	0.342800
H181	H18	0.454000	0.634400	0.278800
H191	H19	0.439100	0.726300	0.339100
H201	H20	0.500900	0.694800	0.385500
H211	H21	0.610700	0.712600	0.322500
H221	H22	0.565000	0.782600	0.335200
H231	H23	0.604800	0.771700	0.236700
H241	H24	0.546200	0.706700	0.230300
H251	H25	0.475000	0.833100	0.263000
H261	H26	0.430300	0.770200	0.232400
H271	H27	0.499200	0.800000	0.143200
H281	H28	0.435100	0.856000	0.164900
H291	H29	0.585900	0.906200	0.261200
H301	H30	0.685600	0.975600	0.115700
H311	H31	0.611900	0.108600	0.247800
H321	H32	0.828700	0.124900	0.175100
H331	H33	0.769100	0.291000	0.186100
H341	H34	0.815300	0.251100	0.135300
H351	H35	0.724600	0.328300	0.093600
H361	H36	0.650100	0.297200	0.130300
H371	H37	0.623300	0.229500	0.061800
H381	H38	0.709700	0.194200	0.070800
H391	H39	0.683400	0.302500	0.999200
H401	H40	0.765700	0.260400	0.005700
H411	H41	0.638100	0.233600	0.929100
H421	H42	0.658500	0.166100	0.966500
H431	H43	0.799300	0.178300	0.946400
H441	H44	0.784800	0.250600	0.916000
H451	H45	0.722500	0.170400	0.732400
H461	H46	0.761000	0.067700	0.879100
H471	H47	0.796100	0.078200	0.366500
H481	H48	0.952300	0.015300	0.247700
H491	H49	0.974900	0.167200	0.402600
H501	H50	0.899300	0.135800	0.438000
H511	H51	0.026500	0.113700	0.487300
H521	H52	0.058200	0.072300	0.431800
H531	H53	0.955600	0.987000	0.447200
H541	H54	0.919900	0.029200	0.501200
H551	H55	0.799900	0.432900	0.124200
H561	H56	0.952700	0.465700	0.255200
H571	H57	0.968000	0.327000	0.090200
H581	H58	0.893900	0.361700	0.056100
H591	H59	0.021200	0.384800	0.007800
H601	H60	0.055300	0.421300	0.065200
H611	H61	0.918800	0.471100	0.000600
H621	H62	0.959600	0.508800	0.055200
H631	H63	0.777700	0.662000	0.269900
H641	H64	0.735100	0.568200	0.119900
H651	H65	0.828600	0.313600	0.567100
H661	H66	0.798200	0.244300	0.597100
H671	H67	0.688800	0.334800	0.534100
H681	H68	0.659900	0.264400	0.562900
H691	H69	0.738600	0.203200	0.498000
H701	H70	0.777900	0.271400	0.472300
H711	H71	0.614500	0.234200	0.459800
H721	H72	0.657600	0.299800	0.431500
H731	H73	0.710200	0.165500	0.406200
H741	H74	0.642300	0.202100	0.367800
H751	H75	0.772200	0.207600	0.321100
H761	H76	0.809400	0.248100	0.375700
H771	H77	0.613500	0.387600	0.253800
H781	H78	0.829400	0.373600	0.332400
H791	H79	0.810100	0.480200	0.882400
H801	H80	0.914800	0.419900	0.737300
H811	H81	0.069100	0.392400	0.842800
H821	H82	0.046000	0.365600	0.778800
H831	H83	0.060900	0.273700	0.839100
H841	H84	0.999100	0.305200	0.885500
H851	H85	0.889300	0.287400	0.822500
H861	H86	0.935000	0.217400	0.835200
H871	H87	0.895200	0.228300	0.736700
H881	H88	0.953800	0.293300	0.730300
H891	H89	0.025000	0.166900	0.763000
H901	H90	0.069700	0.229800	0.732400
H911	H91	0.000800	0.200000	0.643200
H921	H92	0.064900	0.144000	0.664900
H931	H93	0.914100	0.093800	0.761200
H941	H94	0.814400	0.024400	0.615700
H951	H95	0.888100	0.891400	0.747800
H961	H96	0.671300	0.875100	0.675100
H971	H97	0.730900	0.709000	0.686100
H981	H98	0.684700	0.748900	0.635300
H991	H99	0.775400	0.671700	0.593600
H1001	H100	0.849900	0.702800	0.630300
H1011	H101	0.876700	0.770500	0.561800
H1021	H102	0.790300	0.805800	0.570800
H1031	H103	0.816600	0.697500	0.499200
H1041	H104	0.734300	0.739600	0.505700
H1051	H105	0.861900	0.766400	0.429100
H1061	H106	0.841500	0.833900	0.466500
H1071	H107	0.700700	0.821700	0.446400
H1081	H108	0.715200	0.749400	0.416000
H1091	H109	0.777500	0.829600	0.232400
H1101	H110	0.739000	0.932300	0.379100
H1111	H111	0.703900	0.921800	0.866500
H1121	H112	0.547700	0.984700	0.747700
H1131	H113	0.525100	0.832800	0.902600
H1141	H114	0.600700	0.864200	0.938000
H1151	H115	0.473500	0.886300	0.987300
H1161	H116	0.441800	0.927700	0.931800
H1171	H117	0.544400	0.013000	0.947200
H1181	H118	0.580100	0.970800	0.001200
H1191	H119	0.700100	0.567100	0.624200
H1201	H120	0.547300	0.534300	0.755200
H1211	H121	0.532000	0.673000	0.590200
H1221	H122	0.606100	0.638300	0.556100
H1231	H123	0.478800	0.615200	0.507800
H1241	H124	0.444700	0.578700	0.565200
H1251	H125	0.581200	0.528900	0.500600
H1261	H126	0.540400	0.491200	0.555200
H1271	H127	0.722300	0.338000	0.769900
H1281	H128	0.764900	0.431800	0.619900
H1291	H129	0.328600	0.313600	0.932900
H1301	H130	0.298200	0.244300	0.902900
H1311	H131	0.188800	0.334800	0.965900
H1321	H132	0.159900	0.264400	0.937100
H1331	H133	0.238600	0.203200	0.002000
H1341	H134	0.277900	0.271400	0.027700
H1351	H135	0.114500	0.234200	0.040200
H1361	H136	0.157600	0.299800	0.068500
H1371	H137	0.210200	0.165500	0.093800
H1381	H138	0.142300	0.202100	0.132200
H1391	H139	0.272200	0.207600	0.178900
H1401	H140	0.309400	0.248100	0.124300
H1411	H141	0.113500	0.387600	0.246200
H1421	H142	0.329400	0.373600	0.167600
H1431	H143	0.310100	0.480200	0.617600
H1441	H144	0.414800	0.419900	0.762700
H1451	H145	0.569100	0.392400	0.657200
H1461	H146	0.546000	0.365600	0.721200
H1471	H147	0.560900	0.273700	0.660900
H1481	H148	0.499100	0.305200	0.614500
H1491	H149	0.389300	0.287400	0.677500
H1501	H150	0.435000	0.217400	0.664800
H1511	H151	0.395200	0.228300	0.763300
H1521	H152	0.453800	0.293300	0.769700
H1531	H153	0.525000	0.166900	0.737000
H1541	H154	0.569700	0.229800	0.767600
H1551	H155	0.500800	0.200000	0.856800
H1561	H156	0.564900	0.144000	0.835100
H1571	H157	0.414100	0.093800	0.738800
H1581	H158	0.314400	0.024400	0.884300
H1591	H159	0.388100	0.891400	0.752200
H1601	H160	0.171300	0.875100	0.824900
H1611	H161	0.230900	0.709000	0.813900
H1621	H162	0.184700	0.748900	0.864700
H1631	H163	0.275400	0.671700	0.906400
H1641	H164	0.349900	0.702800	0.869700
H1651	H165	0.376700	0.770500	0.938200
H1661	H166	0.290300	0.805800	0.929200
H1671	H167	0.316600	0.697500	0.000800
H1681	H168	0.234300	0.739600	0.994300
H1691	H169	0.361900	0.766400	0.070900
H1701	H170	0.341500	0.833900	0.033500
H1711	H171	0.200700	0.821700	0.053600
H1721	H172	0.215200	0.749400	0.084000
H1731	H173	0.277500	0.829600	0.267600
H1741	H174	0.239000	0.932300	0.120900
H1751	H175	0.203900	0.921800	0.633500
H1761	H176	0.047700	0.984700	0.752300
H1771	H177	0.025100	0.832800	0.597400
H1781	H178	0.100700	0.864200	0.562000
H1791	H179	0.973500	0.886300	0.512700
H1801	H180	0.941800	0.927700	0.568200
H1811	H181	0.044400	0.013000	0.552800
H1821	H182	0.080100	0.970800	0.498800
H1831	H183	0.200100	0.567100	0.875800
H1841	H184	0.047300	0.534300	0.744800
H1851	H185	0.032000	0.673000	0.909800
H1861	H186	0.106100	0.638300	0.943900
H1871	H187	0.978800	0.615200	0.992200
H1881	H188	0.944700	0.578700	0.934800
H1891	H189	0.081200	0.528900	0.999400
H1901	H190	0.040400	0.491200	0.944800
H1911	H191	0.222300	0.338000	0.730100
H1921	H192	0.264900	0.431800	0.880100
H1931	H193	0.171400	0.686400	0.432900
H1941	H194	0.201800	0.755700	0.402900
H1951	H195	0.311200	0.665200	0.465900
H1961	H196	0.340100	0.735600	0.437100
H1971	H197	0.261400	0.796800	0.502000
H1981	H198	0.222100	0.728600	0.527700
H1991	H199	0.385500	0.765800	0.540200
H2001	H200	0.342400	0.700200	0.568500
H2011	H201	0.289800	0.834500	0.593800
H2021	H202	0.357700	0.797900	0.632200
H2031	H203	0.227800	0.792400	0.678900
H2041	H204	0.190600	0.751900	0.624300
H2051	H205	0.386500	0.612400	0.746200
H2061	H206	0.170600	0.626400	0.667600
H2071	H207	0.189900	0.519800	0.117600
H2081	H208	0.085200	0.580100	0.262700
H2091	H209	0.930900	0.607600	0.157200
H2101	H210	0.954000	0.634400	0.221200
H2111	H211	0.939100	0.726300	0.160900
H2121	H212	0.000900	0.694800	0.114500
H2131	H213	0.110700	0.712600	0.177500
H2141	H214	0.065000	0.782600	0.164800
H2151	H215	0.104800	0.771700	0.263300
H2161	H216	0.046200	0.706700	0.269700
H2171	H217	0.975000	0.833100	0.237000
H2181	H218	0.930300	0.770200	0.267600
H2191	H219	0.999200	0.800000	0.356800
H2201	H220	0.935100	0.856000	0.335100
H2211	H221	0.085900	0.906200	0.238800
H2221	H222	0.185600	0.975600	0.384300
H2231	H223	0.111900	0.108600	0.252200
H2241	H224	0.328700	0.124900	0.324900
H2251	H225	0.269100	0.291000	0.313900
H2261	H226	0.315300	0.251100	0.364700
H2271	H227	0.224600	0.328300	0.406400
H2281	H228	0.150100	0.297200	0.369700
H2291	H229	0.123300	0.229500	0.438200
H2301	H230	0.209700	0.194200	0.429200
H2311	H231	0.183400	0.302500	0.500800
H2321	H232	0.265700	0.260400	0.494300
H2331	H233	0.138100	0.233600	0.570900
H2341	H234	0.158500	0.166100	0.533500
H2351	H235	0.299300	0.178300	0.553600
H2361	H236	0.284800	0.250600	0.584000
H2371	H237	0.222500	0.170400	0.767600
H2381	H238	0.261000	0.067700	0.620900
H2391	H239	0.296100	0.078200	0.133500
H2401	H240	0.452300	0.015300	0.252300
H2411	H241	0.474900	0.167200	0.097400
H2421	H242	0.399300	0.135800	0.062000
H2431	H243	0.526500	0.113700	0.012700
H2441	H244	0.558200	0.072300	0.068200
H2451	H245	0.455600	0.987000	0.052800
H2461	H246	0.419900	0.029200	0.998800
H2471	H247	0.299900	0.432900	0.375800
H2481	H248	0.452700	0.465700	0.244800
H2491	H249	0.468000	0.327000	0.409800
H2501	H250	0.393900	0.361700	0.443900
H2511	H251	0.521200	0.384800	0.492200
H2521	H252	0.555300	0.421300	0.434800
H2531	H253	0.418800	0.471100	0.499400
H2541	H254	0.459600	0.508800	0.444800
H2551	H255	0.277700	0.662000	0.230100
H2561	H256	0.235100	0.568200	0.380100
C11	C1	0.718300	0.708900	0.086800
C21	C2	0.793800	0.712000	0.043600
C31	C3	0.773000	0.748700	0.988200
C41	C4	0.833300	0.747800	0.943900
C51	C5	0.808500	0.789700	0.892000
C61	C6	0.740700	0.759400	0.852300
C71	C7	0.841400	0.629800	0.775000
C81	C8	0.723300	0.636300	0.817100
C91	C9	0.652300	0.539500	0.355800
C101	C10	0.596600	0.571200	0.277100
C111	C11	0.473700	0.630800	0.319500
C121	C12	0.489500	0.699100	0.343300
C131	C13	0.559600	0.738000	0.315300
C141	C14	0.552900	0.750900	0.250400
C151	C15	0.481100	0.797900	0.232500
C161	C16	0.487600	0.833700	0.174200
C171	C17	0.598000	0.914400	0.221300
C181	C18	0.651200	0.951500	0.142000
C191	C19	0.657700	0.126000	0.227100
C201	C20	0.774700	0.133500	0.188200
C211	C21	0.761600	0.257400	0.154400
C221	C22	0.701700	0.285700	0.110100
C231	C23	0.683000	0.238000	0.061800
C241	C24	0.705000	0.256300	0.006300
C251	C25	0.679700	0.211000	0.953600
C261	C26	0.760900	0.204700	0.922000
C271	C27	0.731500	0.160200	0.772300
C281	C28	0.751900	0.102900	0.851600
C291	C29	0.844800	0.068400	0.345700
C301	C30	0.930900	0.034500	0.282400
C311	C31	0.948300	0.124100	0.414900
C321	C32	0.009000	0.084000	0.454700
C331	C33	0.970500	0.017900	0.479700
C341	C34	0.847100	0.433000	0.148300
C351	C35	0.931100	0.450900	0.218900
C361	C36	0.943400	0.371200	0.079600
C371	C37	0.005400	0.412400	0.041900
C381	C38	0.971300	0.479900	0.020900
C391	C39	0.765700	0.654600	0.229900
C401	C40	0.742500	0.601900	0.149100
C411	C41	0.781700	0.291100	0.586800
C421	C42	0.706200	0.288000	0.543600
C431	C43	0.727000	0.251300	0.488200
C441	C44	0.666700	0.252200	0.443900
C451	C45	0.691500	0.210300	0.392000
C461	C46	0.759300	0.240600	0.352300
C471	C47	0.658600	0.370200	0.275000
C481	C48	0.776700	0.363700	0.317100
C491	C49	0.847700	0.460500	0.855800
C501	C50	0.903400	0.428800	0.777100
C511	C51	0.026300	0.369200	0.819500
C521	C52	0.010500	0.300900	0.843300
C531	C53	0.940400	0.262000	0.815300
C541	C54	0.947100	0.249100	0.750400
C551	C55	0.018900	0.202100	0.732500
C561	C56	0.012400	0.166300	0.674200
C571	C57	0.902000	0.085600	0.721300
C581	C58	0.848800	0.048500	0.642000
C591	C59	0.842300	0.874000	0.727100
C601	C60	0.725300	0.866500	0.688200
C611	C61	0.738400	0.742600	0.654400
C621	C62	0.798300	0.714300	0.610100
C631	C63	0.817000	0.762000	0.561800
C641	C64	0.795000	0.743700	0.506300
C651	C65	0.820300	0.789000	0.453600
C661	C66	0.739100	0.795300	0.422000
C671	C67	0.768500	0.839800	0.272300
C681	C68	0.748100	0.897100	0.351600
C691	C69	0.655200	0.931600	0.845700
C701	C70	0.569100	0.965500	0.782400
C711	C71	0.551700	0.875900	0.914900
C721	C72	0.491000	0.916000	0.954700
C731	C73	0.529500	0.982100	0.979700
C741	C74	0.652900	0.567000	0.648300
C751	C75	0.568900	0.549100	0.718900
C761	C76	0.556600	0.628800	0.579600
C771	C77	0.494600	0.587600	0.541900
C781	C78	0.528700	0.520100	0.520900
C791	C79	0.734300	0.345400	0.729900
C801	C80	0.757500	0.398100	0.649100
C811	C81	0.281700	0.291100	0.913200
C821	C82	0.206200	0.288000	0.956400
C831	C83	0.227000	0.251300	0.011800
C841	C84	0.166700	0.252200	0.056100
C851	C85	0.191500	0.210300	0.108000
C861	C86	0.259300	0.240600	0.147700
C871	C87	0.158600	0.370200	0.225000
C881	C88	0.276700	0.363700	0.182900
C891	C89	0.347700	0.460500	0.644200
C901	C90	0.403400	0.428800	0.722900
C911	C91	0.526300	0.369200	0.680500
C921	C92	0.510500	0.300900	0.656700
C931	C93	0.440400	0.262000	0.684700
C941	C94	0.447100	0.249100	0.749600
C951	C95	0.518900	0.202100	0.767500
C961	C96	0.512400	0.166300	0.825800
C971	C97	0.402000	0.085600	0.778700
C981	C98	0.348800	0.048500	0.858000
C991	C99	0.342300	0.874000	0.772900
C1001	C100	0.225300	0.866500	0.811800
C1011	C101	0.238400	0.742600	0.845600
C1021	C102	0.298300	0.714300	0.889900
C1031	C103	0.317000	0.762000	0.938200
C1041	C104	0.295000	0.743700	0.993700
C1051	C105	0.320300	0.789000	0.046400
C1061	C106	0.239100	0.795300	0.078000
C1071	C107	0.268500	0.839800	0.227700
C1081	C108	0.248100	0.897100	0.148400
C1091	C109	0.155200	0.931600	0.654300
C1101	C110	0.069100	0.965500	0.717600
C1111	C111	0.051700	0.875900	0.585100
C1121	C112	0.991000	0.916000	0.545300
C1131	C113	0.029500	0.982100	0.520300
C1141	C114	0.152900	0.567000	0.851700
C1151	C115	0.068900	0.549100	0.781100
C1161	C116	0.056600	0.628800	0.920400
C1171	C117	0.994600	0.587600	0.958100
C1181	C118	0.028700	0.520100	0.979100
C1191	C119	0.234300	0.345400	0.770100
C1201	C120	0.257500	0.398100	0.850900
C1211	C121	0.218300	0.708900	0.413200
C1221	C122	0.293800	0.712000	0.456400
C1231	C123	0.273000	0.748700	0.511800
C1241	C124	0.333300	0.747800	0.556100
C1251	C125	0.308500	0.789700	0.608000
C1261	C126	0.240700	0.759400	0.647700
C1271	C127	0.341400	0.629800	0.725000
C1281	C128	0.223300	0.636300	0.682900
C1291	C129	0.152300	0.539500	0.144200
C1301	C130	0.096600	0.571200	0.222900
C1311	C131	0.973700	0.630800	0.180500
C1321	C132	0.989500	0.699100	0.156700
C1331	C133	0.059600	0.738000	0.184700
C1341	C134	0.052900	0.750900	0.249600
C1351	C135	0.981100	0.797900	0.267500
C1361	C136	0.987600	0.833700	0.325800
C1371	C137	0.098000	0.914400	0.278700
C1381	C138	0.151200	0.951500	0.358000
C1391	C139	0.157700	0.126000	0.272900
C1401	C140	0.274700	0.133500	0.311800
C1411	C141	0.261600	0.257400	0.345600
C1421	C142	0.201700	0.285700	0.389900
C1431	C143	0.183000	0.238000	0.438200
C1441	C144	0.205000	0.256300	0.493700
C1451	C145	0.179700	0.211000	0.546400
C1461	C146	0.260900	0.204700	0.578000
C1471	C147	0.231500	0.160200	0.727700
C1481	C148	0.251900	0.102900	0.648400
C1491	C149	0.344800	0.068400	0.154300
C1501	C150	0.430900	0.034500	0.217600
C1511	C151	0.448300	0.124100	0.085100
C1521	C152	0.509000	0.084000	0.045300
C1531	C153	0.470500	0.017900	0.020300
C1541	C154	0.347100	0.433000	0.351700
C1551	C155	0.431100	0.450900	0.281100
C1561	C156	0.443400	0.371200	0.420400
C1571	C157	0.505400	0.412400	0.458100
C1581	C158	0.471300	0.479900	0.479100
C1591	C159	0.265700	0.654600	0.270100
C1601	C160	0.242500	0.601900	0.350900
N11	N1	0.758800	0.589700	0.205200
N21	N2	0.753800	0.705700	0.191400
N31	N3	0.738300	0.671000	0.140500
N41	N4	0.841100	0.690600	0.800500
N51	N5	0.766100	0.694000	0.825600
N61	N6	0.768100	0.594600	0.783000
N71	N7	0.662400	0.536900	0.297100
N81	N8	0.550900	0.590200	0.321100
N91	N9	0.586600	0.571400	0.372700
N101	N10	0.660000	0.955700	0.201700
N111	N11	0.590300	0.910800	0.124000
N121	N12	0.556800	0.887400	0.176600
N131	N13	0.727300	0.088500	0.218100
N141	N14	0.734500	0.191700	0.179900
N151	N15	0.659100	0.188600	0.204600
N161	N16	0.750200	0.169600	0.863300
N171	N17	0.738800	0.206400	0.812700
N181	N18	0.738400	0.094100	0.794000
N191	N19	0.848800	0.034800	0.295300
N201	N20	0.977000	0.063100	0.322300
N211	N21	0.922100	0.086500	0.362400
N221	N22	0.851500	0.458900	0.202500
N231	N23	0.975300	0.419900	0.177800
N241	N24	0.919100	0.407800	0.134100
N251	N25	0.741200	0.410300	0.705200
N261	N26	0.746200	0.294300	0.691400
N271	N27	0.761700	0.329000	0.640500
N281	N28	0.658900	0.309400	0.300500
N291	N29	0.733900	0.306000	0.325600
N301	N30	0.731900	0.405400	0.283000
N311	N31	0.837600	0.463100	0.797100
N321	N32	0.949100	0.409800	0.821100
N331	N33	0.913400	0.428600	0.872700
N341	N34	0.840000	0.044300	0.701700
N351	N35	0.909700	0.089200	0.624000
N361	N36	0.943200	0.112600	0.676600
N371	N37	0.772700	0.911500	0.718100
N381	N38	0.765500	0.808300	0.679900
N391	N39	0.840900	0.811400	0.704600
N401	N40	0.749800	0.830400	0.363300
N411	N41	0.761200	0.793600	0.312700
N421	N42	0.761600	0.905900	0.294000
N431	N43	0.651200	0.965200	0.795300
N441	N44	0.523000	0.936900	0.822300
N451	N45	0.577900	0.913500	0.862400
N461	N46	0.648500	0.541100	0.702500
N471	N47	0.524700	0.580100	0.677800
N481	N48	0.580900	0.592200	0.634100
N491	N49	0.241200	0.410300	0.794800
N501	N50	0.246200	0.294300	0.808600
N511	N51	0.261700	0.329000	0.859500
N521	N52	0.158900	0.309400	0.199500
N531	N53	0.233900	0.306000	0.174400
N541	N54	0.231900	0.405400	0.217000
N551	N55	0.337600	0.463100	0.702900
N561	N56	0.449100	0.409800	0.678900
N571	N57	0.413400	0.428600	0.627300
N581	N58	0.340000	0.044300	0.798300
N591	N59	0.409700	0.089200	0.876000
N601	N60	0.443200	0.112600	0.823400
N611	N61	0.272700	0.911500	0.781900
N621	N62	0.265500	0.808300	0.820100
N631	N63	0.340900	0.811400	0.795400
N641	N64	0.249800	0.830400	0.136700
N651	N65	0.261200	0.793600	0.187300
N661	N66	0.261600	0.905900	0.206000
N671	N67	0.151200	0.965200	0.704700
N681	N68	0.023000	0.936900	0.677700
N691	N69	0.077900	0.913500	0.637600
N701	N70	0.148500	0.541100	0.797500
N711	N71	0.024700	0.580100	0.822200
N721	N72	0.080900	0.592200	0.865900
N731	N73	0.258800	0.589700	0.294800
N741	N74	0.253800	0.705700	0.308600
N751	N75	0.238300	0.671000	0.359500
N761	N76	0.341100	0.690600	0.699500
N771	N77	0.266100	0.694000	0.674400
N781	N78	0.268100	0.594600	0.717000
N791	N79	0.162400	0.536900	0.202900
N801	N80	0.050900	0.590200	0.178900
N811	N81	0.086600	0.571400	0.127300
N821	N82	0.160000	0.955700	0.298300
N831	N83	0.090300	0.910800	0.376000
N841	N84	0.056800	0.887400	0.323400
N851	N85	0.227300	0.088500	0.281900
N861	N86	0.234500	0.191700	0.320100
N871	N87	0.159100	0.188600	0.295400
N881	N88	0.250200	0.169600	0.636700
N891	N89	0.238800	0.206400	0.687300
N901	N90	0.238400	0.094100	0.706000
N911	N91	0.348800	0.034800	0.204700
N921	N92	0.477000	0.063100	0.177700
N931	N93	0.422100	0.086500	0.137600
N941	N94	0.351500	0.458900	0.297500
N951	N95	0.475300	0.419900	0.322200
N961	N96	0.419100	0.407800	0.365900
