data_TEJGEW_freeONLY_PM
_symmetry_space_group_name_H-M	'P1'
_cell_length_a	10.228800
_cell_length_b	11.296200
_cell_length_c	22.268900
_cell_angle_alpha	90.000000
_cell_angle_beta	97.066200
_cell_angle_gamma	90.000000
_symmetry_Int_Tables_number 1

loop_
_symmetry_equiv_pos_as_xyz
'x,y,z'

loop_
_atom_site_label
_atom_site_type_symbol
_atom_site_fract_x
_atom_site_fract_y
_atom_site_fract_z
Gd11	Gd1	0.611190	0.685320	0.225150
Gd21	Gd2	0.241630	0.909140	0.435800
Gd31	Gd3	0.888810	0.185320	0.274850
Gd41	Gd4	0.258370	0.409140	0.064200
Gd51	Gd5	0.388810	0.314680	0.774850
Gd61	Gd6	0.758370	0.090860	0.564200
Gd71	Gd7	0.111190	0.814680	0.725150
Gd81	Gd8	0.741630	0.590860	0.935800
H11	H1	0.157300	0.966300	0.164600
H21	H2	0.119300	0.618600	0.162100
H31	H3	0.249900	0.890900	0.074400
H41	H4	0.310300	0.764300	0.086300
H51	H5	0.403000	0.875000	0.087400
H61	H6	0.119400	0.641100	0.272000
H71	H7	0.989500	0.591300	0.293200
H81	H8	0.009000	0.728300	0.287300
H91	H9	0.342700	0.466300	0.335400
H101	H10	0.380700	0.118600	0.337900
H111	H11	0.250100	0.390900	0.425600
H121	H12	0.189700	0.264300	0.413700
H131	H13	0.097000	0.375000	0.412600
H141	H14	0.380600	0.141100	0.228000
H151	H15	0.510500	0.091300	0.206800
H161	H16	0.491000	0.228300	0.212700
H171	H17	0.842700	0.033700	0.835400
H181	H18	0.880700	0.381400	0.837900
H191	H19	0.750100	0.109100	0.925600
H201	H20	0.689700	0.235700	0.913700
H211	H21	0.597000	0.125000	0.912600
H221	H22	0.880600	0.358900	0.728000
H231	H23	0.010500	0.408700	0.706800
H241	H24	0.991000	0.271700	0.712700
H251	H25	0.657300	0.533700	0.664600
H261	H26	0.619300	0.881400	0.662100
H271	H27	0.749900	0.609100	0.574400
H281	H28	0.810300	0.735700	0.586300
H291	H29	0.903000	0.625000	0.587400
H301	H30	0.619400	0.858900	0.772000
H311	H31	0.489500	0.908700	0.793200
H321	H32	0.509000	0.771700	0.787300
C11	C1	0.312200	0.861100	0.163300
C21	C2	0.348470	0.851500	0.261870
C31	C3	0.241120	0.924900	0.248720
C41	C4	0.319600	0.846500	0.096900
C51	C5	0.421030	0.810400	0.320330
C61	C6	0.158800	0.002100	0.284000
C71	C7	0.964170	0.647600	0.206070
C81	C8	0.826360	0.648900	0.123360
C91	C9	0.950000	0.630000	0.105800
C101	C10	0.026100	0.652500	0.270400
C111	C11	0.693290	0.653400	0.087590
C121	C12	0.009180	0.615000	0.048180
C131	C13	0.796260	0.907200	0.278360
C141	C14	0.738420	0.953500	0.215020
C151	C15	0.187800	0.361100	0.336700
C161	C16	0.151530	0.351500	0.238130
C171	C17	0.258880	0.424900	0.251280
C181	C18	0.180400	0.346500	0.403100
C191	C19	0.078970	0.310400	0.179670
C201	C20	0.341200	0.502100	0.216000
C211	C21	0.535830	0.147600	0.293930
C221	C22	0.673640	0.148900	0.376640
C231	C23	0.550000	0.130000	0.394200
C241	C24	0.473900	0.152500	0.229600
C251	C25	0.806710	0.153400	0.412410
C261	C26	0.490820	0.115000	0.451820
C271	C27	0.703740	0.407200	0.221640
C281	C28	0.761580	0.453500	0.284980
C291	C29	0.687800	0.138900	0.836700
C301	C30	0.651530	0.148500	0.738130
C311	C31	0.758880	0.075100	0.751280
C321	C32	0.680400	0.153500	0.903100
C331	C33	0.578970	0.189600	0.679670
C341	C34	0.841200	0.997900	0.716000
C351	C35	0.035830	0.352400	0.793930
C361	C36	0.173640	0.351100	0.876640
C371	C37	0.050000	0.370000	0.894200
C381	C38	0.973900	0.347500	0.729600
C391	C39	0.306710	0.346600	0.912410
C401	C40	0.990820	0.385000	0.951820
C411	C41	0.203740	0.092800	0.721640
C421	C42	0.261580	0.046500	0.784980
C431	C43	0.812200	0.638900	0.663300
C441	C44	0.848470	0.648500	0.761870
C451	C45	0.741120	0.575100	0.748720
C461	C46	0.819600	0.653500	0.596900
C471	C47	0.921030	0.689600	0.820330
C481	C48	0.658800	0.497900	0.784000
C491	C49	0.464170	0.852400	0.706070
C501	C50	0.326360	0.851100	0.623360
C511	C51	0.450000	0.870000	0.605800
C521	C52	0.526100	0.847500	0.770400
C531	C53	0.193290	0.846600	0.587590
C541	C54	0.509180	0.885000	0.548180
C551	C55	0.296260	0.592800	0.778360
C561	C56	0.238420	0.546500	0.715020
N11	N1	0.393440	0.812100	0.208840
N21	N2	0.219480	0.928100	0.185780
N31	N3	0.836640	0.659500	0.185540
N41	N4	0.035550	0.629100	0.159150
N51	N5	0.106560	0.312100	0.291160
N61	N6	0.280520	0.428100	0.314220
N71	N7	0.663360	0.159500	0.314460
N81	N8	0.464450	0.129100	0.340850
N91	N9	0.606560	0.187900	0.791160
N101	N10	0.780520	0.071900	0.814220
N111	N11	0.163360	0.340500	0.814460
N121	N12	0.964450	0.370900	0.840850
N131	N13	0.893440	0.687900	0.708840
N141	N14	0.719480	0.571900	0.685780
N151	N15	0.336640	0.840500	0.685540
N161	N16	0.535550	0.870900	0.659150
O11	O1	0.525060	0.751900	0.317360
O21	O2	0.378250	0.834500	0.369250
O31	O3	0.185360	0.010500	0.340260
O41	O4	0.069530	0.059100	0.251830
O51	O5	0.596370	0.676000	0.116070
O61	O6	0.680240	0.633000	0.031640
O71	O7	0.942250	0.636800	0.998250
O81	O8	0.128970	0.584000	0.054070
O91	O9	0.866710	0.977800	0.311710
O101	O10	0.769360	0.802000	0.291260
O111	O11	0.771830	0.055200	0.200230
O121	O12	0.659790	0.884600	0.183690
O131	O13	0.235900	0.688500	0.442000
O141	O14	0.018630	0.849800	0.400030
O151	O15	0.103850	0.071800	0.465450
O161	O16	0.974940	0.251900	0.182640
O171	O17	0.121750	0.334500	0.130750
O181	O18	0.314640	0.510500	0.159740
O191	O19	0.430470	0.559100	0.248170
O201	O20	0.903630	0.176000	0.383930
O211	O21	0.819760	0.133000	0.468360
O221	O22	0.557750	0.136800	0.501750
O231	O23	0.371030	0.084000	0.445930
O241	O24	0.633290	0.477800	0.188290
O251	O25	0.730640	0.302000	0.208740
O261	O26	0.728170	0.555200	0.299770
O271	O27	0.840210	0.384600	0.316310
O281	O28	0.264100	0.188500	0.058000
O291	O29	0.481370	0.349800	0.099970
O301	O30	0.396150	0.571800	0.034550
O311	O31	0.474940	0.248100	0.682640
O321	O32	0.621750	0.165500	0.630750
O331	O33	0.814640	0.989500	0.659740
O341	O34	0.930470	0.940900	0.748170
O351	O35	0.403630	0.324000	0.883930
O361	O36	0.319760	0.367000	0.968360
O371	O37	0.057750	0.363200	0.001750
O381	O38	0.871030	0.416000	0.945930
O391	O39	0.133290	0.022200	0.688290
O401	O40	0.230640	0.198000	0.708740
O411	O41	0.228170	0.944800	0.799770
O421	O42	0.340210	0.115400	0.816310
O431	O43	0.764100	0.311500	0.558000
O441	O44	0.981370	0.150200	0.599970
O451	O45	0.896150	0.928200	0.534550
O461	O46	0.025060	0.748100	0.817360
O471	O47	0.878250	0.665500	0.869250
O481	O48	0.685360	0.489500	0.840260
O491	O49	0.569530	0.440900	0.751830
O501	O50	0.096370	0.824000	0.616070
O511	O51	0.180240	0.867000	0.531640
O521	O52	0.442250	0.863200	0.498250
O531	O53	0.628970	0.916000	0.554070
O541	O54	0.366710	0.522200	0.811710
O551	O55	0.269360	0.698000	0.791260
O561	O56	0.271830	0.444800	0.700230
O571	O57	0.159790	0.615400	0.683690
O581	O58	0.735900	0.811500	0.942000
O591	O59	0.518630	0.650200	0.900030
O601	O60	0.603850	0.428200	0.965450
