data_TEMPAE_freeONLY_PM
_symmetry_space_group_name_H-M	'P1'
_cell_length_a	22.734500
_cell_length_b	22.734500
_cell_length_c	25.135400
_cell_angle_alpha	63.112400
_cell_angle_beta	63.112400
_cell_angle_gamma	60.000000
_symmetry_Int_Tables_number 1

loop_
_symmetry_equiv_pos_as_xyz
'x,y,z'

loop_
_atom_site_label
_atom_site_type_symbol
_atom_site_fract_x
_atom_site_fract_y
_atom_site_fract_z
Zn11	Zn1	0.180280	0.027260	0.737140
Zn21	Zn2	0.027260	0.055320	0.737140
Zn31	Zn3	0.055320	0.180280	0.737140
Zn41	Zn4	0.680280	0.555320	0.237140
Zn51	Zn5	0.527260	0.680280	0.237140
Zn61	Zn6	0.555320	0.527260	0.237140
Zn71	Zn7	0.048530	0.048530	0.854410
Zn81	Zn8	0.548530	0.548530	0.354410
H11	H1	0.323100	0.878600	0.849700
H21	H2	0.141400	0.882400	0.987700
H31	H3	0.437300	0.752800	0.941800
H41	H4	0.431500	0.832100	0.913000
H51	H5	0.435200	0.793600	0.872500
H61	H6	0.140400	0.836300	0.095100
H71	H7	0.211700	0.796700	0.112500
H81	H8	0.185100	0.756300	0.096900
H91	H9	0.396100	0.794600	0.125400
H101	H10	0.424600	0.605200	0.125700
H111	H11	0.345000	0.900200	0.003900
H121	H12	0.271300	0.900600	0.052800
H131	H13	0.328100	0.901600	0.071100
H141	H14	0.395400	0.632500	0.009600
H151	H15	0.352600	0.603300	0.078300
H161	H16	0.313300	0.672600	0.033300
H171	H17	0.878600	0.948600	0.849700
H181	H18	0.882400	0.988500	0.987700
H191	H19	0.752800	0.868100	0.941800
H201	H20	0.832100	0.823400	0.913000
H211	H21	0.793600	0.898700	0.872500
H221	H22	0.836300	0.928200	0.095100
H231	H23	0.796700	0.879100	0.112500
H241	H24	0.756300	0.961700	0.096900
H251	H25	0.794600	0.683900	0.125400
H261	H26	0.605200	0.844500	0.125700
H271	H27	0.900200	0.750900	0.003900
H281	H28	0.900600	0.775300	0.052800
H291	H29	0.901600	0.699200	0.071100
H301	H30	0.632500	0.962500	0.009600
H311	H31	0.603300	0.965800	0.078300
H321	H32	0.672600	0.980800	0.033300
H331	H33	0.948600	0.323100	0.849700
H341	H34	0.988500	0.141400	0.987700
H351	H35	0.868100	0.437300	0.941800
H361	H36	0.823400	0.431500	0.913000
H371	H37	0.898700	0.435200	0.872500
H381	H38	0.928200	0.140400	0.095100
H391	H39	0.879100	0.211700	0.112500
H401	H40	0.961700	0.185100	0.096900
H411	H41	0.683900	0.396100	0.125400
H421	H42	0.844500	0.424600	0.125700
H431	H43	0.750900	0.345000	0.003900
H441	H44	0.775300	0.271300	0.052800
H451	H45	0.699200	0.328100	0.071100
H461	H46	0.962500	0.395400	0.009600
H471	H47	0.965800	0.352600	0.078300
H481	H48	0.980800	0.313300	0.033300
H491	H49	0.823100	0.448600	0.349700
H501	H50	0.641400	0.488500	0.487700
H511	H51	0.937300	0.368100	0.441800
H521	H52	0.931500	0.323400	0.413000
H531	H53	0.935200	0.398700	0.372500
H541	H54	0.640400	0.428200	0.595100
H551	H55	0.711700	0.379100	0.612500
H561	H56	0.685100	0.461700	0.596900
H571	H57	0.896100	0.183900	0.625400
H581	H58	0.924600	0.344500	0.625700
H591	H59	0.845000	0.250900	0.503900
H601	H60	0.771300	0.275300	0.552800
H611	H61	0.828100	0.199200	0.571100
H621	H62	0.895400	0.462500	0.509600
H631	H63	0.852600	0.465800	0.578300
H641	H64	0.813300	0.480800	0.533300
H651	H65	0.378600	0.823100	0.349700
H661	H66	0.382400	0.641400	0.487700
H671	H67	0.252800	0.937300	0.441800
H681	H68	0.332100	0.931500	0.413000
H691	H69	0.293600	0.935200	0.372500
H701	H70	0.336300	0.640400	0.595100
H711	H71	0.296700	0.711700	0.612500
H721	H72	0.256300	0.685100	0.596900
H731	H73	0.294600	0.896100	0.625400
H741	H74	0.105200	0.924600	0.625700
H751	H75	0.400200	0.845000	0.503900
H761	H76	0.400600	0.771300	0.552800
H771	H77	0.401600	0.828100	0.571100
H781	H78	0.132500	0.895400	0.509600
H791	H79	0.103300	0.852600	0.578300
H801	H80	0.172600	0.813300	0.533300
H811	H81	0.448600	0.378600	0.349700
H821	H82	0.488500	0.382400	0.487700
H831	H83	0.368100	0.252800	0.441800
H841	H84	0.323400	0.332100	0.413000
H851	H85	0.398700	0.293600	0.372500
H861	H86	0.428200	0.336300	0.595100
H871	H87	0.379100	0.296700	0.612500
H881	H88	0.461700	0.256300	0.596900
H891	H89	0.183900	0.294600	0.625400
H901	H90	0.344500	0.105200	0.625700
H911	H91	0.250900	0.400200	0.503900
H921	H92	0.275300	0.400600	0.552800
H931	H93	0.199200	0.401600	0.571100
H941	H94	0.462500	0.132500	0.509600
H951	H95	0.465800	0.103300	0.578300
H961	H96	0.480800	0.172600	0.533300
C11	C1	0.184540	0.940740	0.866980
C21	C2	0.225450	0.889050	0.912550
C31	C3	0.299200	0.865800	0.892000
C41	C4	0.336650	0.822950	0.935950
C51	C5	0.302200	0.802800	0.998200
C61	C6	0.227680	0.823880	0.018960
C71	C7	0.190580	0.867480	0.974860
C81	C8	0.417760	0.797960	0.913720
C91	C9	0.187600	0.801200	0.087000
C101	C10	0.455700	0.657700	0.181200
C111	C11	0.414490	0.695690	0.133830
C121	C12	0.388410	0.768310	0.111270
C131	C13	0.351360	0.802860	0.068820
C141	C14	0.341770	0.764770	0.045990
C151	C15	0.369690	0.690290	0.066330
C161	C16	0.406330	0.654530	0.111210
C171	C17	0.321210	0.883810	0.047070
C181	C18	0.356570	0.645470	0.044790
C191	C19	0.940740	0.007740	0.866980
C201	C20	0.889050	0.972950	0.912550
C211	C21	0.865800	0.943000	0.892000
C221	C22	0.822950	0.904450	0.935950
C231	C23	0.802800	0.896800	0.998200
C241	C24	0.823880	0.929480	0.018960
C251	C25	0.867480	0.967080	0.974860
C261	C26	0.797960	0.870560	0.913720
C271	C27	0.801200	0.924200	0.087000
C281	C28	0.657700	0.705400	0.181200
C291	C29	0.695690	0.755990	0.133830
C301	C30	0.768310	0.732010	0.111270
C311	C31	0.802860	0.776960	0.068820
C321	C32	0.764770	0.847470	0.045990
C331	C33	0.690290	0.873690	0.066330
C341	C34	0.654530	0.827930	0.111210
C351	C35	0.883810	0.747910	0.047070
C361	C36	0.645470	0.953170	0.044790
C371	C37	0.007740	0.184540	0.866980
C381	C38	0.972950	0.225450	0.912550
C391	C39	0.943000	0.299200	0.892000
C401	C40	0.904450	0.336650	0.935950
C411	C41	0.896800	0.302200	0.998200
C421	C42	0.929480	0.227680	0.018960
C431	C43	0.967080	0.190580	0.974860
C441	C44	0.870560	0.417760	0.913720
C451	C45	0.924200	0.187600	0.087000
C461	C46	0.705400	0.455700	0.181200
C471	C47	0.755990	0.414490	0.133830
C481	C48	0.732010	0.388410	0.111270
C491	C49	0.776960	0.351360	0.068820
C501	C50	0.847470	0.341770	0.045990
C511	C51	0.873690	0.369690	0.066330
C521	C52	0.827930	0.406330	0.111210
C531	C53	0.747910	0.321210	0.047070
C541	C54	0.953170	0.356570	0.044790
C551	C55	0.684540	0.507740	0.366980
C561	C56	0.725450	0.472950	0.412550
C571	C57	0.799200	0.443000	0.392000
C581	C58	0.836650	0.404450	0.435950
C591	C59	0.802200	0.396800	0.498200
C601	C60	0.727680	0.429480	0.518960
C611	C61	0.690580	0.467080	0.474860
C621	C62	0.917760	0.370560	0.413720
C631	C63	0.687600	0.424200	0.587000
C641	C64	0.955700	0.205400	0.681200
C651	C65	0.914490	0.255990	0.633830
C661	C66	0.888410	0.232010	0.611270
C671	C67	0.851360	0.276960	0.568820
C681	C68	0.841770	0.347470	0.545990
C691	C69	0.869690	0.373690	0.566330
C701	C70	0.906330	0.327930	0.611210
C711	C71	0.821210	0.247910	0.547070
C721	C72	0.856570	0.453170	0.544790
C731	C73	0.440740	0.684540	0.366980
C741	C74	0.389050	0.725450	0.412550
C751	C75	0.365800	0.799200	0.392000
C761	C76	0.322950	0.836650	0.435950
C771	C77	0.302800	0.802200	0.498200
C781	C78	0.323880	0.727680	0.518960
C791	C79	0.367480	0.690580	0.474860
C801	C80	0.297960	0.917760	0.413720
C811	C81	0.301200	0.687600	0.587000
C821	C82	0.157700	0.955700	0.681200
C831	C83	0.195690	0.914490	0.633830
C841	C84	0.268310	0.888410	0.611270
C851	C85	0.302860	0.851360	0.568820
C861	C86	0.264770	0.841770	0.545990
C871	C87	0.190290	0.869690	0.566330
C881	C88	0.154530	0.906330	0.611210
C891	C89	0.383810	0.821210	0.547070
C901	C90	0.145470	0.856570	0.544790
C911	C91	0.507740	0.440740	0.366980
C921	C92	0.472950	0.389050	0.412550
C931	C93	0.443000	0.365800	0.392000
C941	C94	0.404450	0.322950	0.435950
C951	C95	0.396800	0.302800	0.498200
C961	C96	0.429480	0.323880	0.518960
C971	C97	0.467080	0.367480	0.474860
C981	C98	0.370560	0.297960	0.413720
C991	C99	0.424200	0.301200	0.587000
C1001	C100	0.205400	0.157700	0.681200
C1011	C101	0.255990	0.195690	0.633830
C1021	C102	0.232010	0.268310	0.611270
C1031	C103	0.276960	0.302860	0.568820
C1041	C104	0.347470	0.264770	0.545990
C1051	C105	0.373690	0.190290	0.566330
C1061	C106	0.327930	0.154530	0.611210
C1071	C107	0.247910	0.383810	0.547070
C1081	C108	0.453170	0.145470	0.544790
O11	O1	0.216950	0.962810	0.810460
O21	O2	0.117110	0.961090	0.889390
O31	O3	0.484310	0.589510	0.194070
O41	O4	0.464570	0.700370	0.195990
O51	O5	0.962810	0.009780	0.810460
O61	O6	0.961090	0.032410	0.889390
O71	O7	0.589510	0.732110	0.194070
O81	O8	0.700370	0.639070	0.195990
O91	O9	0.009780	0.216950	0.810460
O101	O10	0.032410	0.117110	0.889390
O111	O11	0.732110	0.484310	0.194070
O121	O12	0.639070	0.464570	0.195990
O131	O13	0.716950	0.509780	0.310460
O141	O14	0.617110	0.532410	0.389390
O151	O15	0.984310	0.232110	0.694070
O161	O16	0.964570	0.139070	0.695990
O171	O17	0.462810	0.716950	0.310460
O181	O18	0.461090	0.617110	0.389390
O191	O19	0.089510	0.984310	0.694070
O201	O20	0.200370	0.964570	0.695990
O211	O21	0.509780	0.462810	0.310460
O221	O22	0.532410	0.461090	0.389390
O231	O23	0.232110	0.089510	0.694070
O241	O24	0.139070	0.200370	0.695990
O251	O25	0.078410	0.078410	0.764770
O261	O26	0.578410	0.578410	0.264770
Zn91	Zn9	0.319720	0.444680	0.762860
Zn101	Zn10	0.472740	0.319720	0.762860
Zn111	Zn11	0.444680	0.472740	0.762860
Zn121	Zn12	0.819720	0.972740	0.262860
Zn131	Zn13	0.972740	0.944680	0.262860
Zn141	Zn14	0.944680	0.819720	0.262860
Zn151	Zn15	0.451470	0.451470	0.645590
Zn161	Zn16	0.951470	0.951470	0.145590
H971	H97	0.176900	0.551400	0.650300
H981	H98	0.358600	0.511500	0.512300
H991	H99	0.062700	0.631900	0.558200
H1001	H100	0.068500	0.676600	0.587000
H1011	H101	0.064800	0.601300	0.627500
H1021	H102	0.359600	0.571800	0.404900
H1031	H103	0.288300	0.620900	0.387500
H1041	H104	0.314900	0.538300	0.403100
H1051	H105	0.103900	0.816100	0.374600
H1061	H106	0.075400	0.655500	0.374300
H1071	H107	0.155000	0.749100	0.496100
H1081	H108	0.228700	0.724700	0.447200
H1091	H109	0.171900	0.800800	0.428900
H1101	H110	0.104600	0.537500	0.490400
H1111	H111	0.147400	0.534200	0.421700
H1121	H112	0.186700	0.519200	0.466700
H1131	H113	0.621400	0.176900	0.650300
H1141	H114	0.617600	0.358600	0.512300
H1151	H115	0.747200	0.062700	0.558200
H1161	H116	0.667900	0.068500	0.587000
H1171	H117	0.706400	0.064800	0.627500
H1181	H118	0.663700	0.359600	0.404900
H1191	H119	0.703300	0.288300	0.387500
H1201	H120	0.743700	0.314900	0.403100
H1211	H121	0.705400	0.103900	0.374600
H1221	H122	0.894800	0.075400	0.374300
H1231	H123	0.599800	0.155000	0.496100
H1241	H124	0.599400	0.228700	0.447200
H1251	H125	0.598400	0.171900	0.428900
H1261	H126	0.867500	0.104600	0.490400
H1271	H127	0.896700	0.147400	0.421700
H1281	H128	0.827400	0.186700	0.466700
H1291	H129	0.551400	0.621400	0.650300
H1301	H130	0.511500	0.617600	0.512300
H1311	H131	0.631900	0.747200	0.558200
H1321	H132	0.676600	0.667900	0.587000
H1331	H133	0.601300	0.706400	0.627500
H1341	H134	0.571800	0.663700	0.404900
H1351	H135	0.620900	0.703300	0.387500
H1361	H136	0.538300	0.743700	0.403100
H1371	H137	0.816100	0.705400	0.374600
H1381	H138	0.655500	0.894800	0.374300
H1391	H139	0.749100	0.599800	0.496100
H1401	H140	0.724700	0.599400	0.447200
H1411	H141	0.800800	0.598400	0.428900
H1421	H142	0.537500	0.867500	0.490400
H1431	H143	0.534200	0.896700	0.421700
H1441	H144	0.519200	0.827400	0.466700
H1451	H145	0.676900	0.121400	0.150300
H1461	H146	0.858600	0.117600	0.012300
H1471	H147	0.562700	0.247200	0.058200
H1481	H148	0.568500	0.167900	0.087000
H1491	H149	0.564800	0.206400	0.127500
H1501	H150	0.859600	0.163700	0.904900
H1511	H151	0.788300	0.203300	0.887500
H1521	H152	0.814900	0.243700	0.903100
H1531	H153	0.603900	0.205400	0.874600
H1541	H154	0.575400	0.394800	0.874300
H1551	H155	0.655000	0.099800	0.996100
H1561	H156	0.728700	0.099400	0.947200
H1571	H157	0.671900	0.098400	0.928900
H1581	H158	0.604600	0.367500	0.990400
H1591	H159	0.647400	0.396700	0.921700
H1601	H160	0.686700	0.327400	0.966700
H1611	H161	0.121400	0.051400	0.150300
H1621	H162	0.117600	0.011500	0.012300
H1631	H163	0.247200	0.131900	0.058200
H1641	H164	0.167900	0.176600	0.087000
H1651	H165	0.206400	0.101300	0.127500
H1661	H166	0.163700	0.071800	0.904900
H1671	H167	0.203300	0.120900	0.887500
H1681	H168	0.243700	0.038300	0.903100
H1691	H169	0.205400	0.316100	0.874600
H1701	H170	0.394800	0.155500	0.874300
H1711	H171	0.099800	0.249100	0.996100
H1721	H172	0.099400	0.224700	0.947200
H1731	H173	0.098400	0.300800	0.928900
H1741	H174	0.367500	0.037500	0.990400
H1751	H175	0.396700	0.034200	0.921700
H1761	H176	0.327400	0.019200	0.966700
H1771	H177	0.051400	0.676900	0.150300
H1781	H178	0.011500	0.858600	0.012300
H1791	H179	0.131900	0.562700	0.058200
H1801	H180	0.176600	0.568500	0.087000
H1811	H181	0.101300	0.564800	0.127500
H1821	H182	0.071800	0.859600	0.904900
H1831	H183	0.120900	0.788300	0.887500
H1841	H184	0.038300	0.814900	0.903100
H1851	H185	0.316100	0.603900	0.874600
H1861	H186	0.155500	0.575400	0.874300
H1871	H187	0.249100	0.655000	0.996100
H1881	H188	0.224700	0.728700	0.947200
H1891	H189	0.300800	0.671900	0.928900
H1901	H190	0.037500	0.604600	0.990400
H1911	H191	0.034200	0.647400	0.921700
H1921	H192	0.019200	0.686700	0.966700
C1091	C109	0.315460	0.492260	0.633020
C1101	C110	0.274550	0.527050	0.587450
C1111	C111	0.200800	0.557000	0.608000
C1121	C112	0.163350	0.595550	0.564050
C1131	C113	0.197800	0.603200	0.501800
C1141	C114	0.272320	0.570520	0.481040
C1151	C115	0.309420	0.532920	0.525140
C1161	C116	0.082240	0.629440	0.586280
C1171	C117	0.312400	0.575800	0.413000
C1181	C118	0.044300	0.794600	0.318800
C1191	C119	0.085510	0.744010	0.366170
C1201	C120	0.111590	0.767990	0.388730
C1211	C121	0.148640	0.723040	0.431180
C1221	C122	0.158230	0.652530	0.454010
C1231	C123	0.130310	0.626310	0.433670
C1241	C124	0.093670	0.672070	0.388790
C1251	C125	0.178790	0.752090	0.452930
C1261	C126	0.143430	0.546830	0.455210
C1271	C127	0.559260	0.315460	0.633020
C1281	C128	0.610950	0.274550	0.587450
C1291	C129	0.634200	0.200800	0.608000
C1301	C130	0.677050	0.163350	0.564050
C1311	C131	0.697200	0.197800	0.501800
C1321	C132	0.676120	0.272320	0.481040
C1331	C133	0.632520	0.309420	0.525140
C1341	C134	0.702040	0.082240	0.586280
C1351	C135	0.698800	0.312400	0.413000
C1361	C136	0.842300	0.044300	0.318800
C1371	C137	0.804310	0.085510	0.366170
C1381	C138	0.731690	0.111590	0.388730
C1391	C139	0.697140	0.148640	0.431180
C1401	C140	0.735230	0.158230	0.454010
C1411	C141	0.809710	0.130310	0.433670
C1421	C142	0.845470	0.093670	0.388790
C1431	C143	0.616190	0.178790	0.452930
C1441	C144	0.854530	0.143430	0.455210
C1451	C145	0.492260	0.559260	0.633020
C1461	C146	0.527050	0.610950	0.587450
C1471	C147	0.557000	0.634200	0.608000
C1481	C148	0.595550	0.677050	0.564050
C1491	C149	0.603200	0.697200	0.501800
C1501	C150	0.570520	0.676120	0.481040
C1511	C151	0.532920	0.632520	0.525140
C1521	C152	0.629440	0.702040	0.586280
C1531	C153	0.575800	0.698800	0.413000
C1541	C154	0.794600	0.842300	0.318800
C1551	C155	0.744010	0.804310	0.366170
C1561	C156	0.767990	0.731690	0.388730
C1571	C157	0.723040	0.697140	0.431180
C1581	C158	0.652530	0.735230	0.454010
C1591	C159	0.626310	0.809710	0.433670
C1601	C160	0.672070	0.845470	0.388790
C1611	C161	0.752090	0.616190	0.452930
C1621	C162	0.546830	0.854530	0.455210
C1631	C163	0.815460	0.059260	0.133020
C1641	C164	0.774550	0.110950	0.087450
C1651	C165	0.700800	0.134200	0.108000
C1661	C166	0.663350	0.177050	0.064050
C1671	C167	0.697800	0.197200	0.001800
C1681	C168	0.772320	0.176120	0.981040
C1691	C169	0.809420	0.132520	0.025140
C1701	C170	0.582240	0.202040	0.086280
C1711	C171	0.812400	0.198800	0.913000
C1721	C172	0.544300	0.342300	0.818800
C1731	C173	0.585510	0.304310	0.866170
C1741	C174	0.611590	0.231690	0.888730
C1751	C175	0.648640	0.197140	0.931180
C1761	C176	0.658230	0.235230	0.954010
C1771	C177	0.630310	0.309710	0.933670
C1781	C178	0.593670	0.345470	0.888790
C1791	C179	0.678790	0.116190	0.952930
C1801	C180	0.643430	0.354530	0.955210
C1811	C181	0.059260	0.992260	0.133020
C1821	C182	0.110950	0.027050	0.087450
C1831	C183	0.134200	0.057000	0.108000
C1841	C184	0.177050	0.095550	0.064050
C1851	C185	0.197200	0.103200	0.001800
C1861	C186	0.176120	0.070520	0.981040
C1871	C187	0.132520	0.032920	0.025140
C1881	C188	0.202040	0.129440	0.086280
C1891	C189	0.198800	0.075800	0.913000
C1901	C190	0.342300	0.294600	0.818800
C1911	C191	0.304310	0.244010	0.866170
C1921	C192	0.231690	0.267990	0.888730
C1931	C193	0.197140	0.223040	0.931180
C1941	C194	0.235230	0.152530	0.954010
C1951	C195	0.309710	0.126310	0.933670
C1961	C196	0.345470	0.172070	0.888790
C1971	C197	0.116190	0.252090	0.952930
C1981	C198	0.354530	0.046830	0.955210
C1991	C199	0.992260	0.815460	0.133020
C2001	C200	0.027050	0.774550	0.087450
C2011	C201	0.057000	0.700800	0.108000
C2021	C202	0.095550	0.663350	0.064050
C2031	C203	0.103200	0.697800	0.001800
C2041	C204	0.070520	0.772320	0.981040
C2051	C205	0.032920	0.809420	0.025140
C2061	C206	0.129440	0.582240	0.086280
C2071	C207	0.075800	0.812400	0.913000
C2081	C208	0.294600	0.544300	0.818800
C2091	C209	0.244010	0.585510	0.866170
C2101	C210	0.267990	0.611590	0.888730
C2111	C211	0.223040	0.648640	0.931180
C2121	C212	0.152530	0.658230	0.954010
C2131	C213	0.126310	0.630310	0.933670
C2141	C214	0.172070	0.593670	0.888790
C2151	C215	0.252090	0.678790	0.952930
C2161	C216	0.046830	0.643430	0.955210
O271	O27	0.283050	0.490220	0.689540
O281	O28	0.382890	0.467590	0.610610
O291	O29	0.015690	0.767890	0.305930
O301	O30	0.035430	0.860930	0.304010
O311	O31	0.537190	0.283050	0.689540
O321	O32	0.538910	0.382890	0.610610
O331	O33	0.910490	0.015690	0.305930
O341	O34	0.799630	0.035430	0.304010
O351	O35	0.490220	0.537190	0.689540
O361	O36	0.467590	0.538910	0.610610
O371	O37	0.767890	0.910490	0.305930
O381	O38	0.860930	0.799630	0.304010
O391	O39	0.783050	0.037190	0.189540
O401	O40	0.882890	0.038910	0.110610
O411	O41	0.515690	0.410490	0.805930
O421	O42	0.535430	0.299630	0.804010
O431	O43	0.037190	0.990220	0.189540
O441	O44	0.038910	0.967590	0.110610
O451	O45	0.410490	0.267890	0.805930
O461	O46	0.299630	0.360930	0.804010
O471	O47	0.990220	0.783050	0.189540
O481	O48	0.967590	0.882890	0.110610
O491	O49	0.267890	0.515690	0.805930
O501	O50	0.360930	0.535430	0.804010
O511	O51	0.421590	0.421590	0.735230
O521	O52	0.921590	0.921590	0.235230
