data_TENLIJ_freeONLY_PM
_symmetry_space_group_name_H-M	'P1'
_cell_length_a	17.517600
_cell_length_b	17.517600
_cell_length_c	17.517600
_cell_angle_alpha	95.718800
_cell_angle_beta	116.755000
_cell_angle_gamma	116.755000
_symmetry_Int_Tables_number 1

loop_
_symmetry_equiv_pos_as_xyz
'x,y,z'

loop_
_atom_site_label
_atom_site_type_symbol
_atom_site_fract_x
_atom_site_fract_y
_atom_site_fract_z
Zn11	Zn1	0.011320	0.450920	0.772380
Zn21	Zn2	0.488680	0.261060	0.439600
Zn31	Zn3	0.678540	0.227620	0.738940
Zn41	Zn4	0.821460	0.560400	0.549080
H11	H1	0.873400	0.534100	0.931100
H21	H2	0.014200	0.683900	0.024300
H31	H3	0.149500	0.741100	0.999000
H41	H4	0.188300	0.444600	0.813700
H51	H5	0.250000	0.351900	0.844300
H61	H6	0.996900	0.176600	0.833700
H71	H7	0.945700	0.273600	0.800100
H81	H8	0.302300	0.263600	0.910100
H91	H9	0.235700	0.209800	0.802500
H101	H10	0.626600	0.557700	0.660700
H111	H11	0.485800	0.510100	0.669700
H121	H12	0.350500	0.349500	0.591600
H131	H13	0.311700	0.125400	0.256300
H141	H14	0.250000	0.094300	0.101900
H151	H15	0.503100	0.336800	0.179700
H161	H16	0.554300	0.354400	0.327900
H171	H17	0.197700	0.107800	0.961300
H181	H18	0.264300	0.066800	0.974100
H191	H19	0.603000	0.068900	0.442300
H201	H20	0.659600	0.975700	0.489900
H211	H21	0.742100	0.001000	0.650500
H221	H22	0.630900	0.186300	0.874600
H231	H23	0.507600	0.155700	0.905700
H241	H24	0.342900	0.166300	0.663200
H251	H25	0.473500	0.199900	0.645600
H261	H26	0.353500	0.089900	0.892200
H271	H27	0.407300	0.197500	0.933200
H281	H28	0.897000	0.339300	0.465900
H291	H29	0.840400	0.330300	0.316100
H301	H30	0.757900	0.408400	0.258900
H311	H31	0.869100	0.743700	0.555400
H321	H32	0.992400	0.898100	0.648100
H331	H33	0.157100	0.820300	0.823400
H341	H34	0.026500	0.672100	0.726400
H351	H35	0.146500	0.038700	0.736400
H361	H36	0.092700	0.025900	0.790200
C11	C1	0.850800	0.398300	0.811300
C21	C2	0.932000	0.500100	0.869300
C31	C3	0.930600	0.556900	0.927700
C41	C4	0.012000	0.646300	0.980900
C51	C5	0.094000	0.679700	0.966900
C61	C6	0.089200	0.620400	0.906200
C71	C7	0.169000	0.642800	0.886000
C81	C8	0.149400	0.389800	0.818200
C91	C9	0.187100	0.334100	0.835600
C101	C10	0.128500	0.252200	0.839500
C111	C11	0.037500	0.230400	0.828900
C121	C12	0.009300	0.290600	0.811100
C131	C13	0.241600	0.206000	0.859600
C141	C14	0.649200	0.460500	0.547500
C151	C15	0.568000	0.437300	0.568100
C161	C16	0.569400	0.497100	0.626300
C171	C17	0.488000	0.468900	0.634300
C181	C18	0.406000	0.372900	0.585700
C191	C19	0.410800	0.317000	0.531200
C201	C20	0.331000	0.217000	0.473800
C211	C21	0.350600	0.168800	0.240400
C221	C22	0.312900	0.148500	0.147000
C231	C23	0.371500	0.211000	0.123700
C241	C24	0.462500	0.291400	0.192900
C251	C25	0.490700	0.301800	0.281300
C261	C26	0.258400	0.118000	0.964400
C271	C27	0.587000	0.188700	0.539500
C281	C28	0.630800	0.130700	0.562700
C291	C29	0.629200	0.072300	0.502900
C301	C30	0.665400	0.019100	0.531100
C311	C31	0.712800	0.033100	0.627100
C321	C32	0.714200	0.093800	0.683000
C331	C33	0.756800	0.114000	0.783000
C341	C34	0.571600	0.181800	0.831200
C351	C35	0.498500	0.164400	0.851500
C361	C36	0.412700	0.160500	0.789000
C371	C37	0.401500	0.171100	0.708600
C381	C38	0.479500	0.188900	0.698200
C391	C39	0.346400	0.140400	0.882000
C401	C40	0.913000	0.452500	0.601700
C411	C41	0.869200	0.431900	0.499900
C421	C42	0.870800	0.373700	0.443100
C431	C43	0.834600	0.365700	0.353700
C441	C44	0.787200	0.414300	0.320300
C451	C45	0.785800	0.468800	0.379600
C461	C46	0.743200	0.526200	0.357200
C471	C47	0.928400	0.759600	0.610200
C481	C48	0.001500	0.853000	0.665900
C491	C49	0.087300	0.876300	0.747800
C501	C50	0.098500	0.807100	0.769600
C511	C51	0.020500	0.718700	0.709400
C521	C52	0.153600	0.035600	0.794000
C531	C53	0.250000	0.125000	0.875000
N11	N1	0.063800	0.370700	0.807900
N21	N2	0.008700	0.532200	0.860100
N31	N3	0.436200	0.244100	0.306900
N41	N4	0.491300	0.351400	0.523500
N51	N5	0.562800	0.192100	0.755900
N61	N6	0.672100	0.139900	0.648600
N71	N7	0.937200	0.693100	0.629300
N81	N8	0.827900	0.476500	0.467800
O11	O1	0.864400	0.358370	0.761770
O21	O2	0.773800	0.361170	0.816770
O31	O3	0.151600	0.578500	0.827900
O41	O4	0.244800	0.725800	0.924600
O51	O5	0.153300	0.190360	0.855060
O61	O6	0.635600	0.397370	0.493970
O71	O7	0.726200	0.542970	0.587370
O81	O8	0.348400	0.176300	0.426900
O91	O9	0.255200	0.179800	0.481000
O101	O10	0.346700	0.201760	0.037060
O111	O11	0.596600	0.238230	0.602630
O121	O12	0.544400	0.183230	0.457030
O131	O13	0.750600	0.172100	0.823700
O141	O14	0.801200	0.075400	0.820200
O151	O15	0.335300	0.144940	0.798240
O161	O16	0.903400	0.506030	0.641630
O171	O17	0.955600	0.412630	0.638830
O181	O18	0.749400	0.573100	0.421500
O191	O19	0.698800	0.519000	0.274200
O201	O20	0.164700	0.962940	0.809640
Zn51	Zn5	0.321460	0.772380	0.261060
Zn61	Zn6	0.178540	0.439600	0.450920
Zn71	Zn7	0.988680	0.549080	0.227620
Zn81	Zn8	0.511320	0.738940	0.560400
H371	H37	0.397000	0.931100	0.557700
H381	H38	0.340400	0.024300	0.510100
H391	H39	0.257900	0.999000	0.349500
H401	H40	0.369100	0.813700	0.125400
H411	H41	0.492400	0.844300	0.094300
H421	H42	0.657100	0.833700	0.336800
H431	H43	0.526500	0.800100	0.354400
H441	H44	0.646500	0.910100	0.107800
H451	H45	0.592700	0.802500	0.066800
H461	H46	0.103000	0.660700	0.534100
H471	H47	0.159600	0.669700	0.683900
H481	H48	0.242100	0.591600	0.741100
H491	H49	0.130900	0.256300	0.444600
H501	H50	0.007600	0.101900	0.351900
H511	H51	0.842900	0.179700	0.176600
H521	H52	0.973500	0.327900	0.273600
H531	H53	0.853500	0.961300	0.263600
H541	H54	0.907300	0.974100	0.209800
H551	H55	0.126600	0.465900	0.068900
H561	H56	0.985800	0.316100	0.975700
H571	H57	0.850500	0.258900	0.001000
H581	H58	0.811700	0.555400	0.186300
H591	H59	0.750000	0.648100	0.155700
H601	H60	0.003100	0.823400	0.166300
H611	H61	0.054300	0.726400	0.199900
H621	H62	0.697700	0.736400	0.089900
H631	H63	0.764300	0.790200	0.197500
H641	H64	0.373400	0.442300	0.339300
H651	H65	0.514200	0.489900	0.330300
H661	H66	0.649500	0.650500	0.408400
H671	H67	0.688300	0.874600	0.743700
H681	H68	0.750000	0.905700	0.898100
H691	H69	0.496900	0.663200	0.820300
H701	H70	0.445700	0.645600	0.672100
H711	H71	0.802300	0.892200	0.038700
H721	H72	0.735700	0.933200	0.025900
C541	C54	0.413000	0.811300	0.460500
C551	C55	0.369200	0.869300	0.437300
C561	C56	0.370800	0.927700	0.497100
C571	C57	0.334600	0.980900	0.468900
C581	C58	0.287200	0.966900	0.372900
C591	C59	0.285800	0.906200	0.317000
C601	C60	0.243200	0.886000	0.217000
C611	C61	0.428400	0.818200	0.168800
C621	C62	0.501500	0.835600	0.148500
C631	C63	0.587300	0.839500	0.211000
C641	C64	0.598500	0.828900	0.291400
C651	C65	0.520500	0.811100	0.301800
C661	C66	0.653600	0.859600	0.118000
C671	C67	0.087000	0.547500	0.398300
C681	C68	0.130800	0.568100	0.500100
C691	C69	0.129200	0.626300	0.556900
C701	C70	0.165400	0.634300	0.646300
C711	C71	0.212800	0.585700	0.679700
C721	C72	0.214200	0.531200	0.620400
C731	C73	0.256800	0.473800	0.642800
C741	C74	0.071600	0.240400	0.389800
C751	C75	0.998500	0.147000	0.334100
C761	C76	0.912700	0.123700	0.252200
C771	C77	0.901500	0.192900	0.230400
C781	C78	0.979500	0.281300	0.290600
C791	C79	0.846400	0.964400	0.206000
C801	C80	0.149200	0.601700	0.188700
C811	C81	0.068000	0.499900	0.130700
C821	C82	0.069400	0.443100	0.072300
C831	C83	0.988000	0.353700	0.019100
C841	C84	0.906000	0.320300	0.033100
C851	C85	0.910800	0.379600	0.093800
C861	C86	0.831000	0.357200	0.114000
C871	C87	0.850600	0.610200	0.181800
C881	C88	0.812900	0.665900	0.164400
C891	C89	0.871500	0.747800	0.160500
C901	C90	0.962500	0.769600	0.171100
C911	C91	0.990700	0.709400	0.188900
C921	C92	0.758400	0.794000	0.140400
C931	C93	0.350800	0.539500	0.452500
C941	C94	0.432000	0.562700	0.431900
C951	C95	0.430600	0.502900	0.373700
C961	C96	0.512000	0.531100	0.365700
C971	C97	0.594000	0.627100	0.414300
C981	C98	0.589200	0.683000	0.468800
C991	C99	0.669000	0.783000	0.526200
C1001	C100	0.649400	0.831200	0.759600
C1011	C101	0.687100	0.851500	0.853000
C1021	C102	0.628500	0.789000	0.876300
C1031	C103	0.537500	0.708600	0.807100
C1041	C104	0.509300	0.698200	0.718700
C1051	C105	0.741600	0.882000	0.035600
C1061	C106	0.750000	0.875000	0.125000
N91	N9	0.437200	0.807900	0.244100
N101	N10	0.327900	0.860100	0.351400
N111	N11	0.062800	0.306900	0.370700
N121	N12	0.172100	0.523500	0.532200
N131	N13	0.936200	0.629300	0.192100
N141	N14	0.991300	0.467800	0.139900
N151	N15	0.563800	0.755900	0.693100
N161	N16	0.508700	0.648600	0.476500
O211	O21	0.403400	0.761770	0.397370
O221	O22	0.455600	0.816770	0.542970
O231	O23	0.249400	0.827900	0.176300
O241	O24	0.198800	0.924600	0.179800
O251	O25	0.664700	0.855060	0.201760
O261	O26	0.096600	0.493970	0.358370
O271	O27	0.044400	0.587370	0.361170
O281	O28	0.250600	0.426900	0.578500
O291	O29	0.301200	0.481000	0.725800
O301	O30	0.835300	0.037060	0.190360
O311	O31	0.135600	0.641630	0.238230
O321	O32	0.226200	0.638830	0.183230
O331	O33	0.848400	0.421500	0.172100
O341	O34	0.755200	0.274200	0.075400
O351	O35	0.846700	0.809640	0.144940
O361	O36	0.364400	0.602630	0.506030
O371	O37	0.273800	0.457030	0.412630
O381	O38	0.651600	0.823700	0.573100
O391	O39	0.744800	0.820200	0.519000
O401	O40	0.653300	0.798240	0.962940
