data_TESGUU_freeONLY_PM
_symmetry_space_group_name_H-M	'P1'
_cell_length_a	9.774400
_cell_length_b	11.206500
_cell_length_c	14.720100
_cell_angle_alpha	91.059800
_cell_angle_beta	90.000000
_cell_angle_gamma	90.000000
_symmetry_Int_Tables_number 1

loop_
_symmetry_equiv_pos_as_xyz
'x,y,z'

loop_
_atom_site_label
_atom_site_type_symbol
_atom_site_fract_x
_atom_site_fract_y
_atom_site_fract_z
Zn11	Zn1	0.920990	0.755740	0.132350
Zn21	Zn2	0.108280	0.737680	0.310520
Zn31	Zn3	0.420990	0.744260	0.367650
Zn41	Zn4	0.608280	0.762320	0.189480
Zn51	Zn5	0.079010	0.244260	0.867650
Zn61	Zn6	0.891720	0.262320	0.689480
Zn71	Zn7	0.579010	0.255740	0.632350
Zn81	Zn8	0.391720	0.237680	0.810520
Zn91	Zn9	0.000000	0.500000	0.000000
Zn101	Zn10	0.500000	0.000000	0.500000
Zn111	Zn11	0.000000	0.000000	0.000000
Zn121	Zn12	0.500000	0.500000	0.500000
H11	H1	0.757500	0.866500	0.364700
H21	H2	0.038900	0.470600	0.262600
H31	H3	0.615300	0.555900	0.047800
H41	H4	0.197800	0.979800	0.227000
H51	H5	0.162400	0.695200	0.931100
H61	H6	0.701000	0.988500	0.007900
H71	H7	0.257500	0.633500	0.135300
H81	H8	0.538900	0.029400	0.237400
H91	H9	0.115300	0.944100	0.452200
H101	H10	0.697800	0.520200	0.273000
H111	H11	0.662400	0.804800	0.568900
H121	H12	0.201000	0.511500	0.492100
H131	H13	0.242500	0.133500	0.635300
H141	H14	0.961100	0.529400	0.737400
H151	H15	0.384700	0.444100	0.952200
H161	H16	0.802200	0.020200	0.773000
H171	H17	0.837600	0.304800	0.068900
H181	H18	0.299000	0.011500	0.992100
H191	H19	0.742500	0.366500	0.864700
H201	H20	0.461100	0.970600	0.762600
H211	H21	0.884700	0.055900	0.547800
H221	H22	0.302200	0.479800	0.727000
H231	H23	0.337600	0.195200	0.431100
H241	H24	0.799000	0.488500	0.507900
C11	C1	0.828700	0.833300	0.328300
C21	C2	0.018000	0.513800	0.209400
C31	C3	0.710100	0.572700	0.054500
C41	C4	0.133800	0.952700	0.182700
C51	C5	0.106100	0.742000	0.970500
C61	C6	0.719200	0.930100	0.052300
C71	C7	0.328700	0.666700	0.171700
C81	C8	0.518000	0.986200	0.290600
C91	C9	0.210100	0.927300	0.445500
C101	C10	0.633800	0.547300	0.317300
C111	C11	0.606100	0.758000	0.529500
C121	C12	0.219200	0.569900	0.447700
C131	C13	0.171300	0.166700	0.671700
C141	C14	0.982000	0.486200	0.790600
C151	C15	0.289900	0.427300	0.945500
C161	C16	0.866200	0.047300	0.817300
C171	C17	0.893900	0.258000	0.029500
C181	C18	0.280800	0.069900	0.947700
C191	C19	0.671300	0.333300	0.828300
C201	C20	0.482000	0.013800	0.709400
C211	C21	0.789900	0.072700	0.554500
C221	C22	0.366200	0.452700	0.682700
C231	C23	0.393900	0.242000	0.470500
C241	C24	0.780800	0.430100	0.552300
O11	O1	0.801000	0.812160	0.245200
O21	O2	0.940170	0.814900	0.366700
O31	O3	0.005150	0.626620	0.218300
O41	O4	0.005710	0.455440	0.137540
O51	O5	0.743000	0.652390	0.114240
O61	O6	0.788920	0.515650	0.004950
O71	O7	0.084790	0.848420	0.193250
O81	O8	0.107130	0.022020	0.121020
O91	O9	0.026720	0.684980	0.024160
O101	O10	0.116460	0.850630	0.965140
O111	O11	0.844340	0.897230	0.060950
O121	O12	0.619690	0.893360	0.095990
O131	O13	0.301000	0.687840	0.254800
O141	O14	0.440170	0.685100	0.133300
O151	O15	0.505150	0.873380	0.281700
O161	O16	0.505710	0.044560	0.362460
O171	O17	0.243000	0.847610	0.385760
O181	O18	0.288920	0.984350	0.495050
O191	O19	0.584790	0.651580	0.306750
O201	O20	0.607130	0.477980	0.378980
O211	O21	0.526720	0.815020	0.475840
O221	O22	0.616460	0.649370	0.534860
O231	O23	0.344340	0.602770	0.439050
O241	O24	0.119690	0.606640	0.404010
O251	O25	0.199000	0.187840	0.754800
O261	O26	0.059830	0.185100	0.633300
O271	O27	0.994850	0.373380	0.781700
O281	O28	0.994290	0.544560	0.862460
O291	O29	0.257000	0.347610	0.885760
O301	O30	0.211080	0.484350	0.995050
O311	O31	0.915210	0.151580	0.806750
O321	O32	0.892870	0.977980	0.878980
O331	O33	0.973280	0.315020	0.975840
O341	O34	0.883540	0.149370	0.034860
O351	O35	0.155660	0.102770	0.939050
O361	O36	0.380310	0.106640	0.904010
O371	O37	0.699000	0.312160	0.745200
O381	O38	0.559830	0.314900	0.866700
O391	O39	0.494850	0.126620	0.718300
O401	O40	0.494290	0.955440	0.637540
O411	O41	0.757000	0.152390	0.614240
O421	O42	0.711080	0.015650	0.504950
O431	O43	0.415210	0.348420	0.693250
O441	O44	0.392870	0.522020	0.621020
O451	O45	0.473280	0.184980	0.524160
O461	O46	0.383540	0.350630	0.465140
O471	O47	0.655660	0.397230	0.560950
O481	O48	0.880310	0.393360	0.595990
