data_TETWUM_freeONLY_PM
_symmetry_space_group_name_H-M	'P1'
_cell_length_a	12.002600
_cell_length_b	14.616100
_cell_length_c	16.823200
_cell_angle_alpha	115.747000
_cell_angle_beta	105.686000
_cell_angle_gamma	90.000000
_symmetry_Int_Tables_number 1

loop_
_symmetry_equiv_pos_as_xyz
'x,y,z'

loop_
_atom_site_label
_atom_site_type_symbol
_atom_site_fract_x
_atom_site_fract_y
_atom_site_fract_z
Cd11	Cd1	0.068670	0.825520	0.568240
Cd21	Cd2	0.672450	0.486120	0.646780
Cd31	Cd3	0.431330	0.257280	0.431760
Cd41	Cd4	0.827550	0.839340	0.353220
Cd51	Cd5	0.931330	0.174480	0.431760
Cd61	Cd6	0.327550	0.513880	0.353220
Cd71	Cd7	0.568670	0.742720	0.568240
Cd81	Cd8	0.172450	0.160660	0.646780
H11	H1	0.920600	0.476300	0.429200
H21	H2	0.834700	0.494400	0.536000
H31	H3	0.767000	0.357000	0.395800
H41	H4	0.674800	0.361500	0.266400
H51	H5	0.829300	0.463000	0.291000
H61	H6	0.764000	0.558900	0.329800
H71	H7	0.337500	0.896800	0.698200
H81	H8	0.460900	0.909200	0.833000
H91	H9	0.196300	0.788000	0.872000
H101	H10	0.079400	0.778000	0.735000
H111	H11	0.475200	0.715200	0.906000
H121	H12	0.561600	0.802100	0.914800
H131	H13	0.375300	0.836500	0.988000
H141	H14	0.461800	0.923500	0.997600
H151	H15	0.810000	0.928900	0.213600
H161	H16	0.706200	0.914400	0.070800
H171	H17	0.503400	0.675900	0.034000
H181	H18	0.610900	0.699400	0.179600
H191	H19	0.579400	0.047100	0.570800
H201	H20	0.665300	0.958400	0.464000
H211	H21	0.733000	0.961200	0.604200
H221	H22	0.825200	0.095100	0.733600
H231	H23	0.670700	0.172000	0.709000
H241	H24	0.736000	0.229100	0.670200
H251	H25	0.162500	0.198600	0.301800
H261	H26	0.039100	0.076200	0.167000
H271	H27	0.303700	0.916000	0.128000
H281	H28	0.420600	0.043000	0.265000
H291	H29	0.024800	0.809200	0.094000
H301	H30	0.938400	0.887300	0.085200
H311	H31	0.124700	0.848500	0.012000
H321	H32	0.038200	0.925900	0.002400
H331	H33	0.690000	0.715300	0.786400
H341	H34	0.793800	0.843600	0.929200
H351	H35	0.996600	0.641900	0.966000
H361	H36	0.889100	0.519800	0.820400
H371	H37	0.079400	0.523700	0.570800
H381	H38	0.165300	0.505600	0.464000
H391	H39	0.233000	0.643000	0.604200
H401	H40	0.325200	0.638500	0.733600
H411	H41	0.170700	0.537000	0.709000
H421	H42	0.236000	0.441100	0.670200
H431	H43	0.662500	0.103200	0.301800
H441	H44	0.539100	0.090800	0.167000
H451	H45	0.803700	0.212000	0.128000
H461	H46	0.920600	0.222000	0.265000
H471	H47	0.524800	0.284800	0.094000
H481	H48	0.438400	0.197900	0.085200
H491	H49	0.624700	0.163500	0.012000
H501	H50	0.538200	0.076500	0.002400
H511	H51	0.190000	0.071100	0.786400
H521	H52	0.293800	0.085600	0.929200
H531	H53	0.496600	0.324100	0.966000
H541	H54	0.389100	0.300600	0.820400
H551	H55	0.420600	0.952900	0.429200
H561	H56	0.334700	0.041600	0.536000
H571	H57	0.267000	0.038800	0.395800
H581	H58	0.174800	0.904900	0.266400
H591	H59	0.329300	0.828000	0.291000
H601	H60	0.264000	0.770900	0.329800
H611	H61	0.837500	0.801400	0.698200
H621	H62	0.960900	0.923800	0.833000
H631	H63	0.696300	0.084000	0.872000
H641	H64	0.579400	0.957000	0.735000
H651	H65	0.975200	0.190800	0.906000
H661	H66	0.061600	0.112700	0.914800
H671	H67	0.875300	0.151500	0.988000
H681	H68	0.961800	0.074100	0.997600
H691	H69	0.310000	0.284700	0.213600
H701	H70	0.206200	0.156400	0.070800
H711	H71	0.003400	0.358100	0.034000
H721	H72	0.110900	0.480200	0.179600
C11	C1	0.866200	0.527200	0.435400
C21	C2	0.787400	0.508200	0.486000
C31	C3	0.712100	0.407370	0.406940
C41	C4	0.681000	0.426740	0.320880
C51	C5	0.788100	0.498300	0.335800
C61	C6	0.941400	0.631000	0.485600
C71	C7	0.719400	0.596500	0.525200
C81	C8	0.611200	0.355900	0.417200
C91	C9	0.567100	0.472000	0.304600
C101	C10	0.308200	0.874700	0.733600
C111	C11	0.383100	0.881900	0.815000
C121	C12	0.345900	0.849900	0.869400
C131	C13	0.227700	0.810600	0.837800
C141	C14	0.157500	0.805400	0.755400
C151	C15	0.512700	0.785400	0.945400
C161	C16	0.423500	0.853700	0.957200
C171	C17	0.746500	0.877800	0.177800
C181	C18	0.684400	0.869900	0.091800
C191	C19	0.588900	0.793800	0.037600
C201	C20	0.564300	0.729700	0.069800
C211	C21	0.630900	0.743700	0.157800
C221	C22	0.633800	0.091800	0.564600
C231	C23	0.712600	0.022200	0.514000
C241	C24	0.787900	0.000430	0.593060
C251	C25	0.819000	0.105860	0.679120
C261	C26	0.711900	0.162500	0.664200
C271	C27	0.558600	0.145400	0.514400
C281	C28	0.780600	0.071300	0.474800
C291	C29	0.888800	0.938700	0.582800
C301	C30	0.932900	0.167400	0.695400
C311	C31	0.191800	0.141100	0.266400
C321	C32	0.116900	0.066900	0.185000
C331	C33	0.154100	0.980500	0.130600
C341	C34	0.272300	0.972800	0.162200
C351	C35	0.342500	0.050000	0.244600
C361	C36	0.987300	0.840000	0.054600
C371	C37	0.076500	0.896500	0.042800
C381	C38	0.753500	0.700000	0.822200
C391	C39	0.815600	0.778100	0.908200
C401	C40	0.911100	0.756200	0.962400
C411	C41	0.935700	0.659900	0.930200
C421	C42	0.869100	0.585900	0.842200
C431	C43	0.133800	0.472800	0.564600
C441	C44	0.212600	0.491800	0.514000
C451	C45	0.287900	0.592630	0.593060
C461	C46	0.319000	0.573260	0.679120
C471	C47	0.211900	0.501700	0.664200
C481	C48	0.058600	0.369000	0.514400
C491	C49	0.280600	0.403500	0.474800
C501	C50	0.388800	0.644100	0.582800
C511	C51	0.432900	0.528000	0.695400
C521	C52	0.691800	0.125300	0.266400
C531	C53	0.616900	0.118100	0.185000
C541	C54	0.654100	0.150100	0.130600
C551	C55	0.772300	0.189400	0.162200
C561	C56	0.842500	0.194600	0.244600
C571	C57	0.487300	0.214600	0.054600
C581	C58	0.576500	0.146300	0.042800
C591	C59	0.253500	0.122200	0.822200
C601	C60	0.315600	0.130100	0.908200
C611	C61	0.411100	0.206200	0.962400
C621	C62	0.435700	0.270300	0.930200
C631	C63	0.369100	0.256300	0.842200
C641	C64	0.366200	0.908200	0.435400
C651	C65	0.287400	0.977800	0.486000
C661	C66	0.212100	0.999570	0.406940
C671	C67	0.181000	0.894140	0.320880
C681	C68	0.288100	0.837500	0.335800
C691	C69	0.441400	0.854600	0.485600
C701	C70	0.219400	0.928700	0.525200
C711	C71	0.111200	0.061300	0.417200
C721	C72	0.067100	0.832600	0.304600
C731	C73	0.808200	0.858900	0.733600
C741	C74	0.883100	0.933100	0.815000
C751	C75	0.845900	0.019500	0.869400
C761	C76	0.727700	0.027200	0.837800
C771	C77	0.657500	0.950000	0.755400
C781	C78	0.012700	0.160000	0.945400
C791	C79	0.923500	0.103500	0.957200
C801	C80	0.246500	0.300000	0.177800
C811	C81	0.184400	0.221900	0.091800
C821	C82	0.088900	0.243800	0.037600
C831	C83	0.064300	0.340100	0.069800
C841	C84	0.130900	0.414100	0.157800
N11	N1	0.196100	0.837460	0.703920
N21	N2	0.720400	0.816500	0.211200
N31	N3	0.303900	0.133540	0.296080
N41	N4	0.779600	0.605300	0.788800
N51	N5	0.803900	0.162540	0.296080
N61	N6	0.279600	0.183500	0.788800
N71	N7	0.696100	0.866460	0.703920
N81	N8	0.220400	0.394700	0.211200
O11	O1	0.984100	0.662780	0.439160
O21	O2	0.964900	0.681540	0.570480
O31	O3	0.697800	0.657920	0.490640
O41	O4	0.686500	0.607750	0.594100
O51	O5	0.599600	0.378720	0.496640
O61	O6	0.542900	0.285070	0.346940
O71	O7	0.509300	0.484240	0.359280
O81	O8	0.538500	0.492440	0.238080
O91	O9	0.828500	0.384700	0.635800
O101	O10	0.515900	0.223620	0.560840
O111	O11	0.535100	0.111060	0.429520
O121	O12	0.802200	0.167280	0.509360
O131	O13	0.813500	0.013650	0.405900
O141	O14	0.900400	0.882080	0.503360
O151	O15	0.957100	0.938130	0.653060
O161	O16	0.990700	0.124960	0.640720
O171	O17	0.961500	0.254360	0.761920
O181	O18	0.671500	0.748900	0.364200
O191	O19	0.015900	0.337220	0.560840
O201	O20	0.035100	0.318460	0.429520
O211	O21	0.302200	0.342080	0.509360
O221	O22	0.313500	0.392250	0.405900
O231	O23	0.400400	0.621280	0.503360
O241	O24	0.457100	0.714930	0.653060
O251	O25	0.490700	0.515760	0.640720
O261	O26	0.461500	0.507560	0.761920
O271	O27	0.171500	0.615300	0.364200
O281	O28	0.484100	0.776380	0.439160
O291	O29	0.464900	0.888940	0.570480
O301	O30	0.197800	0.832720	0.490640
O311	O31	0.186500	0.986350	0.594100
O321	O32	0.099600	0.117920	0.496640
O331	O33	0.042900	0.061870	0.346940
O341	O34	0.009300	0.875040	0.359280
O351	O35	0.038500	0.745640	0.238080
O361	O36	0.328500	0.251100	0.635800
