data_TEWGEJ_freeONLY_PM
_symmetry_space_group_name_H-M	'P1'
_cell_length_a	15.284100
_cell_length_b	16.727900
_cell_length_c	17.837400
_cell_angle_alpha	117.963000
_cell_angle_beta	115.368000
_cell_angle_gamma	90.000000
_symmetry_Int_Tables_number 1

loop_
_symmetry_equiv_pos_as_xyz
'x,y,z'

loop_
_atom_site_label
_atom_site_type_symbol
_atom_site_fract_x
_atom_site_fract_y
_atom_site_fract_z
Cu11	Cu1	0.500000	0.000000	0.500000
Cu21	Cu2	0.000000	0.000000	0.500000
H11	H1	0.607100	0.889600	0.584000
H21	H2	0.584700	0.801100	0.647200
H31	H3	0.316700	0.861000	0.601600
H41	H4	0.345800	0.946200	0.538000
H51	H5	0.480200	0.728300	0.678200
H61	H6	0.364600	0.730300	0.636800
H71	H7	0.325400	0.992700	0.939000
H81	H8	0.248800	0.882600	0.201600
H91	H9	0.101000	0.794200	0.054600
H101	H10	0.976900	0.194400	0.584000
H111	H11	0.062500	0.346100	0.647200
H121	H12	0.284900	0.240600	0.601600
H131	H13	0.192200	0.091800	0.538000
H141	H14	0.198000	0.449900	0.678200
H151	H15	0.272200	0.406500	0.636800
H161	H16	0.613600	0.446300	0.939000
H171	H17	0.952800	0.819000	0.201600
H181	H18	0.953600	0.760400	0.054600
H191	H19	0.392900	0.110400	0.416000
H201	H20	0.415300	0.198900	0.352800
H211	H21	0.683300	0.139000	0.398400
H221	H22	0.654200	0.053800	0.462000
H231	H23	0.519800	0.271700	0.321800
H241	H24	0.635400	0.269700	0.363200
H251	H25	0.674600	0.007300	0.061000
H261	H26	0.751200	0.117400	0.798400
H271	H27	0.899000	0.205800	0.945400
H281	H28	0.023100	0.805600	0.416000
H291	H29	0.937500	0.653900	0.352800
H301	H30	0.715100	0.759400	0.398400
H311	H31	0.807800	0.908200	0.462000
H321	H32	0.802000	0.550100	0.321800
H331	H33	0.727800	0.593500	0.363200
H341	H34	0.386400	0.553700	0.061000
H351	H35	0.047200	0.181000	0.798400
H361	H36	0.046400	0.239600	0.945400
C11	C1	0.547390	0.883490	0.587580
C21	C2	0.534960	0.831060	0.626120
C31	C3	0.449270	0.823670	0.632940
C41	C4	0.377200	0.866200	0.599000
C51	C5	0.395070	0.916770	0.560940
C61	C6	0.434060	0.769760	0.676920
C71	C7	0.379510	0.870110	0.798820
C81	C8	0.433590	0.940490	0.905980
C91	C9	0.534550	0.943650	0.939700
C101	C10	0.547630	0.875930	0.856260
C111	C11	0.394810	0.995710	0.963420
C121	C12	0.282370	0.967470	0.382540
C131	C13	0.189810	0.905210	0.290420
C141	C14	0.188560	0.870060	0.202120
C151	C15	0.100600	0.816800	0.114200
C161	C16	0.040190	0.204090	0.587580
C171	C17	0.091160	0.295060	0.626120
C181	C18	0.183670	0.309270	0.632940
C191	C19	0.221800	0.232800	0.599000
C201	C20	0.165870	0.144170	0.560940
C211	C21	0.242860	0.407160	0.676920
C221	C22	0.419310	0.428710	0.798820
C231	C23	0.472390	0.465490	0.905980
C241	C24	0.405150	0.496050	0.939700
C251	C25	0.308630	0.480330	0.856260
C261	C26	0.568610	0.467710	0.963420
C271	C27	0.100170	0.915070	0.382540
C281	C28	0.100610	0.885210	0.290420
C291	C29	0.013560	0.832060	0.202120
C301	C30	0.013600	0.797400	0.114200
C311	C31	0.452610	0.116510	0.412420
C321	C32	0.465040	0.168940	0.373880
C331	C33	0.550730	0.176330	0.367060
C341	C34	0.622800	0.133800	0.401000
C351	C35	0.604930	0.083230	0.439060
C361	C36	0.565940	0.230240	0.323080
C371	C37	0.620490	0.129890	0.201180
C381	C38	0.566410	0.059510	0.094020
C391	C39	0.465450	0.056350	0.060300
C401	C40	0.452370	0.124070	0.143740
C411	C41	0.605190	0.004290	0.036580
C421	C42	0.717630	0.032530	0.617460
C431	C43	0.810190	0.094790	0.709580
C441	C44	0.811440	0.129940	0.797880
C451	C45	0.899400	0.183200	0.885800
C461	C46	0.959810	0.795910	0.412420
C471	C47	0.908840	0.704940	0.373880
C481	C48	0.816330	0.690730	0.367060
C491	C49	0.778200	0.767200	0.401000
C501	C50	0.834130	0.855830	0.439060
C511	C51	0.757140	0.592840	0.323080
C521	C52	0.580690	0.571290	0.201180
C531	C53	0.527610	0.534510	0.094020
C541	C54	0.594850	0.503950	0.060300
C551	C55	0.691370	0.519670	0.143740
C561	C56	0.431390	0.532290	0.036580
C571	C57	0.899830	0.084930	0.617460
C581	C58	0.899390	0.114790	0.709580
C591	C59	0.986440	0.167940	0.797880
C601	C60	0.986400	0.202600	0.885800
N11	N1	0.478130	0.925430	0.555460
N21	N2	0.452950	0.834950	0.775700
N31	N3	0.077330	0.130030	0.555460
N41	N4	0.322750	0.440750	0.775700
N51	N5	0.521870	0.074570	0.444540
N61	N6	0.547050	0.165050	0.224300
N71	N7	0.922670	0.869970	0.444540
N81	N8	0.677250	0.559250	0.224300
O11	O1	0.624700	0.858800	0.855600
O21	O2	0.291410	0.847610	0.742020
O31	O3	0.362320	0.939320	0.390240
O41	O4	0.279450	0.042350	0.445100
O51	O5	0.230900	0.496800	0.855600
O61	O6	0.450610	0.394410	0.742020
O71	O7	0.027920	0.950920	0.390240
O81	O8	0.165650	0.902750	0.445100
O91	O9	0.375300	0.141200	0.144400
O101	O10	0.708590	0.152390	0.257980
O111	O11	0.637680	0.060680	0.609760
O121	O12	0.720550	0.957650	0.554900
O131	O13	0.769100	0.503200	0.144400
O141	O14	0.549390	0.605590	0.257980
O151	O15	0.972080	0.049080	0.609760
O161	O16	0.834350	0.097250	0.554900
Cu31	Cu3	0.000000	0.500000	0.500000
Cu41	Cu4	0.500000	0.500000	0.500000
H371	H37	0.892900	0.305600	0.416000
H381	H38	0.915300	0.153900	0.352800
H391	H39	0.183300	0.259400	0.398400
H401	H40	0.154200	0.408200	0.462000
H411	H41	0.019800	0.050100	0.321800
H421	H42	0.135400	0.093500	0.363200
H431	H43	0.174600	0.053700	0.061000
H441	H44	0.251200	0.681000	0.798400
H451	H45	0.399000	0.739600	0.945400
H461	H46	0.523100	0.610400	0.416000
H471	H47	0.437500	0.698900	0.352800
H481	H48	0.215100	0.639000	0.398400
H491	H49	0.307800	0.553800	0.462000
H501	H50	0.302000	0.771700	0.321800
H511	H51	0.227800	0.769700	0.363200
H521	H52	0.886400	0.507300	0.061000
H531	H53	0.547200	0.617400	0.798400
H541	H54	0.546400	0.705800	0.945400
H551	H55	0.107100	0.694400	0.584000
H561	H56	0.084700	0.846100	0.647200
H571	H57	0.816700	0.740600	0.601600
H581	H58	0.845800	0.591800	0.538000
H591	H59	0.980200	0.949900	0.678200
H601	H60	0.864600	0.906500	0.636800
H611	H61	0.825400	0.946300	0.939000
H621	H62	0.748800	0.319000	0.201600
H631	H63	0.601000	0.260400	0.054600
H641	H64	0.476900	0.389600	0.584000
H651	H65	0.562500	0.301100	0.647200
H661	H66	0.784900	0.361000	0.601600
H671	H67	0.692200	0.446200	0.538000
H681	H68	0.698000	0.228300	0.678200
H691	H69	0.772200	0.230300	0.636800
H701	H70	0.113600	0.492700	0.939000
H711	H71	0.452800	0.382600	0.201600
H721	H72	0.453600	0.294200	0.054600
C611	C61	0.952610	0.295910	0.412420
C621	C62	0.965040	0.204940	0.373880
C631	C63	0.050730	0.190730	0.367060
C641	C64	0.122800	0.267200	0.401000
C651	C65	0.104930	0.355830	0.439060
C661	C66	0.065940	0.092840	0.323080
C671	C67	0.120490	0.071290	0.201180
C681	C68	0.066410	0.034510	0.094020
C691	C69	0.965450	0.003950	0.060300
C701	C70	0.952370	0.019670	0.143740
C711	C71	0.105190	0.032290	0.036580
C721	C72	0.217630	0.584930	0.617460
C731	C73	0.310190	0.614790	0.709580
C741	C74	0.311440	0.667940	0.797880
C751	C75	0.399400	0.702600	0.885800
C761	C76	0.459810	0.616510	0.412420
C771	C77	0.408840	0.668940	0.373880
C781	C78	0.316330	0.676330	0.367060
C791	C79	0.278200	0.633800	0.401000
C801	C80	0.334130	0.583230	0.439060
C811	C81	0.257140	0.730240	0.323080
C821	C82	0.080690	0.629890	0.201180
C831	C83	0.027610	0.559510	0.094020
C841	C84	0.094850	0.556350	0.060300
C851	C85	0.191370	0.624070	0.143740
C861	C86	0.931390	0.504290	0.036580
C871	C87	0.399830	0.532530	0.617460
C881	C88	0.399390	0.594790	0.709580
C891	C89	0.486440	0.629940	0.797880
C901	C90	0.486400	0.683200	0.885800
C911	C91	0.047390	0.704090	0.587580
C921	C92	0.034960	0.795060	0.626120
C931	C93	0.949270	0.809270	0.632940
C941	C94	0.877200	0.732800	0.599000
C951	C95	0.895070	0.644170	0.560940
C961	C96	0.934060	0.907160	0.676920
C971	C97	0.879510	0.928710	0.798820
C981	C98	0.933590	0.965490	0.905980
C991	C99	0.034550	0.996050	0.939700
C1001	C100	0.047630	0.980330	0.856260
C1011	C101	0.894810	0.967710	0.963420
C1021	C102	0.782370	0.415070	0.382540
C1031	C103	0.689810	0.385210	0.290420
C1041	C104	0.688560	0.332060	0.202120
C1051	C105	0.600600	0.297400	0.114200
C1061	C106	0.540190	0.383490	0.587580
C1071	C107	0.591160	0.331060	0.626120
C1081	C108	0.683670	0.323670	0.632940
C1091	C109	0.721800	0.366200	0.599000
C1101	C110	0.665870	0.416770	0.560940
C1111	C111	0.742860	0.269760	0.676920
C1121	C112	0.919310	0.370110	0.798820
C1131	C113	0.972390	0.440490	0.905980
C1141	C114	0.905150	0.443650	0.939700
C1151	C115	0.808630	0.375930	0.856260
C1161	C116	0.068610	0.495710	0.963420
C1171	C117	0.600170	0.467470	0.382540
C1181	C118	0.600610	0.405210	0.290420
C1191	C119	0.513560	0.370060	0.202120
C1201	C120	0.513600	0.316800	0.114200
N91	N9	0.021870	0.369970	0.444540
N101	N10	0.047050	0.059250	0.224300
N111	N11	0.422670	0.574570	0.444540
N121	N12	0.177250	0.665050	0.224300
N131	N13	0.978130	0.630030	0.555460
N141	N14	0.952950	0.940750	0.775700
N151	N15	0.577330	0.425430	0.555460
N161	N16	0.822750	0.334950	0.775700
O171	O17	0.875300	0.003200	0.144400
O181	O18	0.208590	0.105590	0.257980
O191	O19	0.137680	0.549080	0.609760
O201	O20	0.220550	0.597250	0.554900
O211	O21	0.269100	0.641200	0.144400
O221	O22	0.049390	0.652390	0.257980
O231	O23	0.472080	0.560680	0.609760
O241	O24	0.334350	0.457650	0.554900
O251	O25	0.124700	0.996800	0.855600
O261	O26	0.791410	0.894410	0.742020
O271	O27	0.862320	0.450920	0.390240
O281	O28	0.779450	0.402750	0.445100
O291	O29	0.730900	0.358800	0.855600
O301	O30	0.950610	0.347610	0.742020
O311	O31	0.527920	0.439320	0.390240
O321	O32	0.665650	0.542350	0.445100
