data_TIFDOB_freeONLY_PM
_symmetry_space_group_name_H-M	'P1'
_cell_length_a	20.171600
_cell_length_b	20.171600
_cell_length_c	41.230000
_cell_angle_alpha	90.000000
_cell_angle_beta	90.000000
_cell_angle_gamma	90.000000
_symmetry_Int_Tables_number 1

loop_
_symmetry_equiv_pos_as_xyz
'x,y,z'

loop_
_atom_site_label
_atom_site_type_symbol
_atom_site_fract_x
_atom_site_fract_y
_atom_site_fract_z
Mn11	Mn1	0.047270	0.727230	0.891730
Mn21	Mn2	0.550800	0.736000	0.880270
Mn31	Mn3	0.952730	0.272770	0.391730
Mn41	Mn4	0.449200	0.264000	0.380270
Mn51	Mn5	0.772770	0.547270	0.641730
Mn61	Mn6	0.764000	0.050800	0.630270
Mn71	Mn7	0.227230	0.452730	0.141730
Mn81	Mn8	0.236000	0.949200	0.130270
H11	H1	0.868700	0.690500	0.755500
H21	H2	0.957100	0.643000	0.779300
H31	H3	0.998500	0.812900	0.824600
H41	H4	0.904700	0.859300	0.803800
H51	H5	0.001000	0.576500	0.807300
H61	H6	0.067100	0.536000	0.810600
H71	H7	0.039400	0.575400	0.840400
H81	H8	0.152700	0.638100	0.844800
H91	H9	0.181100	0.602900	0.813900
H101	H10	0.175500	0.680400	0.814900
H111	H11	0.050400	0.635300	0.758800
H121	H12	0.114100	0.678700	0.763500
H131	H13	0.119800	0.601200	0.762500
H141	H14	0.757100	0.925300	0.792300
H151	H15	0.692900	0.937000	0.836900
H161	H16	0.708600	0.743900	0.854700
H171	H17	0.770100	0.733000	0.808400
H181	H18	0.596900	0.952600	0.856500
H191	H19	0.543900	0.910600	0.875200
H201	H20	0.564700	0.980500	0.888300
H211	H21	0.643100	0.870000	0.944600
H221	H22	0.593300	0.929500	0.942700
H231	H23	0.572400	0.859600	0.929600
H241	H24	0.714000	0.966100	0.881000
H251	H25	0.683900	0.994100	0.913300
H261	H26	0.730500	0.932000	0.914200
H271	H27	0.689800	0.753800	0.764500
H281	H28	0.635700	0.690400	0.726400
H291	H29	0.792500	0.703700	0.667600
H301	H30	0.843100	0.768600	0.703900
H311	H31	0.541900	0.589700	0.632300
H321	H32	0.595600	0.638300	0.618500
H331	H33	0.616100	0.567000	0.629900
H341	H34	0.597100	0.597900	0.716300
H351	H35	0.543100	0.564400	0.694400
H361	H36	0.617300	0.541900	0.691900
H371	H37	0.565700	0.711800	0.695700
H381	H38	0.570600	0.727300	0.658500
H391	H39	0.512100	0.684000	0.671800
H401	H40	0.733900	0.909200	0.738700
H411	H41	0.755900	0.003200	0.709100
H421	H42	0.948900	0.951700	0.707100
H431	H43	0.926700	0.863400	0.739900
H441	H44	0.945900	0.029500	0.633700
H451	H45	0.013800	0.053600	0.648000
H461	H46	0.978600	0.991000	0.662600
H471	H47	0.015800	0.106600	0.704300
H481	H48	0.948800	0.115800	0.723100
H491	H49	0.979500	0.044800	0.719100
H501	H50	0.899200	0.139500	0.642800
H511	H51	0.898000	0.170800	0.677600
H521	H52	0.965000	0.165300	0.658600
H531	H53	0.071800	0.585500	0.973000
H541	H54	0.832400	0.757500	0.897000
H551	H55	0.556000	0.696400	0.776600
H561	H56	0.334100	0.754300	0.888700
H571	H57	0.131300	0.309500	0.255500
H581	H58	0.042900	0.357000	0.279300
H591	H59	0.001500	0.187100	0.324600
H601	H60	0.095300	0.140700	0.303800
H611	H61	0.999000	0.423500	0.307300
H621	H62	0.932900	0.464000	0.310600
H631	H63	0.960600	0.424600	0.340400
H641	H64	0.847300	0.361900	0.344800
H651	H65	0.818900	0.397100	0.313900
H661	H66	0.824500	0.319600	0.314900
H671	H67	0.949600	0.364700	0.258800
H681	H68	0.885900	0.321300	0.263500
H691	H69	0.880200	0.398800	0.262500
H701	H70	0.242900	0.074700	0.292300
H711	H71	0.307100	0.063000	0.336900
H721	H72	0.291400	0.256100	0.354700
H731	H73	0.229900	0.267000	0.308400
H741	H74	0.403100	0.047400	0.356500
H751	H75	0.456100	0.089400	0.375200
H761	H76	0.435300	0.019500	0.388300
H771	H77	0.356900	0.130000	0.444600
H781	H78	0.406700	0.070500	0.442700
H791	H79	0.427600	0.140400	0.429600
H801	H80	0.286000	0.033900	0.381000
H811	H81	0.316100	0.005900	0.413300
H821	H82	0.269500	0.068000	0.414200
H831	H83	0.310200	0.246200	0.264500
H841	H84	0.364300	0.309600	0.226400
H851	H85	0.207500	0.296300	0.167600
H861	H86	0.156900	0.231400	0.203900
H871	H87	0.458100	0.410300	0.132300
H881	H88	0.404400	0.361700	0.118500
H891	H89	0.383900	0.433000	0.129900
H901	H90	0.402900	0.402100	0.216300
H911	H91	0.456900	0.435600	0.194400
H921	H92	0.382700	0.458100	0.191900
H931	H93	0.434300	0.288200	0.195700
H941	H94	0.429400	0.272700	0.158500
H951	H95	0.487900	0.316000	0.171800
H961	H96	0.266100	0.090800	0.238700
H971	H97	0.244100	0.996800	0.209100
H981	H98	0.051100	0.048300	0.207100
H991	H99	0.073300	0.136600	0.239900
H1001	H100	0.054100	0.970500	0.133700
H1011	H101	0.986200	0.946400	0.148000
H1021	H102	0.021400	0.009000	0.162600
H1031	H103	0.984200	0.893400	0.204300
H1041	H104	0.051200	0.884200	0.223100
H1051	H105	0.020500	0.955200	0.219100
H1061	H106	0.100800	0.860500	0.142800
H1071	H107	0.102000	0.829200	0.177600
H1081	H108	0.035000	0.834700	0.158600
H1091	H109	0.928200	0.414500	0.473000
H1101	H110	0.167600	0.242500	0.397000
H1111	H111	0.444000	0.303600	0.276600
H1121	H112	0.665900	0.245700	0.388700
H1131	H113	0.809500	0.368700	0.505500
H1141	H114	0.857000	0.457100	0.529300
H1151	H115	0.687100	0.498500	0.574600
H1161	H116	0.640700	0.404700	0.553800
H1171	H117	0.923500	0.501000	0.557300
H1181	H118	0.964000	0.567100	0.560600
H1191	H119	0.924600	0.539400	0.590400
H1201	H120	0.861900	0.652700	0.594800
H1211	H121	0.897100	0.681100	0.563900
H1221	H122	0.819600	0.675500	0.564900
H1231	H123	0.864700	0.550400	0.508800
H1241	H124	0.821300	0.614100	0.513500
H1251	H125	0.898800	0.619800	0.512500
H1261	H126	0.574700	0.257100	0.542300
H1271	H127	0.563000	0.192900	0.586900
H1281	H128	0.756100	0.208600	0.604700
H1291	H129	0.767000	0.270100	0.558400
H1301	H130	0.547400	0.096900	0.606500
H1311	H131	0.589400	0.043900	0.625200
H1321	H132	0.519500	0.064700	0.638300
H1331	H133	0.630000	0.143100	0.694600
H1341	H134	0.570500	0.093300	0.692700
H1351	H135	0.640400	0.072400	0.679600
H1361	H136	0.533900	0.214000	0.631000
H1371	H137	0.505900	0.183900	0.663300
H1381	H138	0.568000	0.230500	0.664200
H1391	H139	0.746200	0.189800	0.514500
H1401	H140	0.809600	0.135700	0.476400
H1411	H141	0.796300	0.292500	0.417600
H1421	H142	0.731400	0.343100	0.453900
H1431	H143	0.910300	0.041900	0.382300
H1441	H144	0.861700	0.095600	0.368500
H1451	H145	0.933000	0.116100	0.379900
H1461	H146	0.902100	0.097100	0.466300
H1471	H147	0.935600	0.043100	0.444400
H1481	H148	0.958100	0.117300	0.441900
H1491	H149	0.788200	0.065700	0.445700
H1501	H150	0.772700	0.070600	0.408500
H1511	H151	0.816000	0.012100	0.421800
H1521	H152	0.590800	0.233900	0.488700
H1531	H153	0.496800	0.255900	0.459100
H1541	H154	0.548300	0.448900	0.457100
H1551	H155	0.636600	0.426700	0.489900
H1561	H156	0.470500	0.445900	0.383700
H1571	H157	0.446400	0.513800	0.398000
H1581	H158	0.509000	0.478600	0.412600
H1591	H159	0.393400	0.515800	0.454300
H1601	H160	0.384200	0.448800	0.473100
H1611	H161	0.455200	0.479500	0.469100
H1621	H162	0.360500	0.399200	0.392800
H1631	H163	0.329200	0.398000	0.427600
H1641	H164	0.334700	0.465000	0.408600
H1651	H165	0.914500	0.571800	0.723000
H1661	H166	0.742500	0.332400	0.647000
H1671	H167	0.803600	0.056000	0.526600
H1681	H168	0.745700	0.834100	0.638700
H1691	H169	0.190500	0.631300	0.005500
H1701	H170	0.143000	0.542900	0.029300
H1711	H171	0.312900	0.501500	0.074600
H1721	H172	0.359300	0.595300	0.053800
H1731	H173	0.076500	0.499000	0.057300
H1741	H174	0.036000	0.432900	0.060600
H1751	H175	0.075400	0.460600	0.090400
H1761	H176	0.138100	0.347300	0.094800
H1771	H177	0.102900	0.318900	0.063900
H1781	H178	0.180400	0.324500	0.064900
H1791	H179	0.135300	0.449600	0.008800
H1801	H180	0.178700	0.385900	0.013500
H1811	H181	0.101200	0.380200	0.012500
H1821	H182	0.425300	0.742900	0.042300
H1831	H183	0.437000	0.807100	0.086900
H1841	H184	0.243900	0.791400	0.104700
H1851	H185	0.233000	0.729900	0.058400
H1861	H186	0.452600	0.903100	0.106500
H1871	H187	0.410600	0.956100	0.125200
H1881	H188	0.480500	0.935300	0.138300
H1891	H189	0.370000	0.856900	0.194600
H1901	H190	0.429500	0.906700	0.192700
H1911	H191	0.359600	0.927600	0.179600
H1921	H192	0.466100	0.786000	0.131000
H1931	H193	0.494100	0.816100	0.163300
H1941	H194	0.432000	0.769500	0.164200
H1951	H195	0.253800	0.810200	0.014500
H1961	H196	0.190400	0.864300	0.976400
H1971	H197	0.203700	0.707500	0.917600
H1981	H198	0.268600	0.656900	0.953900
H1991	H199	0.089700	0.958100	0.882300
H2001	H200	0.138300	0.904400	0.868500
H2011	H201	0.067000	0.883900	0.879900
H2021	H202	0.097900	0.902900	0.966300
H2031	H203	0.064400	0.956900	0.944400
H2041	H204	0.041900	0.882700	0.941900
H2051	H205	0.211800	0.934300	0.945700
H2061	H206	0.227300	0.929400	0.908500
H2071	H207	0.184000	0.987900	0.921800
H2081	H208	0.409200	0.766100	0.988700
H2091	H209	0.503200	0.744100	0.959100
H2101	H210	0.451700	0.551100	0.957100
H2111	H211	0.363400	0.573300	0.989900
H2121	H212	0.529500	0.554100	0.883700
H2131	H213	0.553600	0.486200	0.898000
H2141	H214	0.491000	0.521400	0.912600
H2151	H215	0.606600	0.484200	0.954300
H2161	H216	0.615800	0.551200	0.973100
H2171	H217	0.544800	0.520500	0.969100
H2181	H218	0.639500	0.600800	0.892800
H2191	H219	0.670800	0.602000	0.927600
H2201	H220	0.665300	0.535000	0.908600
H2211	H221	0.085500	0.428200	0.223000
H2221	H222	0.257500	0.667600	0.147000
H2231	H223	0.196400	0.944000	0.026600
H2241	H224	0.254300	0.165900	0.138700
C11	C1	0.810860	0.813810	0.763670
C21	C2	0.874640	0.780710	0.776540
C31	C3	0.894050	0.715340	0.769920
C41	C4	0.947350	0.687230	0.783390
C51	C5	0.988130	0.724290	0.803550
C61	C6	0.971560	0.788230	0.810880
C71	C7	0.915850	0.816120	0.798180
C81	C8	0.082840	0.635120	0.806930
C91	C9	0.044100	0.575390	0.817230
C101	C10	0.155140	0.639580	0.821600
C111	C11	0.092740	0.637900	0.769300
C121	C12	0.769330	0.828020	0.794120
C131	C13	0.746610	0.887830	0.804380
C141	C14	0.709200	0.895250	0.831590
C151	C15	0.695130	0.842330	0.851340
C161	C16	0.717930	0.780990	0.842100
C171	C17	0.754560	0.774760	0.814140
C181	C18	0.635970	0.908600	0.897890
C191	C19	0.580020	0.941210	0.877520
C201	C20	0.608590	0.890170	0.931950
C211	C21	0.696900	0.954570	0.901970
C221	C22	0.773030	0.769430	0.739260
C231	C23	0.710620	0.744660	0.744910
C241	C24	0.678000	0.706210	0.721930
C251	C25	0.707250	0.691120	0.692630
C261	C26	0.770940	0.714500	0.686840
C271	C27	0.801100	0.752340	0.708800
C281	C28	0.600470	0.631040	0.669230
C291	C29	0.587230	0.603860	0.634060
C301	C30	0.588360	0.579000	0.695410
C311	C31	0.558170	0.694590	0.674260
C321	C32	0.828060	0.876640	0.743440
C331	C33	0.777500	0.918920	0.733090
C341	C34	0.790320	0.974770	0.714810
C351	C35	0.855920	0.988690	0.704750
C361	C36	0.905620	0.944550	0.714120
C371	C37	0.892170	0.890890	0.733410
C381	C38	0.934900	0.077880	0.677130
C391	C39	0.971690	0.033920	0.653130
C401	C40	0.973360	0.087120	0.708890
C411	C41	0.923240	0.144220	0.662770
C421	C42	0.027900	0.690900	0.997770
C431	C43	0.045820	0.679050	0.962680
C441	C44	0.070790	0.616830	0.956450
C451	C45	0.093960	0.600550	0.926530
C461	C46	0.851010	0.635590	0.876680
C471	C47	0.897670	0.689650	0.883540
C481	C48	0.877330	0.751410	0.892880
C491	C49	0.916730	0.802940	0.896470
C501	C50	0.883070	0.868860	0.904300
C511	C51	0.607600	0.591810	0.807900
C521	C52	0.586270	0.660270	0.819850
C531	C53	0.559920	0.706730	0.798470
C541	C54	0.540080	0.766460	0.809330
C551	C55	0.520300	0.810200	0.785240
C561	C56	0.354700	0.645390	0.870160
C571	C57	0.403620	0.692920	0.879050
C581	C58	0.379820	0.748450	0.889030
C591	C59	0.418960	0.799800	0.900180
C601	C60	0.375100	0.864490	0.907490
C611	C61	0.189140	0.186190	0.263670
C621	C62	0.125360	0.219290	0.276540
C631	C63	0.105950	0.284660	0.269920
C641	C64	0.052650	0.312770	0.283390
C651	C65	0.011870	0.275710	0.303550
C661	C66	0.028440	0.211770	0.310880
C671	C67	0.084150	0.183880	0.298180
C681	C68	0.917160	0.364880	0.306930
C691	C69	0.955900	0.424610	0.317230
C701	C70	0.844860	0.360420	0.321600
C711	C71	0.907260	0.362100	0.269300
C721	C72	0.230670	0.171980	0.294120
C731	C73	0.253390	0.112170	0.304380
C741	C74	0.290800	0.104750	0.331590
C751	C75	0.304870	0.157670	0.351340
C761	C76	0.282070	0.219010	0.342100
C771	C77	0.245440	0.225240	0.314140
C781	C78	0.364030	0.091400	0.397890
C791	C79	0.419980	0.058790	0.377520
C801	C80	0.391410	0.109830	0.431950
C811	C81	0.303100	0.045430	0.401970
C821	C82	0.226970	0.230570	0.239260
C831	C83	0.289380	0.255340	0.244910
C841	C84	0.322000	0.293790	0.221930
C851	C85	0.292750	0.308880	0.192630
C861	C86	0.229060	0.285500	0.186840
C871	C87	0.198900	0.247660	0.208800
C881	C88	0.399530	0.368960	0.169230
C891	C89	0.412770	0.396140	0.134060
C901	C90	0.411640	0.421000	0.195410
C911	C91	0.441830	0.305410	0.174260
C921	C92	0.171940	0.123360	0.243440
C931	C93	0.222500	0.081080	0.233090
C941	C94	0.209680	0.025230	0.214810
C951	C95	0.144080	0.011310	0.204750
C961	C96	0.094380	0.055450	0.214120
C971	C97	0.107830	0.109110	0.233410
C981	C98	0.065100	0.922120	0.177130
C991	C99	0.028310	0.966080	0.153130
C1001	C100	0.026640	0.912880	0.208890
C1011	C101	0.076760	0.855780	0.162770
C1021	C102	0.972100	0.309100	0.497770
C1031	C103	0.954180	0.320950	0.462680
C1041	C104	0.929210	0.383170	0.456450
C1051	C105	0.906040	0.399450	0.426530
C1061	C106	0.148990	0.364410	0.376680
C1071	C107	0.102330	0.310350	0.383540
C1081	C108	0.122670	0.248590	0.392880
C1091	C109	0.083270	0.197060	0.396470
C1101	C110	0.116930	0.131140	0.404300
C1111	C111	0.392400	0.408190	0.307900
C1121	C112	0.413730	0.339730	0.319850
C1131	C113	0.440080	0.293270	0.298470
C1141	C114	0.459920	0.233540	0.309330
C1151	C115	0.479700	0.189800	0.285240
C1161	C116	0.645300	0.354610	0.370160
C1171	C117	0.596380	0.307080	0.379050
C1181	C118	0.620180	0.251550	0.389030
C1191	C119	0.581040	0.200200	0.400180
C1201	C120	0.624900	0.135510	0.407490
C1211	C121	0.686190	0.310860	0.513670
C1221	C122	0.719290	0.374640	0.526540
C1231	C123	0.784660	0.394050	0.519920
C1241	C124	0.812770	0.447350	0.533390
C1251	C125	0.775710	0.488130	0.553550
C1261	C126	0.711770	0.471560	0.560880
C1271	C127	0.683880	0.415850	0.548180
C1281	C128	0.864880	0.582840	0.556930
C1291	C129	0.924610	0.544100	0.567230
C1301	C130	0.860420	0.655140	0.571600
C1311	C131	0.862100	0.592740	0.519300
C1321	C132	0.671980	0.269330	0.544120
C1331	C133	0.612170	0.246610	0.554380
C1341	C134	0.604750	0.209200	0.581590
C1351	C135	0.657670	0.195130	0.601340
C1361	C136	0.719010	0.217930	0.592100
C1371	C137	0.725240	0.254560	0.564140
C1381	C138	0.591400	0.135970	0.647890
C1391	C139	0.558790	0.080020	0.627520
C1401	C140	0.609830	0.108590	0.681950
C1411	C141	0.545430	0.196900	0.651970
C1421	C142	0.730570	0.273030	0.489260
C1431	C143	0.755340	0.210620	0.494910
C1441	C144	0.793790	0.178000	0.471930
C1451	C145	0.808880	0.207250	0.442630
C1461	C146	0.785500	0.270940	0.436840
C1471	C147	0.747660	0.301100	0.458800
C1481	C148	0.868960	0.100470	0.419230
C1491	C149	0.896140	0.087230	0.384060
C1501	C150	0.921000	0.088360	0.445410
C1511	C151	0.805410	0.058170	0.424260
C1521	C152	0.623360	0.328060	0.493440
C1531	C153	0.581080	0.277500	0.483090
C1541	C154	0.525230	0.290320	0.464810
C1551	C155	0.511310	0.355920	0.454750
C1561	C156	0.555450	0.405620	0.464120
C1571	C157	0.609110	0.392170	0.483410
C1581	C158	0.422120	0.434900	0.427130
C1591	C159	0.466080	0.471690	0.403130
C1601	C160	0.412880	0.473360	0.458890
C1611	C161	0.355780	0.423240	0.412770
C1621	C162	0.809100	0.527900	0.747770
C1631	C163	0.820950	0.545820	0.712680
C1641	C164	0.883170	0.570790	0.706450
C1651	C165	0.899450	0.593960	0.676530
C1661	C166	0.864410	0.351010	0.626680
C1671	C167	0.810350	0.397670	0.633540
C1681	C168	0.748590	0.377330	0.642880
C1691	C169	0.697060	0.416730	0.646470
C1701	C170	0.631140	0.383070	0.654300
C1711	C171	0.908190	0.107600	0.557900
C1721	C172	0.839730	0.086270	0.569850
C1731	C173	0.793270	0.059920	0.548470
C1741	C174	0.733540	0.040080	0.559330
C1751	C175	0.689800	0.020300	0.535240
C1761	C176	0.854610	0.854700	0.620160
C1771	C177	0.807080	0.903620	0.629050
C1781	C178	0.751550	0.879820	0.639030
C1791	C179	0.700200	0.918960	0.650180
C1801	C180	0.635510	0.875100	0.657490
C1811	C181	0.313810	0.689140	0.013670
C1821	C182	0.280710	0.625360	0.026540
C1831	C183	0.215340	0.605950	0.019920
C1841	C184	0.187230	0.552650	0.033390
C1851	C185	0.224290	0.511870	0.053550
C1861	C186	0.288230	0.528440	0.060880
C1871	C187	0.316120	0.584150	0.048180
C1881	C188	0.135120	0.417160	0.056930
C1891	C189	0.075390	0.455900	0.067230
C1901	C190	0.139580	0.344860	0.071600
C1911	C191	0.137900	0.407260	0.019300
C1921	C192	0.328020	0.730670	0.044120
C1931	C193	0.387830	0.753390	0.054380
C1941	C194	0.395250	0.790800	0.081590
C1951	C195	0.342330	0.804870	0.101340
C1961	C196	0.280990	0.782070	0.092100
C1971	C197	0.274760	0.745440	0.064140
C1981	C198	0.408600	0.864030	0.147890
C1991	C199	0.441210	0.919980	0.127520
C2001	C200	0.390170	0.891410	0.181950
C2011	C201	0.454570	0.803100	0.151970
C2021	C202	0.269430	0.726970	0.989260
C2031	C203	0.244660	0.789380	0.994910
C2041	C204	0.206210	0.822000	0.971930
C2051	C205	0.191120	0.792750	0.942630
C2061	C206	0.214500	0.729060	0.936840
C2071	C207	0.252340	0.698900	0.958800
C2081	C208	0.131040	0.899530	0.919230
C2091	C209	0.103860	0.912770	0.884060
C2101	C210	0.079000	0.911640	0.945410
C2111	C211	0.194590	0.941830	0.924260
C2121	C212	0.376640	0.671940	0.993440
C2131	C213	0.418920	0.722500	0.983090
C2141	C214	0.474770	0.709680	0.964810
C2151	C215	0.488690	0.644080	0.954750
C2161	C216	0.444550	0.594380	0.964120
C2171	C217	0.390890	0.607830	0.983410
C2181	C218	0.577880	0.565100	0.927130
C2191	C219	0.533920	0.528310	0.903130
C2201	C220	0.587120	0.526640	0.958890
C2211	C221	0.644220	0.576760	0.912770
C2221	C222	0.190900	0.472100	0.247770
C2231	C223	0.179050	0.454180	0.212680
C2241	C224	0.116830	0.429210	0.206450
C2251	C225	0.100550	0.406040	0.176530
C2261	C226	0.135590	0.648990	0.126680
C2271	C227	0.189650	0.602330	0.133540
C2281	C228	0.251410	0.622670	0.142880
C2291	C229	0.302940	0.583270	0.146470
C2301	C230	0.368860	0.616930	0.154300
C2311	C231	0.091810	0.892400	0.057900
C2321	C232	0.160270	0.913730	0.069850
C2331	C233	0.206730	0.940080	0.048470
C2341	C234	0.266460	0.959920	0.059330
C2351	C235	0.310200	0.979700	0.035240
C2361	C236	0.145390	0.145300	0.120160
C2371	C237	0.192920	0.096380	0.129050
C2381	C238	0.248450	0.120180	0.139030
C2391	C239	0.299800	0.081040	0.150180
C2401	C240	0.364490	0.124900	0.157490
N11	N1	0.047280	0.696720	0.818340
N21	N2	0.656140	0.845700	0.879480
N31	N3	0.675030	0.652160	0.668910
N41	N4	0.867660	0.046830	0.685280
N51	N5	0.952720	0.303280	0.318340
N61	N6	0.343860	0.154300	0.379480
N71	N7	0.324970	0.347840	0.168910
N81	N8	0.132340	0.953170	0.185280
N91	N9	0.803280	0.547280	0.568340
N101	N10	0.654300	0.156140	0.629480
N111	N11	0.847840	0.175030	0.418910
N121	N12	0.453170	0.367660	0.435280
N131	N13	0.196720	0.452720	0.068340
N141	N14	0.345700	0.843860	0.129480
N151	N15	0.152160	0.824970	0.918910
N161	N16	0.546830	0.632340	0.935280
O11	O1	0.072370	0.730700	0.842200
O21	O2	0.636250	0.790400	0.891770
O31	O3	0.711850	0.631090	0.645440
O41	O4	0.815760	0.074080	0.672900
O51	O5	0.035850	0.726730	0.943100
O61	O6	0.095460	0.635130	0.901020
O71	O7	0.958270	0.672360	0.880220
O81	O8	0.976820	0.806940	0.893690
O91	O9	0.594740	0.665430	0.849400
O101	O10	0.539580	0.790110	0.836620
O111	O11	0.463530	0.676610	0.874420
O121	O12	0.481230	0.804030	0.900160
O131	O13	0.927630	0.269300	0.342200
O141	O14	0.363750	0.209600	0.391770
O151	O15	0.288150	0.368910	0.145440
O161	O16	0.184240	0.925920	0.172900
O171	O17	0.964150	0.273270	0.443100
O181	O18	0.904540	0.364870	0.401020
O191	O19	0.041730	0.327640	0.380220
O201	O20	0.023180	0.193060	0.393690
O211	O21	0.405260	0.334570	0.349400
O221	O22	0.460420	0.209890	0.336620
O231	O23	0.536470	0.323390	0.374420
O241	O24	0.518770	0.195970	0.400160
O251	O25	0.769300	0.572370	0.592200
O261	O26	0.709600	0.136250	0.641770
O271	O27	0.868910	0.211850	0.395440
O281	O28	0.425920	0.315760	0.422900
O291	O29	0.773270	0.535850	0.693100
O301	O30	0.864870	0.595460	0.651020
O311	O31	0.827640	0.458270	0.630220
O321	O32	0.693060	0.476820	0.643690
O331	O33	0.834570	0.094740	0.599400
O341	O34	0.709890	0.039580	0.586620
O351	O35	0.823390	0.963530	0.624420
O361	O36	0.695970	0.981230	0.650160
O371	O37	0.230700	0.427630	0.092200
O381	O38	0.290400	0.863750	0.141770
O391	O39	0.131090	0.788150	0.895440
O401	O40	0.574080	0.684240	0.922900
O411	O41	0.226730	0.464150	0.193100
O421	O42	0.135130	0.404540	0.151020
O431	O43	0.172360	0.541730	0.130220
O441	O44	0.306940	0.523180	0.143690
O451	O45	0.165430	0.905260	0.099400
O461	O46	0.290110	0.960420	0.086620
O471	O47	0.176610	0.036470	0.124420
O481	O48	0.304030	0.018770	0.150160
F11	F1	0.074100	0.727530	0.010930
F21	F2	0.977010	0.719600	0.002060
F31	F3	0.029740	0.641920	0.016940
F41	F4	0.858640	0.613520	0.845880
F51	F5	0.789610	0.649560	0.881630
F61	F6	0.857690	0.584010	0.894570
F71	F7	0.858270	0.898680	0.877750
F81	F8	0.919090	0.911500	0.914700
F91	F9	0.829230	0.861420	0.920990
F101	F10	0.575300	0.547600	0.817680
F111	F11	0.661340	0.569180	0.820810
F121	F12	0.608700	0.585420	0.778610
F131	F13	0.561900	0.857500	0.778250
F141	F14	0.512110	0.792340	0.754360
F151	F15	0.475620	0.851470	0.789140
F161	F16	0.354060	0.593350	0.891380
F171	F17	0.364730	0.613030	0.844200
F181	F18	0.293270	0.657230	0.869480
F191	F19	0.401750	0.915580	0.901490
F201	F20	0.336660	0.854920	0.931170
F211	F21	0.925900	0.272470	0.510930
F221	F22	0.022990	0.280400	0.502060
F231	F23	0.970260	0.358080	0.516940
F241	F24	0.141360	0.386480	0.345880
F251	F25	0.210390	0.350440	0.381630
F261	F26	0.142310	0.415990	0.394570
F271	F27	0.141730	0.101320	0.377750
F281	F28	0.080910	0.088500	0.414700
F291	F29	0.170770	0.138580	0.420990
F301	F30	0.424700	0.452400	0.317680
F311	F31	0.338660	0.430820	0.320810
F321	F32	0.391300	0.414580	0.278610
F331	F33	0.438100	0.142500	0.278250
F341	F34	0.487890	0.207660	0.254360
F351	F35	0.524380	0.148530	0.289140
F361	F36	0.645940	0.406650	0.391380
F371	F37	0.635270	0.386970	0.344200
F381	F38	0.706730	0.342770	0.369480
F391	F39	0.598250	0.084420	0.401490
F401	F40	0.663340	0.145080	0.431170
F411	F41	0.772470	0.574100	0.760930
F421	F42	0.780400	0.477010	0.752060
F431	F43	0.858080	0.529740	0.766940
F441	F44	0.886480	0.358640	0.595880
F451	F45	0.850440	0.289610	0.631630
F461	F46	0.915990	0.357690	0.644570
F471	F47	0.601320	0.358270	0.627750
F481	F48	0.588500	0.419090	0.664700
F491	F49	0.638580	0.329230	0.670990
F501	F50	0.952400	0.075300	0.567680
F511	F51	0.930820	0.161340	0.570810
F521	F52	0.914580	0.108700	0.528610
F531	F53	0.642500	0.061900	0.528250
F541	F54	0.707660	0.012110	0.504360
F551	F55	0.648530	0.975620	0.539140
F561	F56	0.906650	0.854060	0.641380
F571	F57	0.886970	0.864730	0.594200
F581	F58	0.842770	0.793270	0.619480
F591	F59	0.584420	0.901750	0.651490
F601	F60	0.645080	0.836660	0.681170
F611	F61	0.227530	0.425900	0.260930
F621	F62	0.219600	0.522990	0.252060
F631	F63	0.141920	0.470260	0.266940
F641	F64	0.113520	0.641360	0.095880
F651	F65	0.149560	0.710390	0.131630
F661	F66	0.084010	0.642310	0.144570
F671	F67	0.398680	0.641730	0.127750
F681	F68	0.411500	0.580910	0.164700
F691	F69	0.361420	0.670770	0.170990
F701	F70	0.047600	0.924700	0.067680
F711	F71	0.069180	0.838660	0.070810
F721	F72	0.085420	0.891300	0.028610
F731	F73	0.357500	0.938100	0.028250
F741	F74	0.292340	0.987890	0.004360
F751	F75	0.351470	0.024380	0.039140
F761	F76	0.093350	0.145940	0.141380
F771	F77	0.113030	0.135270	0.094200
F781	F78	0.157230	0.206730	0.119480
F791	F79	0.415580	0.098250	0.151490
F801	F80	0.354920	0.163340	0.181170
Mn91	Mn9	0.452730	0.227230	0.858270
Mn101	Mn10	0.949200	0.236000	0.869730
Mn111	Mn11	0.547270	0.772770	0.358270
Mn121	Mn12	0.050800	0.764000	0.369730
Mn131	Mn13	0.727230	0.047270	0.108270
Mn141	Mn14	0.736000	0.550800	0.119730
Mn151	Mn15	0.272770	0.952730	0.608270
Mn161	Mn16	0.264000	0.449200	0.619730
H2251	H225	0.631300	0.190500	0.994500
H2261	H226	0.542900	0.143000	0.970700
H2271	H227	0.501500	0.312900	0.925400
H2281	H228	0.595300	0.359300	0.946200
H2291	H229	0.499000	0.076500	0.942700
H2301	H230	0.432900	0.036000	0.939400
H2311	H231	0.460600	0.075400	0.909600
H2321	H232	0.347300	0.138100	0.905200
H2331	H233	0.318900	0.102900	0.936100
H2341	H234	0.324500	0.180400	0.935100
H2351	H235	0.449600	0.135300	0.991200
H2361	H236	0.385900	0.178700	0.986500
H2371	H237	0.380200	0.101200	0.987500
H2381	H238	0.742900	0.425300	0.957700
H2391	H239	0.807100	0.437000	0.913100
H2401	H240	0.791400	0.243900	0.895300
H2411	H241	0.729900	0.233000	0.941600
H2421	H242	0.903100	0.452600	0.893500
H2431	H243	0.956100	0.410600	0.874800
H2441	H244	0.935300	0.480500	0.861700
H2451	H245	0.856900	0.370000	0.805400
H2461	H246	0.906700	0.429500	0.807300
H2471	H247	0.927600	0.359600	0.820400
H2481	H248	0.786000	0.466100	0.869000
H2491	H249	0.816100	0.494100	0.836700
H2501	H250	0.769500	0.432000	0.835800
H2511	H251	0.810200	0.253800	0.985500
H2521	H252	0.864300	0.190400	0.023600
H2531	H253	0.707500	0.203700	0.082400
H2541	H254	0.656900	0.268600	0.046100
H2551	H255	0.958100	0.089700	0.117700
H2561	H256	0.904400	0.138300	0.131500
H2571	H257	0.883900	0.067000	0.120100
H2581	H258	0.902900	0.097900	0.033700
H2591	H259	0.956900	0.064400	0.055600
H2601	H260	0.882700	0.041900	0.058100
H2611	H261	0.934300	0.211800	0.054300
H2621	H262	0.929400	0.227300	0.091500
H2631	H263	0.987900	0.184000	0.078200
H2641	H264	0.766100	0.409200	0.011300
H2651	H265	0.744100	0.503200	0.040900
H2661	H266	0.551100	0.451700	0.042900
H2671	H267	0.573300	0.363400	0.010100
H2681	H268	0.554100	0.529500	0.116300
H2691	H269	0.486200	0.553600	0.102000
H2701	H270	0.521400	0.491000	0.087400
H2711	H271	0.484200	0.606600	0.045700
H2721	H272	0.551200	0.615800	0.026900
H2731	H273	0.520500	0.544800	0.030900
H2741	H274	0.600800	0.639500	0.107200
H2751	H275	0.602000	0.670800	0.072400
H2761	H276	0.535000	0.665300	0.091400
H2771	H277	0.428200	0.085500	0.777000
H2781	H278	0.667600	0.257500	0.853000
H2791	H279	0.944000	0.196400	0.973400
H2801	H280	0.165900	0.254300	0.861300
H2811	H281	0.368700	0.809500	0.494500
H2821	H282	0.457100	0.857000	0.470700
H2831	H283	0.498500	0.687100	0.425400
H2841	H284	0.404700	0.640700	0.446200
H2851	H285	0.501000	0.923500	0.442700
H2861	H286	0.567100	0.964000	0.439400
H2871	H287	0.539400	0.924600	0.409600
H2881	H288	0.652700	0.861900	0.405200
H2891	H289	0.681100	0.897100	0.436100
H2901	H290	0.675500	0.819600	0.435100
H2911	H291	0.550400	0.864700	0.491200
H2921	H292	0.614100	0.821300	0.486500
H2931	H293	0.619800	0.898800	0.487500
H2941	H294	0.257100	0.574700	0.457700
H2951	H295	0.192900	0.563000	0.413100
H2961	H296	0.208600	0.756100	0.395300
H2971	H297	0.270100	0.767000	0.441600
H2981	H298	0.096900	0.547400	0.393500
H2991	H299	0.043900	0.589400	0.374800
H3001	H300	0.064700	0.519500	0.361700
H3011	H301	0.143100	0.630000	0.305400
H3021	H302	0.093300	0.570500	0.307300
H3031	H303	0.072400	0.640400	0.320400
H3041	H304	0.214000	0.533900	0.369000
H3051	H305	0.183900	0.505900	0.336700
H3061	H306	0.230500	0.568000	0.335800
H3071	H307	0.189800	0.746200	0.485500
H3081	H308	0.135700	0.809600	0.523600
H3091	H309	0.292500	0.796300	0.582400
H3101	H310	0.343100	0.731400	0.546100
H3111	H311	0.041900	0.910300	0.617700
H3121	H312	0.095600	0.861700	0.631500
H3131	H313	0.116100	0.933000	0.620100
H3141	H314	0.097100	0.902100	0.533700
H3151	H315	0.043100	0.935600	0.555600
H3161	H316	0.117300	0.958100	0.558100
H3171	H317	0.065700	0.788200	0.554300
H3181	H318	0.070600	0.772700	0.591500
H3191	H319	0.012100	0.816000	0.578200
H3201	H320	0.233900	0.590800	0.511300
H3211	H321	0.255900	0.496800	0.540900
H3221	H322	0.448900	0.548300	0.542900
H3231	H323	0.426700	0.636600	0.510100
H3241	H324	0.445900	0.470500	0.616300
H3251	H325	0.513800	0.446400	0.602000
H3261	H326	0.478600	0.509000	0.587400
H3271	H327	0.515800	0.393400	0.545700
H3281	H328	0.448800	0.384200	0.526900
H3291	H329	0.479500	0.455200	0.530900
H3301	H330	0.399200	0.360500	0.607200
H3311	H331	0.398000	0.329200	0.572400
H3321	H332	0.465000	0.334700	0.591400
H3331	H333	0.571800	0.914500	0.277000
H3341	H334	0.332400	0.742500	0.353000
H3351	H335	0.056000	0.803600	0.473400
H3361	H336	0.834100	0.745700	0.361300
H3371	H337	0.690500	0.868700	0.244500
H3381	H338	0.643000	0.957100	0.220700
H3391	H339	0.812900	0.998500	0.175400
H3401	H340	0.859300	0.904700	0.196200
H3411	H341	0.576500	0.001000	0.192700
H3421	H342	0.536000	0.067100	0.189400
H3431	H343	0.575400	0.039400	0.159600
H3441	H344	0.638100	0.152700	0.155200
H3451	H345	0.602900	0.181100	0.186100
H3461	H346	0.680400	0.175500	0.185100
H3471	H347	0.635300	0.050400	0.241200
H3481	H348	0.678700	0.114100	0.236500
H3491	H349	0.601200	0.119800	0.237500
H3501	H350	0.925300	0.757100	0.207700
H3511	H351	0.937000	0.692900	0.163100
H3521	H352	0.743900	0.708600	0.145300
H3531	H353	0.733000	0.770100	0.191600
H3541	H354	0.952600	0.596900	0.143500
H3551	H355	0.910600	0.543900	0.124800
H3561	H356	0.980500	0.564700	0.111700
H3571	H357	0.870000	0.643100	0.055400
H3581	H358	0.929500	0.593300	0.057300
H3591	H359	0.859600	0.572400	0.070400
H3601	H360	0.966100	0.714000	0.119000
H3611	H361	0.994100	0.683900	0.086700
H3621	H362	0.932000	0.730500	0.085800
H3631	H363	0.753800	0.689800	0.235500
H3641	H364	0.690400	0.635700	0.273600
H3651	H365	0.703700	0.792500	0.332400
H3661	H366	0.768600	0.843100	0.296100
H3671	H367	0.589700	0.541900	0.367700
H3681	H368	0.638300	0.595600	0.381500
H3691	H369	0.567000	0.616100	0.370100
H3701	H370	0.597900	0.597100	0.283700
H3711	H371	0.564400	0.543100	0.305600
H3721	H372	0.541900	0.617300	0.308100
H3731	H373	0.711800	0.565700	0.304300
H3741	H374	0.727300	0.570600	0.341500
H3751	H375	0.684000	0.512100	0.328200
H3761	H376	0.909200	0.733900	0.261300
H3771	H377	0.003200	0.755900	0.290900
H3781	H378	0.951700	0.948900	0.292900
H3791	H379	0.863400	0.926700	0.260100
H3801	H380	0.029500	0.945900	0.366300
H3811	H381	0.053600	0.013800	0.352000
H3821	H382	0.991000	0.978600	0.337400
H3831	H383	0.106600	0.015800	0.295700
H3841	H384	0.115800	0.948800	0.276900
H3851	H385	0.044800	0.979500	0.280900
H3861	H386	0.139500	0.899200	0.357200
H3871	H387	0.170800	0.898000	0.322400
H3881	H388	0.165300	0.965000	0.341400
H3891	H389	0.585500	0.071800	0.027000
H3901	H390	0.757500	0.832400	0.103000
H3911	H391	0.696400	0.556000	0.223400
H3921	H392	0.754300	0.334100	0.111300
H3931	H393	0.309500	0.131300	0.744500
H3941	H394	0.357000	0.042900	0.720700
H3951	H395	0.187100	0.001500	0.675400
H3961	H396	0.140700	0.095300	0.696200
H3971	H397	0.423500	0.999000	0.692700
H3981	H398	0.464000	0.932900	0.689400
H3991	H399	0.424600	0.960600	0.659600
H4001	H400	0.361900	0.847300	0.655200
H4011	H401	0.397100	0.818900	0.686100
H4021	H402	0.319600	0.824500	0.685100
H4031	H403	0.364700	0.949600	0.741200
H4041	H404	0.321300	0.885900	0.736500
H4051	H405	0.398800	0.880200	0.737500
H4061	H406	0.074700	0.242900	0.707700
H4071	H407	0.063000	0.307100	0.663100
H4081	H408	0.256100	0.291400	0.645300
H4091	H409	0.267000	0.229900	0.691600
H4101	H410	0.047400	0.403100	0.643500
H4111	H411	0.089400	0.456100	0.624800
H4121	H412	0.019500	0.435300	0.611700
H4131	H413	0.130000	0.356900	0.555400
H4141	H414	0.070500	0.406700	0.557300
H4151	H415	0.140400	0.427600	0.570400
H4161	H416	0.033900	0.286000	0.619000
H4171	H417	0.005900	0.316100	0.586700
H4181	H418	0.068000	0.269500	0.585800
H4191	H419	0.246200	0.310200	0.735500
H4201	H420	0.309600	0.364300	0.773600
H4211	H421	0.296300	0.207500	0.832400
H4221	H422	0.231400	0.156900	0.796100
H4231	H423	0.410300	0.458100	0.867700
H4241	H424	0.361700	0.404400	0.881500
H4251	H425	0.433000	0.383900	0.870100
H4261	H426	0.402100	0.402900	0.783700
H4271	H427	0.435600	0.456900	0.805600
H4281	H428	0.458100	0.382700	0.808100
H4291	H429	0.288200	0.434300	0.804300
H4301	H430	0.272700	0.429400	0.841500
H4311	H431	0.316000	0.487900	0.828200
H4321	H432	0.090800	0.266100	0.761300
H4331	H433	0.996800	0.244100	0.790900
H4341	H434	0.048300	0.051100	0.792900
H4351	H435	0.136600	0.073300	0.760100
H4361	H436	0.970500	0.054100	0.866300
H4371	H437	0.946400	0.986200	0.852000
H4381	H438	0.009000	0.021400	0.837400
H4391	H439	0.893400	0.984200	0.795700
H4401	H440	0.884200	0.051200	0.776900
H4411	H441	0.955200	0.020500	0.780900
H4421	H442	0.860500	0.100800	0.857200
H4431	H443	0.829200	0.102000	0.822400
H4441	H444	0.834700	0.035000	0.841400
H4451	H445	0.414500	0.928200	0.527000
H4461	H446	0.242500	0.167600	0.603000
H4471	H447	0.303600	0.444000	0.723400
H4481	H448	0.245700	0.665900	0.611300
C2411	C241	0.689140	0.313810	0.986330
C2421	C242	0.625360	0.280710	0.973460
C2431	C243	0.605950	0.215340	0.980080
C2441	C244	0.552650	0.187230	0.966610
C2451	C245	0.511870	0.224290	0.946450
C2461	C246	0.528440	0.288230	0.939120
C2471	C247	0.584150	0.316120	0.951820
C2481	C248	0.417160	0.135120	0.943070
C2491	C249	0.455900	0.075390	0.932770
C2501	C250	0.344860	0.139580	0.928400
C2511	C251	0.407260	0.137900	0.980700
C2521	C252	0.730670	0.328020	0.955880
C2531	C253	0.753390	0.387830	0.945620
C2541	C254	0.790800	0.395250	0.918410
C2551	C255	0.804870	0.342330	0.898660
C2561	C256	0.782070	0.280990	0.907900
C2571	C257	0.745440	0.274760	0.935860
C2581	C258	0.864030	0.408600	0.852110
C2591	C259	0.919980	0.441210	0.872480
C2601	C260	0.891410	0.390170	0.818050
C2611	C261	0.803100	0.454570	0.848030
C2621	C262	0.726970	0.269430	0.010740
C2631	C263	0.789380	0.244660	0.005090
C2641	C264	0.822000	0.206210	0.028070
C2651	C265	0.792750	0.191120	0.057370
C2661	C266	0.729060	0.214500	0.063160
C2671	C267	0.698900	0.252340	0.041200
C2681	C268	0.899530	0.131040	0.080770
C2691	C269	0.912770	0.103860	0.115940
C2701	C270	0.911640	0.079000	0.054590
C2711	C271	0.941830	0.194590	0.075740
C2721	C272	0.671940	0.376640	0.006560
C2731	C273	0.722500	0.418920	0.016910
C2741	C274	0.709680	0.474770	0.035190
C2751	C275	0.644080	0.488690	0.045250
C2761	C276	0.594380	0.444550	0.035880
C2771	C277	0.607830	0.390890	0.016590
C2781	C278	0.565100	0.577880	0.072870
C2791	C279	0.528310	0.533920	0.096870
C2801	C280	0.526640	0.587120	0.041110
C2811	C281	0.576760	0.644220	0.087230
C2821	C282	0.472100	0.190900	0.752230
C2831	C283	0.454180	0.179050	0.787320
C2841	C284	0.429210	0.116830	0.793550
C2851	C285	0.406040	0.100550	0.823470
C2861	C286	0.648990	0.135590	0.873320
C2871	C287	0.602330	0.189650	0.866460
C2881	C288	0.622670	0.251410	0.857120
C2891	C289	0.583270	0.302940	0.853530
C2901	C290	0.616930	0.368860	0.845700
C2911	C291	0.892400	0.091810	0.942100
C2921	C292	0.913730	0.160270	0.930150
C2931	C293	0.940080	0.206730	0.951530
C2941	C294	0.959920	0.266460	0.940670
C2951	C295	0.979700	0.310200	0.964760
C2961	C296	0.145300	0.145390	0.879840
C2971	C297	0.096380	0.192920	0.870950
C2981	C298	0.120180	0.248450	0.860970
C2991	C299	0.081040	0.299800	0.849820
C3001	C300	0.124900	0.364490	0.842510
C3011	C301	0.310860	0.686190	0.486330
C3021	C302	0.374640	0.719290	0.473460
C3031	C303	0.394050	0.784660	0.480080
C3041	C304	0.447350	0.812770	0.466610
C3051	C305	0.488130	0.775710	0.446450
C3061	C306	0.471560	0.711770	0.439120
C3071	C307	0.415850	0.683880	0.451820
C3081	C308	0.582840	0.864880	0.443070
C3091	C309	0.544100	0.924610	0.432770
C3101	C310	0.655140	0.860420	0.428400
C3111	C311	0.592740	0.862100	0.480700
C3121	C312	0.269330	0.671980	0.455880
C3131	C313	0.246610	0.612170	0.445620
C3141	C314	0.209200	0.604750	0.418410
C3151	C315	0.195130	0.657670	0.398660
C3161	C316	0.217930	0.719010	0.407900
C3171	C317	0.254560	0.725240	0.435860
C3181	C318	0.135970	0.591400	0.352110
C3191	C319	0.080020	0.558790	0.372480
C3201	C320	0.108590	0.609830	0.318050
C3211	C321	0.196900	0.545430	0.348030
C3221	C322	0.273030	0.730570	0.510740
C3231	C323	0.210620	0.755340	0.505090
C3241	C324	0.178000	0.793790	0.528070
C3251	C325	0.207250	0.808880	0.557370
C3261	C326	0.270940	0.785500	0.563160
C3271	C327	0.301100	0.747660	0.541200
C3281	C328	0.100470	0.868960	0.580770
C3291	C329	0.087230	0.896140	0.615940
C3301	C330	0.088360	0.921000	0.554590
C3311	C331	0.058170	0.805410	0.575740
C3321	C332	0.328060	0.623360	0.506560
C3331	C333	0.277500	0.581080	0.516910
C3341	C334	0.290320	0.525230	0.535190
C3351	C335	0.355920	0.511310	0.545250
C3361	C336	0.405620	0.555450	0.535880
C3371	C337	0.392170	0.609110	0.516590
C3381	C338	0.434900	0.422120	0.572870
C3391	C339	0.471690	0.466080	0.596870
C3401	C340	0.473360	0.412880	0.541110
C3411	C341	0.423240	0.355780	0.587230
C3421	C342	0.527900	0.809100	0.252230
C3431	C343	0.545820	0.820950	0.287320
C3441	C344	0.570790	0.883170	0.293550
C3451	C345	0.593960	0.899450	0.323470
C3461	C346	0.351010	0.864410	0.373320
C3471	C347	0.397670	0.810350	0.366460
C3481	C348	0.377330	0.748590	0.357120
C3491	C349	0.416730	0.697060	0.353530
C3501	C350	0.383070	0.631140	0.345700
C3511	C351	0.107600	0.908190	0.442100
C3521	C352	0.086270	0.839730	0.430150
C3531	C353	0.059920	0.793270	0.451530
C3541	C354	0.040080	0.733540	0.440670
C3551	C355	0.020300	0.689800	0.464760
C3561	C356	0.854700	0.854610	0.379840
C3571	C357	0.903620	0.807080	0.370950
C3581	C358	0.879820	0.751550	0.360970
C3591	C359	0.918960	0.700200	0.349820
C3601	C360	0.875100	0.635510	0.342510
C3611	C361	0.813810	0.810860	0.236330
C3621	C362	0.780710	0.874640	0.223460
C3631	C363	0.715340	0.894050	0.230080
C3641	C364	0.687230	0.947350	0.216610
C3651	C365	0.724290	0.988130	0.196450
C3661	C366	0.788230	0.971560	0.189120
C3671	C367	0.816120	0.915850	0.201820
C3681	C368	0.635120	0.082840	0.193070
C3691	C369	0.575390	0.044100	0.182770
C3701	C370	0.639580	0.155140	0.178400
C3711	C371	0.637900	0.092740	0.230700
C3721	C372	0.828020	0.769330	0.205880
C3731	C373	0.887830	0.746610	0.195620
C3741	C374	0.895250	0.709200	0.168410
C3751	C375	0.842330	0.695130	0.148660
C3761	C376	0.780990	0.717930	0.157900
C3771	C377	0.774760	0.754560	0.185860
C3781	C378	0.908600	0.635970	0.102110
C3791	C379	0.941210	0.580020	0.122480
C3801	C380	0.890170	0.608590	0.068050
C3811	C381	0.954570	0.696900	0.098030
C3821	C382	0.769430	0.773030	0.260740
C3831	C383	0.744660	0.710620	0.255090
C3841	C384	0.706210	0.678000	0.278070
C3851	C385	0.691120	0.707250	0.307370
C3861	C386	0.714500	0.770940	0.313160
C3871	C387	0.752340	0.801100	0.291200
C3881	C388	0.631040	0.600470	0.330770
C3891	C389	0.603860	0.587230	0.365940
C3901	C390	0.579000	0.588360	0.304590
C3911	C391	0.694590	0.558170	0.325740
C3921	C392	0.876640	0.828060	0.256560
C3931	C393	0.918920	0.777500	0.266910
C3941	C394	0.974770	0.790320	0.285190
C3951	C395	0.988690	0.855920	0.295250
C3961	C396	0.944550	0.905620	0.285880
C3971	C397	0.890890	0.892170	0.266590
C3981	C398	0.077880	0.934900	0.322870
C3991	C399	0.033920	0.971690	0.346870
C4001	C400	0.087120	0.973360	0.291110
C4011	C401	0.144220	0.923240	0.337230
C4021	C402	0.690900	0.027900	0.002230
C4031	C403	0.679050	0.045820	0.037320
C4041	C404	0.616830	0.070790	0.043550
C4051	C405	0.600550	0.093960	0.073470
C4061	C406	0.635590	0.851010	0.123320
C4071	C407	0.689650	0.897670	0.116460
C4081	C408	0.751410	0.877330	0.107120
C4091	C409	0.802940	0.916730	0.103530
C4101	C410	0.868860	0.883070	0.095700
C4111	C411	0.591810	0.607600	0.192100
C4121	C412	0.660270	0.586270	0.180150
C4131	C413	0.706730	0.559920	0.201530
C4141	C414	0.766460	0.540080	0.190670
C4151	C415	0.810200	0.520300	0.214760
C4161	C416	0.645390	0.354700	0.129840
C4171	C417	0.692920	0.403620	0.120950
C4181	C418	0.748450	0.379820	0.110970
C4191	C419	0.799800	0.418960	0.099820
C4201	C420	0.864490	0.375100	0.092510
C4211	C421	0.186190	0.189140	0.736330
C4221	C422	0.219290	0.125360	0.723460
C4231	C423	0.284660	0.105950	0.730080
C4241	C424	0.312770	0.052650	0.716610
C4251	C425	0.275710	0.011870	0.696450
C4261	C426	0.211770	0.028440	0.689120
C4271	C427	0.183880	0.084150	0.701820
C4281	C428	0.364880	0.917160	0.693070
C4291	C429	0.424610	0.955900	0.682770
C4301	C430	0.360420	0.844860	0.678400
C4311	C431	0.362100	0.907260	0.730700
C4321	C432	0.171980	0.230670	0.705880
C4331	C433	0.112170	0.253390	0.695620
C4341	C434	0.104750	0.290800	0.668410
C4351	C435	0.157670	0.304870	0.648660
C4361	C436	0.219010	0.282070	0.657900
C4371	C437	0.225240	0.245440	0.685860
C4381	C438	0.091400	0.364030	0.602110
C4391	C439	0.058790	0.419980	0.622480
C4401	C440	0.109830	0.391410	0.568050
C4411	C441	0.045430	0.303100	0.598030
C4421	C442	0.230570	0.226970	0.760740
C4431	C443	0.255340	0.289380	0.755090
C4441	C444	0.293790	0.322000	0.778070
C4451	C445	0.308880	0.292750	0.807370
C4461	C446	0.285500	0.229060	0.813160
C4471	C447	0.247660	0.198900	0.791200
C4481	C448	0.368960	0.399530	0.830770
C4491	C449	0.396140	0.412770	0.865940
C4501	C450	0.421000	0.411640	0.804590
C4511	C451	0.305410	0.441830	0.825740
C4521	C452	0.123360	0.171940	0.756560
C4531	C453	0.081080	0.222500	0.766910
C4541	C454	0.025230	0.209680	0.785190
C4551	C455	0.011310	0.144080	0.795250
C4561	C456	0.055450	0.094380	0.785880
C4571	C457	0.109110	0.107830	0.766590
C4581	C458	0.922120	0.065100	0.822870
C4591	C459	0.966080	0.028310	0.846870
C4601	C460	0.912880	0.026640	0.791110
C4611	C461	0.855780	0.076760	0.837230
C4621	C462	0.309100	0.972100	0.502230
C4631	C463	0.320950	0.954180	0.537320
C4641	C464	0.383170	0.929210	0.543550
C4651	C465	0.399450	0.906040	0.573470
C4661	C466	0.364410	0.148990	0.623320
C4671	C467	0.310350	0.102330	0.616460
C4681	C468	0.248590	0.122670	0.607120
C4691	C469	0.197060	0.083270	0.603530
C4701	C470	0.131140	0.116930	0.595700
C4711	C471	0.408190	0.392400	0.692100
C4721	C472	0.339730	0.413730	0.680150
C4731	C473	0.293270	0.440080	0.701530
C4741	C474	0.233540	0.459920	0.690670
C4751	C475	0.189800	0.479700	0.714760
C4761	C476	0.354610	0.645300	0.629840
C4771	C477	0.307080	0.596380	0.620950
C4781	C478	0.251550	0.620180	0.610970
C4791	C479	0.200200	0.581040	0.599820
C4801	C480	0.135510	0.624900	0.592510
N171	N17	0.452720	0.196720	0.931660
N181	N18	0.843860	0.345700	0.870520
N191	N19	0.824970	0.152160	0.081090
N201	N20	0.632340	0.546830	0.064720
N211	N21	0.547280	0.803280	0.431660
N221	N22	0.156140	0.654300	0.370520
N231	N23	0.175030	0.847840	0.581090
N241	N24	0.367660	0.453170	0.564720
N251	N25	0.696720	0.047280	0.181660
N261	N26	0.845700	0.656140	0.120520
N271	N27	0.652160	0.675030	0.331090
N281	N28	0.046830	0.867660	0.314720
N291	N29	0.303280	0.952720	0.681660
N301	N30	0.154300	0.343860	0.620520
N311	N31	0.347840	0.324970	0.831090
N321	N32	0.953170	0.132340	0.814720
O491	O49	0.427630	0.230700	0.907800
O501	O50	0.863750	0.290400	0.858230
O511	O51	0.788150	0.131090	0.104560
O521	O52	0.684240	0.574080	0.077100
O531	O53	0.464150	0.226730	0.806900
O541	O54	0.404540	0.135130	0.848980
O551	O55	0.541730	0.172360	0.869780
O561	O56	0.523180	0.306940	0.856310
O571	O57	0.905260	0.165430	0.900600
O581	O58	0.960420	0.290110	0.913380
O591	O59	0.036470	0.176610	0.875580
O601	O60	0.018770	0.304030	0.849840
O611	O61	0.572370	0.769300	0.407800
O621	O62	0.136250	0.709600	0.358230
O631	O63	0.211850	0.868910	0.604560
O641	O64	0.315760	0.425920	0.577100
O651	O65	0.535850	0.773270	0.306900
O661	O66	0.595460	0.864870	0.348980
O671	O67	0.458270	0.827640	0.369780
O681	O68	0.476820	0.693060	0.356310
O691	O69	0.094740	0.834570	0.400600
O701	O70	0.039580	0.709890	0.413380
O711	O71	0.963530	0.823390	0.375580
O721	O72	0.981230	0.695970	0.349840
O731	O73	0.730700	0.072370	0.157800
O741	O74	0.790400	0.636250	0.108230
O751	O75	0.631090	0.711850	0.354560
O761	O76	0.074080	0.815760	0.327100
O771	O77	0.726730	0.035850	0.056900
O781	O78	0.635130	0.095460	0.098980
O791	O79	0.672360	0.958270	0.119780
O801	O80	0.806940	0.976820	0.106310
O811	O81	0.665430	0.594740	0.150600
O821	O82	0.790110	0.539580	0.163380
O831	O83	0.676610	0.463530	0.125580
O841	O84	0.804030	0.481230	0.099840
O851	O85	0.269300	0.927630	0.657800
O861	O86	0.209600	0.363750	0.608230
O871	O87	0.368910	0.288150	0.854560
O881	O88	0.925920	0.184240	0.827100
O891	O89	0.273270	0.964150	0.556900
O901	O90	0.364870	0.904540	0.598980
O911	O91	0.327640	0.041730	0.619780
O921	O92	0.193060	0.023180	0.606310
O931	O93	0.334570	0.405260	0.650600
O941	O94	0.209890	0.460420	0.663380
O951	O95	0.323390	0.536470	0.625580
O961	O96	0.195970	0.518770	0.599840
F811	F81	0.425900	0.227530	0.739070
F821	F82	0.522990	0.219600	0.747940
F831	F83	0.470260	0.141920	0.733060
F841	F84	0.641360	0.113520	0.904120
F851	F85	0.710390	0.149560	0.868370
F861	F86	0.642310	0.084010	0.855430
F871	F87	0.641730	0.398680	0.872250
F881	F88	0.580910	0.411500	0.835300
F891	F89	0.670770	0.361420	0.829010
F901	F90	0.924700	0.047600	0.932320
F911	F91	0.838660	0.069180	0.929190
F921	F92	0.891300	0.085420	0.971390
F931	F93	0.938100	0.357500	0.971750
F941	F94	0.987890	0.292340	0.995640
F951	F95	0.024380	0.351470	0.960860
F961	F96	0.145940	0.093350	0.858620
F971	F97	0.135270	0.113030	0.905800
F981	F98	0.206730	0.157230	0.880520
F991	F99	0.098250	0.415580	0.848510
F1001	F100	0.163340	0.354920	0.818830
F1011	F101	0.574100	0.772470	0.239070
F1021	F102	0.477010	0.780400	0.247940
F1031	F103	0.529740	0.858080	0.233060
F1041	F104	0.358640	0.886480	0.404120
F1051	F105	0.289610	0.850440	0.368370
F1061	F106	0.357690	0.915990	0.355430
F1071	F107	0.358270	0.601320	0.372250
F1081	F108	0.419090	0.588500	0.335300
F1091	F109	0.329230	0.638580	0.329010
F1101	F110	0.075300	0.952400	0.432320
F1111	F111	0.161340	0.930820	0.429190
F1121	F112	0.108700	0.914580	0.471390
F1131	F113	0.061900	0.642500	0.471750
F1141	F114	0.012110	0.707660	0.495640
F1151	F115	0.975620	0.648530	0.460860
F1161	F116	0.854060	0.906650	0.358620
F1171	F117	0.864730	0.886970	0.405800
F1181	F118	0.793270	0.842770	0.380520
F1191	F119	0.901750	0.584420	0.348510
F1201	F120	0.836660	0.645080	0.318830
F1211	F121	0.727530	0.074100	0.989070
F1221	F122	0.719600	0.977010	0.997940
F1231	F123	0.641920	0.029740	0.983060
F1241	F124	0.613520	0.858640	0.154120
F1251	F125	0.649560	0.789610	0.118370
F1261	F126	0.584010	0.857690	0.105430
F1271	F127	0.898680	0.858270	0.122250
F1281	F128	0.911500	0.919090	0.085300
F1291	F129	0.861420	0.829230	0.079010
F1301	F130	0.547600	0.575300	0.182320
F1311	F131	0.569180	0.661340	0.179190
F1321	F132	0.585420	0.608700	0.221390
F1331	F133	0.857500	0.561900	0.221750
F1341	F134	0.792340	0.512110	0.245640
F1351	F135	0.851470	0.475620	0.210860
F1361	F136	0.593350	0.354060	0.108620
F1371	F137	0.613030	0.364730	0.155800
F1381	F138	0.657230	0.293270	0.130520
F1391	F139	0.915580	0.401750	0.098510
F1401	F140	0.854920	0.336660	0.068830
F1411	F141	0.272470	0.925900	0.489070
F1421	F142	0.280400	0.022990	0.497940
F1431	F143	0.358080	0.970260	0.483060
F1441	F144	0.386480	0.141360	0.654120
F1451	F145	0.350440	0.210390	0.618370
F1461	F146	0.415990	0.142310	0.605430
F1471	F147	0.101320	0.141730	0.622250
F1481	F148	0.088500	0.080910	0.585300
F1491	F149	0.138580	0.170770	0.579010
F1501	F150	0.452400	0.424700	0.682320
F1511	F151	0.430820	0.338660	0.679190
F1521	F152	0.414580	0.391300	0.721390
F1531	F153	0.142500	0.438100	0.721750
F1541	F154	0.207660	0.487890	0.745640
F1551	F155	0.148530	0.524380	0.710860
F1561	F156	0.406650	0.645940	0.608620
F1571	F157	0.386970	0.635270	0.655800
F1581	F158	0.342770	0.706730	0.630520
F1591	F159	0.084420	0.598250	0.598510
F1601	F160	0.145080	0.663340	0.568830
