data_TIXVON_freeONLY_PM
_symmetry_space_group_name_H-M	'P1'
_cell_length_a	11.374800
_cell_length_b	23.711100
_cell_length_c	22.084200
_cell_angle_alpha	90.000000
_cell_angle_beta	90.000000
_cell_angle_gamma	90.000000
_symmetry_Int_Tables_number 1

loop_
_symmetry_equiv_pos_as_xyz
'x,y,z'

loop_
_atom_site_label
_atom_site_type_symbol
_atom_site_fract_x
_atom_site_fract_y
_atom_site_fract_z
Mg11	Mg1	0.711100	0.940580	0.002430
Mg21	Mg2	0.288900	0.059420	0.997570
Mg31	Mg3	0.000000	0.000000	0.000000
Mg41	Mg4	0.288900	0.440580	0.497570
Mg51	Mg5	0.788900	0.559420	0.002430
Mg61	Mg6	0.211100	0.059420	0.497570
Mg71	Mg7	0.000000	0.500000	0.500000
Mg81	Mg8	0.788900	0.940580	0.502430
Mg91	Mg9	0.211100	0.440580	0.997570
Mg101	Mg10	0.711100	0.559420	0.502430
Mg111	Mg11	0.500000	0.000000	0.500000
Mg121	Mg12	0.500000	0.500000	0.000000
H11	H1	0.114800	0.616400	0.369800
H21	H2	0.692300	0.696900	0.884700
H31	H3	0.608600	0.766400	0.993200
H41	H4	0.863100	0.124100	0.749500
H51	H5	0.938900	0.433600	0.324800
H61	H6	0.096300	0.583300	0.126300
H71	H7	0.891400	0.766400	0.493200
H81	H8	0.081900	0.745500	0.972600
H91	H9	0.061100	0.933600	0.175200
H101	H10	0.898600	0.171800	0.329400
H111	H11	0.148200	0.189500	0.458100
H121	H12	0.851800	0.689500	0.041900
H131	H13	0.624500	0.767800	0.821900
H141	H14	0.418100	0.745500	0.472600
H151	H15	0.319300	0.608300	0.424000
H161	H16	0.476700	0.282800	0.454000
H171	H17	0.318600	0.685300	0.804700
H181	H18	0.061100	0.566400	0.675200
H191	H19	0.907300	0.755100	0.204400
H201	H20	0.181400	0.685300	0.304700
H211	H21	0.407300	0.244900	0.295600
H221	H22	0.819300	0.108300	0.576000
H231	H23	0.200200	0.787700	0.464800
H241	H24	0.388900	0.630400	0.367500
H251	H25	0.592700	0.755100	0.704400
H261	H26	0.681400	0.314700	0.195300
H271	H27	0.391400	0.233600	0.006800
H281	H28	0.438900	0.933600	0.675200
H291	H29	0.872100	0.123300	0.977600
H301	H30	0.611100	0.130400	0.132500
H311	H31	0.621700	0.287700	0.932100
H321	H32	0.407300	0.255100	0.795600
H331	H33	0.947700	0.087100	0.588300
H341	H34	0.680700	0.391700	0.576000
H351	H35	0.092700	0.255100	0.295600
H361	H36	0.818600	0.185300	0.195300
H371	H37	0.476700	0.217200	0.954000
H381	H38	0.552300	0.087100	0.088300
H391	H39	0.918100	0.245500	0.527400
H401	H40	0.385200	0.616400	0.869800
H411	H41	0.378300	0.787700	0.567900
H421	H42	0.878300	0.212300	0.932100
H431	H43	0.898600	0.328200	0.829400
H441	H44	0.403700	0.916700	0.126300
H451	H45	0.596300	0.083300	0.873700
H461	H46	0.938900	0.066400	0.824800
H471	H47	0.375500	0.267800	0.678100
H481	H48	0.627900	0.376700	0.977600
H491	H49	0.819300	0.391700	0.076000
H501	H50	0.114800	0.883600	0.869800
H511	H51	0.192300	0.303100	0.615300
H521	H52	0.523300	0.782800	0.046000
H531	H53	0.121700	0.712300	0.567900
H541	H54	0.132100	0.766000	0.407600
H551	H55	0.081900	0.754500	0.472600
H561	H56	0.627900	0.123300	0.477600
H571	H57	0.124500	0.232200	0.678100
H581	H58	0.601400	0.328200	0.329400
H591	H59	0.092700	0.244900	0.795600
H601	H60	0.888900	0.369600	0.132500
H611	H61	0.888900	0.130400	0.632500
H621	H62	0.329200	0.186200	0.368400
H631	H63	0.101400	0.828200	0.670600
H641	H64	0.976700	0.717200	0.046000
H651	H65	0.680700	0.108300	0.076000
H661	H66	0.581900	0.245500	0.027400
H671	H67	0.614800	0.116400	0.630200
H681	H68	0.523300	0.717200	0.546000
H691	H69	0.596300	0.416700	0.373700
H701	H70	0.052300	0.587100	0.911700
H711	H71	0.192300	0.196900	0.115300
H721	H72	0.700200	0.287700	0.535200
H731	H73	0.375500	0.232200	0.178100
H741	H74	0.363100	0.624100	0.250500
H751	H75	0.624500	0.732200	0.321900
H761	H76	0.875500	0.732200	0.821900
H771	H77	0.867900	0.266000	0.092400
H781	H78	0.388900	0.869600	0.867500
H791	H79	0.878300	0.287700	0.432100
H801	H80	0.108600	0.233600	0.506800
H811	H81	0.136900	0.624100	0.750500
H821	H82	0.372100	0.623300	0.022400
H831	H83	0.023300	0.282800	0.954000
H841	H84	0.170800	0.186200	0.868400
H851	H85	0.851800	0.810500	0.541900
H861	H86	0.692300	0.803100	0.384700
H871	H87	0.307700	0.196900	0.615300
H881	H88	0.807700	0.803100	0.884700
H891	H89	0.681400	0.185300	0.695300
H901	H90	0.319300	0.891700	0.924000
H911	H91	0.799800	0.212300	0.535200
H921	H92	0.170800	0.313800	0.368400
H931	H93	0.299800	0.712300	0.464800
H941	H94	0.329200	0.313800	0.868400
H951	H95	0.670800	0.813800	0.631600
H961	H96	0.378300	0.712300	0.067900
H971	H97	0.372100	0.876700	0.522400
H981	H98	0.863100	0.375900	0.249500
H991	H99	0.181400	0.814700	0.804700
H1001	H100	0.636900	0.375900	0.749500
H1011	H101	0.299800	0.787700	0.964800
H1021	H102	0.611100	0.369600	0.632500
H1031	H103	0.052300	0.912900	0.411700
H1041	H104	0.614800	0.383600	0.130200
H1051	H105	0.670800	0.686200	0.131600
H1061	H106	0.398600	0.671800	0.670600
H1071	H107	0.700200	0.212300	0.035200
H1081	H108	0.891400	0.733600	0.993200
H1091	H109	0.101400	0.671800	0.170600
H1101	H110	0.947700	0.412900	0.088300
H1111	H111	0.200200	0.712300	0.964800
H1121	H112	0.351800	0.189500	0.958100
H1131	H113	0.829200	0.813800	0.131600
H1141	H114	0.121700	0.787700	0.067900
H1151	H115	0.875500	0.767800	0.321900
H1161	H116	0.818600	0.314700	0.695300
H1171	H117	0.367900	0.734000	0.407600
H1181	H118	0.403700	0.583300	0.626300
H1191	H119	0.907300	0.744900	0.704400
H1201	H120	0.621700	0.212300	0.432100
H1211	H121	0.829200	0.686200	0.631600
H1221	H122	0.648200	0.810500	0.041900
H1231	H123	0.561100	0.433600	0.824800
H1241	H124	0.903700	0.083300	0.373700
H1251	H125	0.096300	0.916700	0.626300
H1261	H126	0.136900	0.875900	0.250500
H1271	H127	0.608600	0.733600	0.493200
H1281	H128	0.111100	0.630400	0.867500
H1291	H129	0.867900	0.234000	0.592400
H1301	H130	0.127900	0.623300	0.522400
H1311	H131	0.632100	0.266000	0.592400
H1321	H132	0.885200	0.116400	0.130200
H1331	H133	0.307700	0.303100	0.115300
H1341	H134	0.148200	0.310500	0.958100
H1351	H135	0.180700	0.891700	0.424000
H1361	H136	0.367900	0.766000	0.907600
H1371	H137	0.023300	0.217200	0.454000
H1381	H138	0.903700	0.416700	0.873700
H1391	H139	0.872100	0.376700	0.477600
H1401	H140	0.363100	0.875900	0.750500
H1411	H141	0.391400	0.266400	0.506800
H1421	H142	0.180700	0.608300	0.924000
H1431	H143	0.918100	0.254500	0.027400
H1441	H144	0.108600	0.266400	0.006800
H1451	H145	0.592700	0.744900	0.204400
H1461	H146	0.438900	0.566400	0.175200
H1471	H147	0.398600	0.828200	0.170600
H1481	H148	0.418100	0.754500	0.972600
H1491	H149	0.885200	0.383600	0.630200
H1501	H150	0.318600	0.814700	0.304700
H1511	H151	0.132100	0.734000	0.907600
H1521	H152	0.648200	0.689500	0.541900
H1531	H153	0.111100	0.869600	0.367500
H1541	H154	0.561100	0.066400	0.324800
H1551	H155	0.447700	0.587100	0.411700
H1561	H156	0.552300	0.412900	0.588300
H1571	H157	0.632100	0.234000	0.092400
H1581	H158	0.447700	0.912900	0.911700
H1591	H159	0.385200	0.883600	0.369800
H1601	H160	0.351800	0.310500	0.458100
H1611	H161	0.807700	0.696900	0.384700
H1621	H162	0.127900	0.876700	0.022400
H1631	H163	0.124500	0.267800	0.178100
H1641	H164	0.636900	0.124100	0.249500
H1651	H165	0.601400	0.171800	0.829400
H1661	H166	0.581900	0.254500	0.527400
H1671	H167	0.799800	0.287700	0.035200
H1681	H168	0.976700	0.782800	0.546000
C11	C1	0.938000	0.708900	0.698800
C21	C2	0.678100	0.186130	0.420300
C31	C3	0.231700	0.536080	0.045460
C41	C4	0.876200	0.219000	0.552200
C51	C5	0.653600	0.390880	0.385400
C61	C6	0.818400	0.367320	0.447500
C71	C7	0.156200	0.661900	0.141200
C81	C8	0.607700	0.826100	0.654800
C91	C9	0.076500	0.262700	0.668400
C101	C10	0.883700	0.805090	0.869400
C111	C11	0.970000	0.397720	0.319000
C121	C12	0.604600	0.381200	0.591000
C131	C13	0.561400	0.620770	0.144800
C141	C14	0.605000	0.584190	0.093400
C151	C15	0.424200	0.863200	0.726000
C161	C16	0.576500	0.737300	0.831600
C171	C17	0.893200	0.188100	0.178400
C181	C18	0.438600	0.379230	0.855200
C191	C19	0.846400	0.109120	0.385400
C201	C20	0.758100	0.199380	0.376700
C211	C21	0.933700	0.353320	0.639800
C221	C22	0.587700	0.604270	0.927300
C231	C23	0.234600	0.594080	0.070820
C241	C24	0.438000	0.291100	0.801200
C251	C25	0.343800	0.838100	0.141200
C261	C26	0.082800	0.296500	0.981100
C271	C27	0.029800	0.690100	0.734200
C281	C28	0.383700	0.305090	0.130600
C291	C29	0.821900	0.313870	0.420300
C301	C30	0.758100	0.300620	0.876700
C311	C31	0.036200	0.766500	0.808400
C321	C32	0.876200	0.281000	0.052200
C331	C33	0.395400	0.881200	0.909000
C341	C34	0.454600	0.149390	0.615030
C351	C35	0.606800	0.311900	0.178400
C361	C36	0.104600	0.618800	0.909000
C371	C37	0.530800	0.845200	0.979300
C381	C38	0.062000	0.208900	0.801200
C391	C39	0.536200	0.266500	0.191600
C401	C40	0.768300	0.463920	0.954540
C411	C41	0.265400	0.594080	0.570820
C421	C42	0.606800	0.188100	0.678400
C431	C43	0.741900	0.300620	0.376700
C441	C44	0.395000	0.415810	0.906600
C451	C45	0.438600	0.120770	0.355200
C461	C46	0.318400	0.632680	0.052500
C471	C47	0.123800	0.719000	0.947800
C481	C48	0.454600	0.350610	0.115030
C491	C49	0.433700	0.853320	0.360200
C501	C50	0.470200	0.809900	0.734200
C511	C51	0.923500	0.762700	0.831600
C521	C52	0.678100	0.313870	0.920300
C531	C53	0.893200	0.311900	0.678400
C541	C54	0.765400	0.405920	0.929180
C551	C55	0.843800	0.338100	0.858800
C561	C56	0.346400	0.609120	0.614600
C571	C57	0.566300	0.146680	0.639800
C581	C58	0.530000	0.397720	0.819000
C591	C59	0.469200	0.345200	0.520700
C601	C60	0.433700	0.646680	0.860200
C611	C61	0.681600	0.367320	0.947500
C621	C62	0.045400	0.149390	0.115030
C631	C63	0.423500	0.262700	0.168400
C641	C64	0.393200	0.688100	0.821600
C651	C65	0.530000	0.102280	0.319000
C661	C66	0.938600	0.620770	0.644800
C671	C67	0.970000	0.102280	0.819000
C681	C68	0.082800	0.203500	0.481100
C691	C69	0.231700	0.963920	0.545460
C701	C70	0.105000	0.415810	0.406600
C711	C71	0.765400	0.094080	0.429180
C721	C72	0.575800	0.136800	0.274000
C731	C73	0.045400	0.350610	0.615030
C741	C74	0.268300	0.963920	0.045460
C751	C75	0.087700	0.395730	0.572700
C761	C76	0.734600	0.094080	0.929180
C771	C77	0.061400	0.120770	0.855200
C781	C78	0.105000	0.084190	0.906600
C791	C79	0.241900	0.699380	0.123300
C801	C80	0.321900	0.686130	0.079700
C811	C81	0.030800	0.345200	0.020700
C821	C82	0.587700	0.895730	0.427300
C831	C83	0.463800	0.733500	0.808400
C841	C84	0.924200	0.136800	0.774000
C851	C85	0.061400	0.379230	0.355200
C861	C86	0.561400	0.879230	0.644800
C871	C87	0.846400	0.390880	0.885400
C881	C88	0.181600	0.632680	0.552500
C891	C89	0.741900	0.199380	0.876700
C901	C90	0.343800	0.661900	0.641200
C911	C91	0.265400	0.905920	0.070820
C921	C92	0.178100	0.813870	0.079700
C931	C93	0.605000	0.915810	0.593400
C941	C94	0.241900	0.800620	0.623300
C951	C95	0.470200	0.690100	0.234200
C961	C96	0.030800	0.154800	0.520700
C971	C97	0.318400	0.867320	0.552500
C981	C98	0.376200	0.719000	0.447800
C991	C99	0.545400	0.850610	0.384970
C1001	C100	0.417200	0.203500	0.981100
C1011	C101	0.731700	0.036080	0.954540
C1021	C102	0.123800	0.781000	0.447800
C1031	C103	0.970200	0.309900	0.265800
C1041	C104	0.969200	0.654800	0.979300
C1051	C105	0.623800	0.219000	0.052200
C1061	C106	0.076500	0.237300	0.168400
C1071	C107	0.075800	0.863200	0.226000
C1081	C108	0.912300	0.895730	0.927300
C1091	C109	0.895400	0.381200	0.091000
C1101	C110	0.656200	0.338100	0.358800
C1111	C111	0.036200	0.733500	0.308400
C1121	C112	0.181600	0.867320	0.052500
C1131	C113	0.616300	0.694910	0.869400
C1141	C114	0.417200	0.296500	0.481100
C1151	C115	0.536200	0.233500	0.691600
C1161	C116	0.562000	0.791100	0.698800
C1171	C117	0.030000	0.897720	0.181000
C1181	C118	0.062000	0.291100	0.301200
C1191	C119	0.104600	0.881200	0.409000
C1201	C120	0.545400	0.649390	0.884970
C1211	C121	0.066300	0.853320	0.860200
C1221	C122	0.470000	0.897720	0.681000
C1231	C123	0.030000	0.602280	0.681000
C1241	C124	0.116300	0.305090	0.630600
C1251	C125	0.575800	0.363200	0.774000
C1261	C126	0.178100	0.686130	0.579700
C1271	C127	0.566300	0.353320	0.139800
C1281	C128	0.412300	0.395730	0.072700
C1291	C129	0.768300	0.036080	0.454540
C1301	C130	0.346400	0.890880	0.114600
C1311	C131	0.576500	0.762700	0.331600
C1321	C132	0.954600	0.850610	0.884970
C1331	C133	0.376200	0.781000	0.947800
C1341	C134	0.895400	0.118800	0.591000
C1351	C135	0.153600	0.609120	0.114600
C1361	C136	0.616300	0.805090	0.369400
C1371	C137	0.731700	0.463920	0.454540
C1381	C138	0.883700	0.694910	0.369400
C1391	C139	0.321900	0.813870	0.579700
C1401	C140	0.963800	0.233500	0.191600
C1411	C141	0.604600	0.118800	0.091000
C1421	C142	0.106800	0.688100	0.321600
C1431	C143	0.917200	0.703500	0.018900
C1441	C144	0.383700	0.194910	0.630600
C1451	C145	0.395000	0.084190	0.406600
C1461	C146	0.392300	0.173900	0.345200
C1471	C147	0.087700	0.104270	0.072700
C1481	C148	0.923500	0.737300	0.331600
C1491	C149	0.681600	0.132680	0.447500
C1501	C150	0.107700	0.326100	0.345200
C1511	C151	0.895000	0.915810	0.093400
C1521	C152	0.424200	0.636800	0.226000
C1531	C153	0.969200	0.845200	0.479300
C1541	C154	0.258100	0.800620	0.123300
C1551	C155	0.970200	0.190100	0.765800
C1561	C156	0.116300	0.194910	0.130600
C1571	C157	0.818400	0.132680	0.947500
C1581	C158	0.438000	0.208900	0.301200
C1591	C159	0.469200	0.154800	0.020700
C1601	C160	0.412300	0.104270	0.572700
C1611	C161	0.529800	0.190100	0.265800
C1621	C162	0.924200	0.363200	0.274000
C1631	C163	0.066300	0.646680	0.360200
C1641	C164	0.954600	0.649390	0.384970
C1651	C165	0.963800	0.266500	0.691600
C1661	C166	0.268300	0.536080	0.545460
C1671	C167	0.623800	0.281000	0.552200
C1681	C168	0.895000	0.584190	0.593400
C1691	C169	0.530800	0.654800	0.479300
C1701	C170	0.529800	0.309900	0.765800
C1711	C171	0.938600	0.879230	0.144800
C1721	C172	0.656200	0.161900	0.858800
C1731	C173	0.933700	0.146680	0.139800
C1741	C174	0.392300	0.326100	0.845200
C1751	C175	0.562000	0.708900	0.198800
C1761	C176	0.912300	0.604270	0.427300
C1771	C177	0.075800	0.636800	0.726000
C1781	C178	0.395400	0.618800	0.409000
C1791	C179	0.582800	0.796500	0.018900
C1801	C180	0.653600	0.109120	0.885400
C1811	C181	0.892300	0.826100	0.154800
C1821	C182	0.582800	0.703500	0.518900
C1831	C183	0.892300	0.673900	0.654800
C1841	C184	0.607700	0.673900	0.154800
C1851	C185	0.843800	0.161900	0.358800
C1861	C186	0.917200	0.796500	0.518900
C1871	C187	0.258100	0.699380	0.623300
C1881	C188	0.156200	0.838100	0.641200
C1891	C189	0.107700	0.173900	0.845200
C1901	C190	0.463800	0.766500	0.308400
C1911	C191	0.106800	0.811900	0.821600
C1921	C192	0.029800	0.809900	0.234200
C1931	C193	0.821900	0.186130	0.920300
C1941	C194	0.938000	0.791100	0.198800
C1951	C195	0.470000	0.602280	0.181000
C1961	C196	0.234600	0.905920	0.570820
C1971	C197	0.393200	0.811900	0.321600
C1981	C198	0.734600	0.405920	0.429180
C1991	C199	0.423500	0.237300	0.668400
C2001	C200	0.153600	0.890880	0.614600
N11	N1	0.058100	0.665500	0.945200
N21	N2	0.941900	0.334500	0.054800
N31	N3	0.941900	0.165500	0.554800
N41	N4	0.441900	0.665500	0.445200
N51	N5	0.558100	0.165500	0.054800
N61	N6	0.058100	0.834500	0.445200
N71	N7	0.558100	0.334500	0.554800
N81	N8	0.441900	0.834500	0.945200
O11	O1	0.987600	0.571580	0.448250
O21	O2	0.589000	0.276930	0.723970
O31	O3	0.924300	0.608430	0.982500
O41	O4	0.146300	0.504420	0.057470
O51	O5	0.398300	0.477510	0.432300
O61	O6	0.589000	0.223070	0.223970
O71	O7	0.601700	0.977510	0.067700
O81	O8	0.250000	0.750000	0.655800
O91	O9	0.814000	0.017860	0.988370
O101	O10	0.959500	0.544130	0.577170
O111	O11	0.646300	0.004420	0.942530
O121	O12	0.411000	0.723070	0.276030
O131	O13	0.601700	0.522490	0.567700
O141	O14	0.540500	0.544130	0.077170
O151	O15	0.459500	0.044130	0.422830
O161	O16	0.303600	0.103310	0.561020
O171	O17	0.314000	0.982140	0.511630
O181	O18	0.075700	0.391570	0.017500
O191	O19	0.040500	0.455870	0.422830
O201	O20	0.797900	0.597250	0.570570
O211	O21	0.459500	0.455870	0.922830
O221	O22	0.101700	0.022490	0.432300
O231	O23	0.575700	0.891570	0.982500
O241	O24	0.250000	0.750000	0.155800
O251	O25	0.750000	0.250000	0.844200
O261	O26	0.487600	0.428420	0.051750
O271	O27	0.898300	0.522490	0.067700
O281	O28	0.898300	0.977510	0.567700
O291	O29	0.646300	0.495580	0.442530
O301	O30	0.803600	0.896690	0.938980
O311	O31	0.487600	0.071580	0.551750
O321	O32	0.398300	0.022490	0.932300
O331	O33	0.297900	0.402750	0.929430
O341	O34	0.987600	0.928420	0.948250
O351	O35	0.803600	0.603310	0.438980
O361	O36	0.040500	0.044130	0.922830
O371	O37	0.314000	0.517860	0.011630
O381	O38	0.797900	0.902750	0.070570
O391	O39	0.424300	0.108430	0.017500
O401	O40	0.686000	0.482140	0.988370
O411	O41	0.297900	0.097250	0.429430
O421	O42	0.075700	0.108430	0.517500
O431	O43	0.202100	0.097250	0.929430
O441	O44	0.911000	0.276930	0.223970
O451	O45	0.686000	0.017860	0.488370
O461	O46	0.853700	0.004420	0.442530
O471	O47	0.303600	0.396690	0.061020
O481	O48	0.540500	0.955870	0.577170
O491	O49	0.012400	0.071580	0.051750
O501	O50	0.353700	0.995580	0.057470
O511	O51	0.202100	0.402750	0.429430
O521	O52	0.696400	0.896690	0.438980
O531	O53	0.424300	0.391570	0.517500
O541	O54	0.512400	0.928420	0.448250
O551	O55	0.089000	0.723070	0.776030
O561	O56	0.512400	0.571580	0.948250
O571	O57	0.702100	0.597250	0.070570
O581	O58	0.702100	0.902750	0.570570
O591	O59	0.411000	0.776930	0.776030
O601	O60	0.012400	0.428420	0.551750
O611	O61	0.089000	0.776930	0.276030
O621	O62	0.959500	0.955870	0.077170
O631	O63	0.853700	0.495580	0.942530
O641	O64	0.196400	0.396690	0.561020
O651	O65	0.186000	0.517860	0.511630
O661	O66	0.924300	0.891570	0.482500
O671	O67	0.696400	0.603310	0.938980
O681	O68	0.575700	0.608430	0.482500
O691	O69	0.814000	0.482140	0.488370
O701	O70	0.101700	0.477510	0.932300
O711	O71	0.911000	0.223070	0.723970
O721	O72	0.353700	0.504420	0.557470
O731	O73	0.186000	0.982140	0.011630
O741	O74	0.196400	0.103310	0.061020
O751	O75	0.750000	0.250000	0.344200
O761	O76	0.146300	0.995580	0.557470
