data_TOKDON_freeONLY_PM
_symmetry_space_group_name_H-M	'P1'
_cell_length_a	10.156100
_cell_length_b	12.284300
_cell_length_c	14.686700
_cell_angle_alpha	90.000000
_cell_angle_beta	102.999000
_cell_angle_gamma	90.000000
_symmetry_Int_Tables_number 1

loop_
_symmetry_equiv_pos_as_xyz
'x,y,z'

loop_
_atom_site_label
_atom_site_type_symbol
_atom_site_fract_x
_atom_site_fract_y
_atom_site_fract_z
Cd11	Cd1	0.810480	0.924300	0.938900
Cd21	Cd2	0.189520	0.424300	0.561100
Cd31	Cd3	0.189520	0.075700	0.061100
Cd41	Cd4	0.810480	0.575700	0.438900
H11	H1	0.540900	0.163200	0.703200
H21	H2	0.655100	0.386800	0.538400
H31	H3	0.928500	0.181700	0.685900
H41	H4	0.953000	0.072400	0.829100
H51	H5	0.952500	0.827600	0.086900
H61	H6	0.908600	0.920300	0.119000
H71	H7	0.459100	0.663200	0.796800
H81	H8	0.344900	0.886800	0.961600
H91	H9	0.071500	0.681700	0.814100
H101	H10	0.047000	0.572400	0.670900
H111	H11	0.047500	0.327600	0.413100
H121	H12	0.091400	0.420300	0.381000
H131	H13	0.459100	0.836800	0.296800
H141	H14	0.344900	0.613200	0.461600
H151	H15	0.071500	0.818300	0.314100
H161	H16	0.047000	0.927600	0.170900
H171	H17	0.047500	0.172400	0.913100
H181	H18	0.091400	0.079700	0.881000
H191	H19	0.540900	0.336800	0.203200
H201	H20	0.655100	0.113200	0.038400
H211	H21	0.928500	0.318300	0.185900
H221	H22	0.953000	0.427600	0.329100
H231	H23	0.952500	0.672400	0.586900
H241	H24	0.908600	0.579700	0.619000
C11	C1	0.779800	0.068700	0.776300
C21	C2	0.740500	0.157400	0.705600
C31	C3	0.608300	0.195600	0.678900
C41	C4	0.575900	0.281300	0.616500
C51	C5	0.433400	0.324000	0.592500
C61	C6	0.676400	0.329400	0.580500
C71	C7	0.809000	0.292700	0.606800
C81	C8	0.919600	0.346200	0.570300
C91	C9	0.839900	0.206800	0.668700
C101	C10	0.220200	0.568700	0.723700
C111	C11	0.259500	0.657400	0.794400
C121	C12	0.391700	0.695600	0.821100
C131	C13	0.424100	0.781300	0.883500
C141	C14	0.566600	0.824000	0.907500
C151	C15	0.323600	0.829400	0.919500
C161	C16	0.191000	0.792700	0.893200
C171	C17	0.080400	0.846200	0.929700
C181	C18	0.160100	0.706800	0.831300
C191	C19	0.220200	0.931300	0.223700
C201	C20	0.259500	0.842600	0.294400
C211	C21	0.391700	0.804400	0.321100
C221	C22	0.424100	0.718700	0.383500
C231	C23	0.566600	0.676000	0.407500
C241	C24	0.323600	0.670600	0.419500
C251	C25	0.191000	0.707300	0.393200
C261	C26	0.080400	0.653800	0.429700
C271	C27	0.160100	0.793200	0.331300
C281	C28	0.779800	0.431300	0.276300
C291	C29	0.740500	0.342600	0.205600
C301	C30	0.608300	0.304400	0.178900
C311	C31	0.575900	0.218700	0.116500
C321	C32	0.433400	0.176000	0.092500
C331	C33	0.676400	0.170600	0.080500
C341	C34	0.809000	0.207300	0.106800
C351	C35	0.919600	0.153800	0.070300
C361	C36	0.839900	0.293200	0.168700
O11	O1	0.693600	0.036400	0.819900
O21	O2	0.897500	0.031200	0.792800
O31	O3	0.038500	0.316800	0.604800
O41	O4	0.890500	0.414600	0.506900
O51	O5	0.404300	0.397600	0.531900
O61	O6	0.349900	0.287400	0.635600
O71	O7	0.880900	0.861800	0.089900
O81	O8	0.306400	0.536400	0.680100
O91	O9	0.102500	0.531200	0.707200
O101	O10	0.961500	0.816800	0.895200
O111	O11	0.109500	0.914600	0.993100
O121	O12	0.595700	0.897600	0.968100
O131	O13	0.650100	0.787400	0.864400
O141	O14	0.119100	0.361800	0.410100
O151	O15	0.306400	0.963600	0.180100
O161	O16	0.102500	0.968800	0.207200
O171	O17	0.961500	0.683200	0.395200
O181	O18	0.109500	0.585400	0.493100
O191	O19	0.595700	0.602400	0.468100
O201	O20	0.650100	0.712600	0.364400
O211	O21	0.119100	0.138200	0.910100
O221	O22	0.693600	0.463600	0.319900
O231	O23	0.897500	0.468800	0.292800
O241	O24	0.038500	0.183200	0.104800
O251	O25	0.890500	0.085400	0.006900
O261	O26	0.404300	0.102400	0.031900
O271	O27	0.349900	0.212600	0.135600
O281	O28	0.880900	0.638200	0.589900
