data_TOVJOF_freeONLY_PM
_symmetry_space_group_name_H-M	'P1'
_cell_length_a	18.549000
_cell_length_b	25.085000
_cell_length_c	35.494000
_cell_angle_alpha	91.607000
_cell_angle_beta	90.000000
_cell_angle_gamma	90.000000
_symmetry_Int_Tables_number 1

loop_
_symmetry_equiv_pos_as_xyz
'x,y,z'

loop_
_atom_site_label
_atom_site_type_symbol
_atom_site_fract_x
_atom_site_fract_y
_atom_site_fract_z
Fe11	Fe1	0.722650	0.704240	0.626510
Fe21	Fe2	0.148510	0.177590	0.884850
Fe31	Fe3	0.411460	0.256690	0.319370
Fe41	Fe4	0.851490	0.822410	0.115150
Fe51	Fe5	0.088540	0.256690	0.819370
Fe61	Fe6	0.648510	0.822410	0.615150
Fe71	Fe7	0.777350	0.704240	0.126510
Fe81	Fe8	0.351490	0.177590	0.384850
Fe91	Fe9	0.911460	0.743310	0.180630
Fe101	Fe10	0.277350	0.295760	0.373490
Fe111	Fe11	0.588540	0.743310	0.680630
Fe121	Fe12	0.222650	0.295760	0.873490
H11	H1	0.199700	0.003600	0.596900
H21	H2	0.672800	0.967000	0.865000
H31	H3	0.246300	0.964500	0.189300
H41	H4	0.831800	0.055500	0.873700
H51	H5	0.635300	0.547700	0.601700
H61	H6	0.753700	0.035500	0.810700
H71	H7	0.776600	0.874100	0.355300
H81	H8	0.286600	0.983300	0.256700
H91	H9	0.190600	0.297000	0.716500
H101	H10	0.706900	0.948500	0.697200
H111	H11	0.431700	0.061300	0.193100
H121	H12	0.201900	0.038000	0.128100
H131	H13	0.798400	0.842300	0.911700
H141	H14	0.565700	0.577000	0.315300
H151	H15	0.567400	0.763000	0.138300
H161	H16	0.253700	0.964500	0.689300
H171	H17	0.172600	0.357500	0.973100
H181	H18	0.419200	0.536300	0.403800
H191	H19	0.327200	0.033000	0.135000
H201	H20	0.864700	0.547700	0.101700
H211	H21	0.206900	0.051500	0.802800
H221	H22	0.241800	0.319100	0.163500
H231	H23	0.080800	0.536300	0.903800
H241	H24	0.464700	0.963500	0.185700
H251	H25	0.964700	0.036500	0.314300
H261	H26	0.632400	0.234100	0.343800
H271	H27	0.898800	0.850200	0.858800
H281	H28	0.524900	0.584600	0.427500
H291	H29	0.568300	0.938700	0.806900
H301	H30	0.540700	0.947500	0.127900
H311	H31	0.543700	0.196700	0.848100
H321	H32	0.802300	0.889100	0.841600
H331	H33	0.362000	0.332200	0.783500
H341	H34	0.061700	0.129600	0.739300
H351	H35	0.945400	0.094700	0.882000
H361	H36	0.068300	0.061300	0.693100
H371	H37	0.475100	0.415400	0.572500
H381	H38	0.563200	0.747900	0.436400
H391	H39	0.859200	0.604900	0.968100
H401	H40	0.398800	0.149800	0.641200
H411	H41	0.848200	0.907100	0.614300
H421	H42	0.367600	0.765900	0.656200
H431	H43	0.959300	0.947500	0.627900
H441	H44	0.151800	0.092900	0.385700
H451	H45	0.425300	0.512100	0.669700
H461	H46	0.712500	0.932100	0.410500
H471	H47	0.827200	0.967000	0.365000
H481	H48	0.672600	0.642500	0.526900
H491	H49	0.862800	0.770700	0.831400
H501	H50	0.938300	0.870400	0.260700
H511	H51	0.035300	0.963500	0.685700
H521	H52	0.434300	0.423000	0.684700
H531	H53	0.432600	0.237000	0.861700
H541	H54	0.227600	0.195700	0.122500
H551	H55	0.201600	0.157700	0.088300
H561	H56	0.594900	0.785400	0.495100
H571	H57	0.140800	0.395100	0.031900
H581	H58	0.934300	0.577000	0.815300
H591	H59	0.300300	0.003600	0.096900
H601	H60	0.138000	0.332200	0.283500
H611	H61	0.223400	0.125900	0.644700
H621	H62	0.907100	0.823100	0.898900
H631	H63	0.092900	0.176900	0.101100
H641	H64	0.276600	0.125900	0.144700
H651	H65	0.456300	0.803300	0.151900
H661	H66	0.254000	0.805100	0.664600
H671	H67	0.336700	0.061400	0.095500
H681	H68	0.798100	0.962000	0.871900
H691	H69	0.668200	0.055500	0.373700
H701	H70	0.065700	0.423000	0.184700
H711	H71	0.862000	0.667800	0.716500
H721	H72	0.827400	0.642500	0.026900
H731	H73	0.741800	0.680900	0.336500
H741	H74	0.429500	0.354200	0.730500
H751	H75	0.758200	0.680900	0.836500
H761	H76	0.197700	0.110900	0.158400
H771	H77	0.405100	0.214600	0.504900
H781	H78	0.520300	0.403900	0.324700
H791	H79	0.925300	0.487900	0.830300
H801	H80	0.932600	0.763000	0.638300
H811	H81	0.929500	0.645800	0.769500
H821	H82	0.836700	0.938600	0.404500
H831	H83	0.438300	0.129600	0.239300
H841	H84	0.561700	0.870400	0.760700
H851	H85	0.786600	0.016700	0.243300
H861	H86	0.723400	0.874100	0.855300
H871	H87	0.931700	0.938700	0.306900
H881	H88	0.302300	0.110900	0.658400
H891	H89	0.793100	0.948500	0.197200
H901	H90	0.701600	0.842300	0.411700
H911	H91	0.905100	0.785400	0.995100
H921	H92	0.638000	0.667800	0.216500
H931	H93	0.309400	0.297000	0.216500
H941	H94	0.070500	0.354200	0.230500
H951	H95	0.574700	0.487900	0.330300
H961	H96	0.135300	0.452300	0.898300
H971	H97	0.054600	0.905300	0.118000
H981	H98	0.956300	0.196700	0.348100
H991	H99	0.094900	0.214600	0.004900
H1001	H100	0.809400	0.703000	0.283500
H1011	H101	0.663300	0.938600	0.904500
H1021	H102	0.746000	0.194900	0.335400
H1031	H103	0.746300	0.035500	0.310700
H1041	H104	0.213400	0.983300	0.756700
H1051	H105	0.690600	0.703000	0.783500
H1061	H106	0.439200	0.236300	0.648600
H1071	H107	0.640800	0.604900	0.468100
H1081	H108	0.293100	0.051500	0.302800
H1091	H109	0.272400	0.195700	0.622500
H1101	H110	0.331800	0.944500	0.626300
H1111	H111	0.772400	0.804300	0.877500
H1121	H112	0.800300	0.996400	0.403100
H1131	H113	0.172800	0.033000	0.635000
H1141	H114	0.132400	0.765900	0.156200
H1151	H115	0.651800	0.907100	0.114300
H1161	H116	0.867600	0.234100	0.843800
H1171	H117	0.939200	0.763700	0.851400
H1181	H118	0.364700	0.452300	0.398300
H1191	H119	0.020300	0.596100	0.175300
H1201	H120	0.601200	0.850200	0.358800
H1211	H121	0.246000	0.805100	0.164600
H1221	H122	0.298400	0.157700	0.588300
H1231	H123	0.701900	0.962000	0.371900
H1241	H124	0.560800	0.763700	0.351400
H1251	H125	0.060800	0.236300	0.148600
H1261	H126	0.580800	0.463700	0.596200
H1271	H127	0.554600	0.094700	0.382000
H1281	H128	0.101200	0.149800	0.141200
H1291	H129	0.727600	0.804300	0.377500
H1301	H130	0.063200	0.252100	0.063600
H1311	H131	0.348200	0.092900	0.885700
H1321	H132	0.979700	0.403900	0.824700
H1331	H133	0.697700	0.889100	0.341600
H1341	H134	0.212500	0.067900	0.089500
H1351	H135	0.975100	0.584600	0.927500
H1361	H136	0.040700	0.052500	0.372100
H1371	H137	0.362800	0.229300	0.668600
H1381	H138	0.298100	0.038000	0.628100
H1391	H139	0.535300	0.036500	0.814300
H1401	H140	0.359200	0.395100	0.531900
H1411	H141	0.592900	0.823100	0.398900
H1421	H142	0.067400	0.237000	0.361700
H1431	H143	0.713400	0.016700	0.743300
H1441	H144	0.287500	0.067900	0.589500
H1451	H145	0.043700	0.803300	0.651900
H1461	H146	0.327400	0.357500	0.473100
H1471	H147	0.787500	0.932100	0.910500
H1481	H148	0.407100	0.176900	0.601100
H1491	H149	0.074700	0.512100	0.169700
H1501	H150	0.436800	0.252100	0.563600
H1511	H151	0.445400	0.905300	0.618000
H1521	H152	0.754000	0.194900	0.835400
H1531	H153	0.479700	0.596100	0.675300
H1541	H154	0.570500	0.645800	0.269500
H1551	H155	0.699700	0.996400	0.903100
H1561	H156	0.137200	0.229300	0.168600
H1571	H157	0.919200	0.463700	0.096200
H1581	H158	0.258200	0.319100	0.663500
H1591	H159	0.936800	0.747900	0.936400
H1601	H160	0.459300	0.052500	0.872100
H1611	H161	0.024900	0.415400	0.072500
H1621	H162	0.637200	0.770700	0.331400
H1631	H163	0.163300	0.061400	0.595500
H1641	H164	0.168200	0.944500	0.126300
C11	C1	0.160900	0.908240	0.132370
C21	C2	0.419780	0.948440	0.178160
C31	C3	0.273400	0.301300	0.288570
C41	C4	0.597400	0.632400	0.642770
C51	C5	0.366280	0.097000	0.275400
C61	C6	0.914620	0.726490	0.954730
C71	C7	0.650370	0.663880	0.508480
C81	C8	0.429700	0.405080	0.660880
C91	C9	0.062000	0.199580	0.363850
C101	C10	0.929700	0.594920	0.839120
C111	C11	0.114360	0.330980	0.122950
C121	C12	0.104250	0.251200	0.010360
C131	C13	0.120020	0.168750	0.375020
C141	C14	0.641460	0.984120	0.779450
C151	C15	0.360300	0.802160	0.650130
C161	C16	0.118960	0.342640	0.227650
C171	C17	0.730000	0.687480	0.245020
C181	C18	0.230000	0.312520	0.254980
C191	C19	0.121100	0.177500	0.124800
C201	C20	0.821220	0.946470	0.219430
C211	C21	0.270000	0.312520	0.754980
C221	C22	0.307800	0.198200	0.880740
C231	C23	0.855800	0.028930	0.308730
C241	C24	0.092630	0.459540	0.884470
C251	C25	0.636750	0.717490	0.516520
C261	C26	0.226600	0.301300	0.788570
C271	C27	0.583500	0.647310	0.408840
C281	C28	0.604250	0.748800	0.489640
C291	C29	0.004000	0.824400	0.644250
C301	C30	0.618960	0.657360	0.272350
C311	C31	0.887300	0.770000	0.856200
C321	C32	0.871400	0.859900	0.194790
C331	C33	0.782210	0.121540	0.853790
C341	C34	0.502100	0.520000	0.367600
C351	C35	0.039400	0.426800	0.129090
C361	C36	0.881040	0.657360	0.772350
C371	C37	0.918000	0.096200	0.345920
C381	C38	0.128600	0.140100	0.805210
C391	C39	0.999700	0.569210	0.159210
C401	C40	0.093470	0.884990	0.127410
C411	C41	0.131500	0.358420	0.026430
C421	C42	0.760870	0.691340	0.280680
C431	C43	0.739130	0.691340	0.780680
C441	C44	0.988090	0.120790	0.358820
C451	C45	0.717790	0.121540	0.353790
C461	C46	0.288270	0.904400	0.156230
C471	C47	0.292840	0.825420	0.655090
C481	C48	0.141460	0.015880	0.720550
C491	C49	0.720800	0.678220	0.312170
C501	C50	0.321220	0.053530	0.280570
C511	C51	0.991800	0.194200	0.864340
C521	C52	0.582840	0.168050	0.363710
C531	C53	0.085380	0.273510	0.045270
C541	C54	0.070300	0.405080	0.160880
C551	C55	0.868500	0.641580	0.973570
C561	C56	0.460600	0.426800	0.629090
C571	C57	0.953990	0.599400	0.905770
C581	C58	0.939700	0.490570	0.112220
C591	C59	0.350200	0.338770	0.691990
C601	C60	0.802600	0.835700	0.884100
C611	C61	0.272400	0.116300	0.635700
C621	C62	0.339200	0.261200	0.446890
C631	C63	0.790050	0.050950	0.319690
C641	C64	0.612700	0.770000	0.356200
C651	C65	0.080220	0.948440	0.678160
C661	C66	0.385640	0.330980	0.622950
C671	C67	0.592630	0.540460	0.615530
C681	C68	0.839100	0.091760	0.867630
C691	C69	0.560300	0.490570	0.612220
C701	C70	0.849630	0.663880	0.008480
C711	C71	0.644200	0.028930	0.808730
C721	C72	0.707160	0.174580	0.344910
C731	C73	0.631500	0.641580	0.473570
C741	C74	0.772400	0.883700	0.864300
C751	C75	0.733200	0.936500	0.385000
C761	C76	0.008200	0.805800	0.135660
C771	C77	0.500300	0.569210	0.659210
C781	C78	0.099000	0.327120	0.053300
C791	C79	0.807800	0.801800	0.619260
C801	C80	0.211730	0.904400	0.656230
C811	C81	0.406530	0.884990	0.627410
C821	C82	0.092530	0.099900	0.742800
C831	C83	0.358540	0.015880	0.220550
C841	C84	0.339100	0.908240	0.632370
C851	C85	0.082000	0.903800	0.654080
C861	C86	0.917160	0.168050	0.863710
C871	C87	0.863250	0.717490	0.016520
C881	C88	0.392250	0.357180	0.657810
C891	C89	0.919780	0.051560	0.321840
C901	C90	0.879980	0.831250	0.624980
C911	C91	0.317350	0.012980	0.253150
C921	C92	0.546010	0.599400	0.405770
C931	C93	0.907370	0.540460	0.115530
C941	C94	0.546100	0.910040	0.130010
C951	C95	0.607750	0.642820	0.342190
C961	C96	0.403600	0.059340	0.215380
C971	C97	0.682650	0.987020	0.746850
C981	C98	0.178780	0.053530	0.780570
C991	C99	0.649800	0.661230	0.308010
C1001	C100	0.147760	0.881770	0.643120
C1011	C101	0.032100	0.519320	0.155890
C1021	C102	0.997900	0.520000	0.867600
C1031	C103	0.182650	0.012980	0.753150
C1041	C104	0.766800	0.936500	0.885000
C1051	C105	0.395750	0.251200	0.510360
C1061	C106	0.467900	0.519320	0.655890
C1071	C107	0.592530	0.900100	0.757200
C1081	C108	0.060300	0.509430	0.887780
C1091	C109	0.697400	0.835700	0.384100
C1101	C110	0.453990	0.400600	0.594230
C1111	C111	0.082840	0.831950	0.136290
C1121	C112	0.159100	0.329510	0.259150
C1131	C113	0.770000	0.687480	0.745020
C1141	C114	0.788270	0.095600	0.343770
C1151	C115	0.878900	0.822500	0.875200
C1161	C116	0.858540	0.984120	0.279450
C1171	C117	0.996000	0.175600	0.355750
C1181	C118	0.937400	0.579780	0.139030
C1191	C119	0.439700	0.509430	0.387780
C1201	C120	0.901000	0.672880	0.946700
C1211	C121	0.233200	0.063500	0.115000
C1221	C122	0.046010	0.400600	0.094230
C1231	C123	0.860300	0.197840	0.849870
C1241	C124	0.491800	0.805800	0.635660
C1251	C125	0.352240	0.881770	0.143120
C1261	C126	0.349630	0.336120	0.491520
C1271	C127	0.209950	0.949050	0.680310
C1281	C128	0.817350	0.987020	0.246850
C1291	C129	0.220800	0.321780	0.187830
C1301	C130	0.792840	0.174580	0.844910
C1311	C131	0.305500	0.038200	0.110200
C1321	C132	0.779200	0.678220	0.812170
C1331	C133	0.002100	0.480000	0.132400
C1341	C134	0.378900	0.177500	0.624800
C1351	C135	0.511910	0.120790	0.858820
C1361	C136	0.144200	0.971070	0.691270
C1371	C137	0.192200	0.198200	0.380740
C1381	C138	0.773400	0.698700	0.211430
C1391	C139	0.852240	0.118230	0.356880
C1401	C140	0.866280	0.903000	0.224600
C1411	C141	0.160800	0.261200	0.946890
C1421	C142	0.107750	0.357180	0.157810
C1431	C143	0.496000	0.824400	0.144250
C1441	C144	0.207160	0.825420	0.155090
C1451	C145	0.660900	0.091760	0.367630
C1461	C146	0.562600	0.579780	0.639030
C1471	C147	0.938000	0.800420	0.636150
C1481	C148	0.368500	0.358420	0.526430
C1491	C149	0.580220	0.051560	0.821840
C1501	C150	0.585380	0.726490	0.454730
C1511	C151	0.387300	0.230000	0.643800
C1521	C152	0.194500	0.038200	0.610200
C1531	C153	0.562000	0.800420	0.136150
C1541	C154	0.659100	0.670490	0.240850
C1551	C155	0.136750	0.282510	0.983480
C1561	C156	0.416500	0.352690	0.591160
C1571	C157	0.895750	0.748800	0.989640
C1581	C158	0.096400	0.059340	0.715380
C1591	C159	0.960600	0.573200	0.870910
C1601	C160	0.805500	0.961800	0.389800
C1611	C161	0.903600	0.940660	0.284620
C1621	C162	0.371400	0.140100	0.305210
C1631	C163	0.062600	0.420220	0.860970
C1641	C164	0.414620	0.273510	0.545270
C1651	C165	0.387890	0.113940	0.878090
C1661	C166	0.499700	0.430790	0.340790
C1671	C167	0.438000	0.199580	0.863850
C1681	C168	0.508200	0.194200	0.364340
C1691	C169	0.727600	0.883700	0.364300
C1701	C170	0.694500	0.961800	0.889800
C1711	C171	0.417160	0.831950	0.636290
C1721	C172	0.916500	0.647310	0.908840
C1731	C173	0.711730	0.095600	0.843770
C1741	C174	0.355800	0.971070	0.191270
C1751	C175	0.112110	0.113940	0.378090
C1761	C176	0.097400	0.367600	0.857230
C1771	C177	0.227600	0.116300	0.135700
C1781	C178	0.628600	0.859900	0.694790
C1791	C179	0.620020	0.831250	0.124980
C1801	C180	0.892250	0.642820	0.842190
C1811	C181	0.902600	0.632400	0.142770
C1821	C182	0.570300	0.594920	0.339120
C1831	C183	0.363250	0.282510	0.483480
C1841	C184	0.279200	0.321780	0.687830
C1851	C185	0.850200	0.661230	0.808010
C1861	C186	0.418000	0.903800	0.154080
C1871	C187	0.381040	0.342640	0.727650
C1881	C188	0.582000	0.096200	0.845920
C1891	C189	0.612110	0.886060	0.121910
C1901	C190	0.633720	0.903000	0.724600
C1911	C191	0.011910	0.879210	0.641180
C1921	C192	0.596400	0.940660	0.784620
C1931	C193	0.139700	0.802160	0.150130
C1941	C194	0.290050	0.949050	0.180310
C1951	C195	0.593470	0.115010	0.372590
C1961	C196	0.504000	0.175600	0.855750
C1971	C197	0.599000	0.672880	0.446700
C1981	C198	0.678780	0.946470	0.719430
C1991	C199	0.453900	0.089960	0.869990
C2001	C200	0.967900	0.480680	0.844110
C2011	C201	0.239130	0.308660	0.719320
C2021	C202	0.046100	0.089960	0.369990
C2031	C203	0.614360	0.669020	0.377050
C2041	C204	0.539400	0.573200	0.370910
C2051	C205	0.621100	0.822500	0.375200
C2061	C206	0.660800	0.738800	0.553110
C2071	C207	0.149800	0.338770	0.191990
C2081	C208	0.407370	0.459540	0.384470
C2091	C209	0.953900	0.910040	0.630010
C2101	C210	0.726600	0.698700	0.711430
C2111	C211	0.000300	0.430790	0.840790
C2121	C212	0.302600	0.164300	0.615900
C2131	C213	0.402600	0.367600	0.357230
C2141	C214	0.488090	0.879210	0.141180
C2151	C215	0.197400	0.164300	0.115900
C2161	C216	0.497900	0.480000	0.632400
C2171	C217	0.709950	0.050950	0.819690
C2181	C218	0.437400	0.420220	0.360970
C2191	C219	0.840900	0.670490	0.740850
C2201	C220	0.340900	0.329510	0.759150
C2211	C221	0.266800	0.063500	0.615000
C2221	C222	0.692200	0.801800	0.119260
C2231	C223	0.407470	0.099900	0.242800
C2241	C224	0.260870	0.308660	0.219320
C2251	C225	0.401000	0.327120	0.553300
C2261	C226	0.150370	0.336120	0.991520
C2271	C227	0.906530	0.115010	0.872590
C2281	C228	0.379980	0.168750	0.875020
C2291	C229	0.083500	0.352690	0.091160
C2301	C230	0.885640	0.669020	0.877050
C2311	C231	0.647760	0.118230	0.856880
C2321	C232	0.639700	0.197840	0.349870
C2331	C233	0.839200	0.738800	0.053110
C2341	C234	0.887890	0.886060	0.621910
C2351	C235	0.532100	0.480680	0.344110
C2361	C236	0.217790	0.878460	0.146210
C2371	C237	0.907470	0.900100	0.257200
C2381	C238	0.133720	0.097000	0.775400
C2391	C239	0.282210	0.878460	0.646210
C2401	C240	0.112700	0.230000	0.143800
O11	O1	0.248740	0.313440	0.321320
O21	O2	0.796560	0.712260	0.071640
O31	O3	0.799530	0.646860	0.609320
O41	O4	0.644730	0.894690	0.586440
O51	O5	0.256110	0.168120	0.891060
O61	O6	0.305420	0.246650	0.874190
O71	O7	0.166170	0.278260	0.782770
O81	O8	0.141300	0.274200	0.122840
O91	O9	0.154370	0.243570	0.859010
O101	O10	0.364210	0.215340	0.436100
O111	O11	0.069050	0.333340	0.834350
O121	O12	0.243890	0.168120	0.391060
O131	O13	0.517160	0.728690	0.725640
O141	O14	0.845630	0.756430	0.140990
O151	O15	0.864210	0.784660	0.063900
O161	O16	0.805420	0.753350	0.625810
O171	O17	0.349500	0.839050	0.112860
O181	O18	0.482840	0.271310	0.274360
O191	O19	0.833830	0.721740	0.217230
O201	O20	0.200470	0.353140	0.390680
O211	O21	0.000430	0.237870	0.848350
O221	O22	0.846010	0.641310	0.125120
O231	O23	0.017160	0.271310	0.774360
O241	O24	0.355270	0.105310	0.413560
O251	O25	0.999570	0.762130	0.151650
O261	O26	0.654370	0.756430	0.640990
O271	O27	0.666170	0.721740	0.717230
O281	O28	0.203440	0.287740	0.928360
O291	O29	0.040170	0.167430	0.881200
O301	O30	0.748740	0.686560	0.178680
O311	O31	0.299530	0.353140	0.890680
O321	O32	0.982840	0.728690	0.225640
O331	O33	0.653990	0.641310	0.625120
O341	O34	0.855270	0.894690	0.086440
O351	O35	0.743890	0.831880	0.108940
O361	O36	0.358700	0.274200	0.622840
O371	O37	0.756110	0.831880	0.608940
O381	O38	0.153990	0.358690	0.874880
O391	O39	0.194580	0.246650	0.374190
O401	O40	0.849500	0.160950	0.387140
O411	O41	0.635790	0.784660	0.563900
O421	O42	0.540170	0.832570	0.618800
O431	O43	0.641300	0.725800	0.377160
O441	O44	0.296560	0.287740	0.428360
O451	O45	0.700470	0.646860	0.109320
O461	O46	0.703440	0.712260	0.571640
O471	O47	0.593090	0.818390	0.703430
O481	O48	0.459830	0.167430	0.381200
O491	O49	0.430950	0.333340	0.334350
O501	O50	0.157500	0.133030	0.836020
O511	O51	0.144730	0.105310	0.913560
O521	O52	0.906910	0.818390	0.203430
O531	O53	0.858700	0.725800	0.877160
O541	O54	0.093090	0.181610	0.796570
O551	O55	0.500430	0.762130	0.651650
O561	O56	0.342500	0.133030	0.336020
O571	O57	0.346010	0.358690	0.374880
O581	O58	0.333830	0.278260	0.282770
O591	O59	0.150500	0.839050	0.612860
O601	O60	0.135790	0.215340	0.936100
O611	O61	0.569050	0.666660	0.665650
O621	O62	0.751260	0.686560	0.678680
O631	O63	0.499570	0.237870	0.348350
O641	O64	0.406910	0.181610	0.296570
O651	O65	0.930950	0.666660	0.165650
O661	O66	0.251260	0.313440	0.821320
O671	O67	0.694580	0.753350	0.125810
O681	O68	0.345630	0.243570	0.359010
O691	O69	0.959830	0.832570	0.118800
O701	O70	0.650500	0.160950	0.887140
O711	O71	0.842500	0.866970	0.163980
O721	O72	0.657500	0.866970	0.663980
