data_TOVKIA_freeONLY_PM
_symmetry_space_group_name_H-M	'P1'
_cell_length_a	20.522700
_cell_length_b	20.522700
_cell_length_c	20.522700
_cell_angle_alpha	107.119000
_cell_angle_beta	107.119000
_cell_angle_gamma	107.119000
_symmetry_Int_Tables_number 1

loop_
_symmetry_equiv_pos_as_xyz
'x,y,z'

loop_
_atom_site_label
_atom_site_type_symbol
_atom_site_fract_x
_atom_site_fract_y
_atom_site_fract_z
Fe11	Fe1	0.524110	0.425110	0.975850
Fe21	Fe2	0.975850	0.524110	0.425110
Fe31	Fe3	0.371210	0.371210	0.824570
Fe41	Fe4	0.425110	0.975850	0.524110
Fe51	Fe5	0.824570	0.371210	0.371210
Fe61	Fe6	0.425110	0.524110	0.975850
Fe71	Fe7	0.524110	0.975850	0.425110
Fe81	Fe8	0.371210	0.824570	0.371210
Fe91	Fe9	0.975850	0.425110	0.524110
H11	H1	0.999900	0.411300	0.106500
H21	H2	0.987400	0.463800	0.216200
H31	H3	0.463800	0.987400	0.216200
H41	H4	0.610200	0.732800	0.080900
H51	H5	0.490900	0.368600	0.263900
H61	H6	0.163200	0.822000	0.264300
H71	H7	0.414500	0.732600	0.792400
H81	H8	0.211900	0.834800	0.052200
H91	H9	0.172700	0.522200	0.400000
H101	H10	0.792400	0.414500	0.732600
H111	H11	0.326650	0.326650	0.449400
H121	H12	0.358100	0.548500	0.607200
H131	H13	0.822000	0.264300	0.163200
H141	H14	0.834800	0.052200	0.211900
H151	H15	0.146700	0.719900	0.842900
H161	H16	0.368600	0.263900	0.490900
H171	H17	0.052200	0.211900	0.834800
H181	H18	0.202900	0.811900	0.934400
H191	H19	0.476200	0.351200	0.676200
H201	H20	0.080900	0.610200	0.732800
H211	H21	0.264300	0.822000	0.163200
H221	H22	0.490900	0.263900	0.368600
H231	H23	0.610200	0.080900	0.732800
H241	H24	0.358100	0.607200	0.548500
H251	H25	0.163200	0.264300	0.822000
H261	H26	0.676200	0.476200	0.351200
H271	H27	0.548500	0.358100	0.607200
H281	H28	0.400000	0.522200	0.172700
H291	H29	0.732600	0.792400	0.414500
H301	H30	0.860000	0.660000	0.405400
H311	H31	0.660000	0.405400	0.860000
H321	H32	0.476200	0.676200	0.351200
H331	H33	0.106500	0.999900	0.411300
H341	H34	0.607200	0.548500	0.358100
H351	H35	0.172700	0.400000	0.522200
H361	H36	0.263900	0.490900	0.368600
H371	H37	0.732800	0.080900	0.610200
H381	H38	0.349100	0.030900	0.030900
H391	H39	0.080900	0.732800	0.610200
H401	H40	0.411300	0.999900	0.106500
H411	H41	0.719900	0.842900	0.146700
H421	H42	0.792400	0.732600	0.414500
H431	H43	0.934400	0.811900	0.202900
H441	H44	0.660000	0.860000	0.405400
H451	H45	0.842900	0.146700	0.719900
H461	H46	0.030900	0.030900	0.349100
H471	H47	0.934400	0.202900	0.811900
H481	H48	0.351200	0.676200	0.476200
H491	H49	0.860000	0.405400	0.660000
H501	H50	0.822000	0.163200	0.264300
H511	H51	0.405400	0.860000	0.660000
H521	H52	0.216200	0.987400	0.463800
H531	H53	0.052200	0.834800	0.211900
H541	H54	0.732800	0.610200	0.080900
H551	H55	0.030900	0.349100	0.030900
H561	H56	0.719900	0.146700	0.842900
H571	H57	0.607200	0.358100	0.548500
H581	H58	0.811900	0.202900	0.934400
H591	H59	0.449400	0.326650	0.326650
H601	H60	0.368600	0.490900	0.263900
H611	H61	0.351200	0.476200	0.676200
H621	H62	0.106500	0.411300	0.999900
H631	H63	0.676200	0.351200	0.476200
H641	H64	0.522200	0.400000	0.172700
H651	H65	0.411300	0.106500	0.999900
H661	H66	0.842900	0.719900	0.146700
H671	H67	0.811900	0.934400	0.202900
H681	H68	0.732600	0.414500	0.792400
H691	H69	0.987400	0.216200	0.463800
H701	H70	0.463800	0.216200	0.987400
H711	H71	0.400000	0.172700	0.522200
H721	H72	0.999900	0.106500	0.411300
H731	H73	0.522200	0.172700	0.400000
H741	H74	0.326650	0.449400	0.326650
H751	H75	0.264300	0.163200	0.822000
H761	H76	0.146700	0.842900	0.719900
H771	H77	0.211900	0.052200	0.834800
H781	H78	0.216200	0.463800	0.987400
H791	H79	0.548500	0.607200	0.358100
H801	H80	0.263900	0.368600	0.490900
H811	H81	0.834800	0.211900	0.052200
H821	H82	0.405400	0.660000	0.860000
H831	H83	0.202900	0.934400	0.811900
H841	H84	0.414500	0.792400	0.732600
C11	C1	0.318930	0.391960	0.391960
C21	C2	0.396000	0.637400	0.808600
C31	C3	0.865770	0.085530	0.263100
C41	C4	0.660500	0.660500	0.073800
C51	C5	0.306200	0.918300	0.067900
C61	C6	0.280500	0.993600	0.920200
C71	C7	0.819500	0.518000	0.384500
C81	C8	0.918300	0.306200	0.067900
C91	C9	0.571400	0.658700	0.368300
C101	C10	0.401500	0.768700	0.680500
C111	C11	0.095100	0.470200	0.470200
C121	C12	0.518000	0.384500	0.819500
C131	C13	0.637400	0.396000	0.808600
C141	C14	0.768700	0.680500	0.401500
C151	C15	0.268600	0.400100	0.895200
C161	C16	0.368300	0.571400	0.658700
C171	C17	0.377000	0.774700	0.561000
C181	C18	0.381300	0.963600	0.117900
C191	C19	0.400100	0.268600	0.895200
C201	C20	0.085530	0.865770	0.263100
C211	C21	0.487510	0.415030	0.188160
C221	C22	0.263100	0.865770	0.085530
C231	C23	0.343290	0.416250	0.343290
C241	C24	0.183100	0.956500	0.412600
C251	C25	0.647400	0.387800	0.693100
C261	C26	0.067900	0.918300	0.306200
C271	C27	0.222700	0.858200	0.931000
C281	C28	0.242530	0.469150	0.396420
C291	C29	0.455400	0.156510	0.455400
C301	C30	0.680500	0.768700	0.401500
C311	C31	0.151800	0.294200	0.858100
C321	C32	0.094100	0.730230	0.657470
C331	C33	0.193600	0.863550	0.863550
C341	C34	0.792050	0.153000	0.792050
C351	C35	0.455400	0.455400	0.156510
C361	C36	0.133200	0.722510	0.795590
C371	C37	0.722510	0.795590	0.133200
C381	C38	0.895200	0.400100	0.268600
C391	C39	0.819500	0.384500	0.518000
C401	C40	0.774700	0.561000	0.377000
C411	C41	0.931000	0.858200	0.222700
C421	C42	0.309600	0.988250	0.988250
C431	C43	0.416250	0.343290	0.343290
C441	C44	0.858100	0.294200	0.151800
C451	C45	0.133200	0.795590	0.722510
C461	C46	0.795590	0.722510	0.133200
C471	C47	0.487510	0.188160	0.415030
C481	C48	0.993600	0.280500	0.920200
C491	C49	0.401500	0.680500	0.768700
C501	C50	0.469150	0.242530	0.396420
C511	C51	0.774700	0.377000	0.561000
C521	C52	0.067900	0.306200	0.918300
C531	C53	0.988250	0.309600	0.988250
C541	C54	0.571400	0.368300	0.658700
C551	C55	0.384500	0.819500	0.518000
C561	C56	0.693100	0.387800	0.647400
C571	C57	0.963600	0.117900	0.381300
C581	C58	0.188160	0.487510	0.415030
C591	C59	0.920200	0.280500	0.993600
C601	C60	0.183100	0.412600	0.956500
C611	C61	0.920200	0.993600	0.280500
C621	C62	0.156510	0.455400	0.455400
C631	C63	0.657470	0.094100	0.730230
C641	C64	0.699700	0.528200	0.363600
C651	C65	0.363600	0.699700	0.528200
C661	C66	0.469150	0.396420	0.242530
C671	C67	0.306200	0.067900	0.918300
C681	C68	0.768700	0.401500	0.680500
C691	C69	0.073800	0.660500	0.660500
C701	C70	0.657470	0.730230	0.094100
C711	C71	0.722510	0.133200	0.795590
C721	C72	0.033200	0.589300	0.589300
C731	C73	0.200450	0.903350	0.368900
C741	C74	0.561000	0.774700	0.377000
C751	C75	0.918300	0.067900	0.306200
C761	C76	0.387800	0.647400	0.693100
C771	C77	0.895200	0.268600	0.400100
C781	C78	0.343290	0.343290	0.416250
C791	C79	0.956500	0.412600	0.183100
C801	C80	0.117900	0.381300	0.963600
C811	C81	0.377000	0.561000	0.774700
C821	C82	0.637400	0.808600	0.396000
C831	C83	0.363600	0.528200	0.699700
C841	C84	0.268600	0.895200	0.400100
C851	C85	0.561000	0.377000	0.774700
C861	C86	0.368900	0.903350	0.200450
C871	C87	0.730230	0.094100	0.657470
C881	C88	0.368300	0.658700	0.571400
C891	C89	0.693100	0.647400	0.387800
C901	C90	0.808600	0.396000	0.637400
C911	C91	0.518000	0.819500	0.384500
C921	C92	0.265440	0.418780	0.418780
C931	C93	0.415030	0.487510	0.188160
C941	C94	0.660500	0.073800	0.660500
C951	C95	0.387800	0.693100	0.647400
C961	C96	0.085530	0.263100	0.865770
C971	C97	0.368900	0.200450	0.903350
C981	C98	0.858200	0.222700	0.931000
C991	C99	0.188160	0.415030	0.487510
C1001	C100	0.294200	0.151800	0.858100
C1011	C101	0.730230	0.657470	0.094100
C1021	C102	0.931000	0.222700	0.858200
C1031	C103	0.647400	0.693100	0.387800
C1041	C104	0.658700	0.368300	0.571400
C1051	C105	0.412600	0.183100	0.956500
C1061	C106	0.280500	0.920200	0.993600
C1071	C107	0.151800	0.858100	0.294200
C1081	C108	0.391960	0.318930	0.391960
C1091	C109	0.396420	0.242530	0.469150
C1101	C110	0.415030	0.188160	0.487510
C1111	C111	0.903350	0.368900	0.200450
C1121	C112	0.858100	0.151800	0.294200
C1131	C113	0.418780	0.265440	0.418780
C1141	C114	0.956500	0.183100	0.412600
C1151	C115	0.963600	0.381300	0.117900
C1161	C116	0.242530	0.396420	0.469150
C1171	C117	0.863550	0.863550	0.193600
C1181	C118	0.470200	0.095100	0.470200
C1191	C119	0.263100	0.085530	0.865770
C1201	C120	0.418780	0.418780	0.265440
C1211	C121	0.795590	0.133200	0.722510
C1221	C122	0.699700	0.363600	0.528200
C1231	C123	0.396420	0.469150	0.242530
C1241	C124	0.400100	0.895200	0.268600
C1251	C125	0.412600	0.956500	0.183100
C1261	C126	0.808600	0.637400	0.396000
C1271	C127	0.865770	0.263100	0.085530
C1281	C128	0.117900	0.963600	0.381300
C1291	C129	0.589300	0.033200	0.589300
C1301	C130	0.680500	0.401500	0.768700
C1311	C131	0.792050	0.792050	0.153000
C1321	C132	0.381300	0.117900	0.963600
C1331	C133	0.589300	0.589300	0.033200
C1341	C134	0.988250	0.988250	0.309600
C1351	C135	0.153000	0.792050	0.792050
C1361	C136	0.294200	0.858100	0.151800
C1371	C137	0.200450	0.368900	0.903350
C1381	C138	0.396000	0.808600	0.637400
C1391	C139	0.222700	0.931000	0.858200
C1401	C140	0.094100	0.657470	0.730230
C1411	C141	0.993600	0.920200	0.280500
C1421	C142	0.528200	0.699700	0.363600
C1431	C143	0.863550	0.193600	0.863550
C1441	C144	0.858200	0.931000	0.222700
C1451	C145	0.658700	0.571400	0.368300
C1461	C146	0.470200	0.470200	0.095100
C1471	C147	0.384500	0.518000	0.819500
C1481	C148	0.903350	0.200450	0.368900
C1491	C149	0.391960	0.391960	0.318930
C1501	C150	0.528200	0.363600	0.699700
O11	O1	0.597510	0.016700	0.529790
O21	O2	0.403980	0.554120	0.890800
O31	O3	0.031430	0.406610	0.614920
O41	O4	0.279370	0.361050	0.843590
O51	O5	0.463010	0.942230	0.314060
O61	O6	0.403980	0.890800	0.554120
O71	O7	0.926080	0.439210	0.439210
O81	O8	0.942230	0.463010	0.314060
O91	O9	0.406610	0.031430	0.614920
O101	O10	0.452320	0.789690	0.367790
O111	O11	0.597510	0.529790	0.016700
O121	O12	0.614920	0.031430	0.406610
O131	O13	0.942230	0.314060	0.463010
O141	O14	0.069210	0.440940	0.508850
O151	O15	0.279370	0.843590	0.361050
O161	O16	0.361050	0.843590	0.279370
O171	O17	0.069210	0.508850	0.440940
O181	O18	0.406610	0.614920	0.031430
O191	O19	0.031430	0.614920	0.406610
O201	O20	0.789690	0.367790	0.452320
O211	O21	0.439210	0.439210	0.926080
O221	O22	0.508850	0.069210	0.440940
O231	O23	0.890800	0.554120	0.403980
O241	O24	0.508850	0.440940	0.069210
O251	O25	0.463010	0.314060	0.942230
O261	O26	0.843590	0.361050	0.279370
O271	O27	0.715700	0.296600	0.296600
O281	O28	0.367790	0.789690	0.452320
O291	O29	0.440940	0.069210	0.508850
O301	O30	0.554120	0.403980	0.890800
O311	O31	0.789690	0.452320	0.367790
O321	O32	0.843590	0.279370	0.361050
O331	O33	0.296600	0.715700	0.296600
O341	O34	0.890800	0.403980	0.554120
O351	O35	0.452320	0.367790	0.789690
O361	O36	0.440940	0.508850	0.069210
O371	O37	0.529790	0.016700	0.597510
O381	O38	0.554120	0.890800	0.403980
O391	O39	0.367790	0.452320	0.789690
O401	O40	0.296600	0.296600	0.715700
O411	O41	0.361050	0.279370	0.843590
O421	O42	0.016700	0.597510	0.529790
O431	O43	0.614920	0.406610	0.031430
O441	O44	0.529790	0.597510	0.016700
O451	O45	0.314060	0.463010	0.942230
O461	O46	0.439210	0.926080	0.439210
O471	O47	0.314060	0.942230	0.463010
O481	O48	0.016700	0.529790	0.597510
