data_TOWPEC_freeONLY_PM
_symmetry_space_group_name_H-M	'P1'
_cell_length_a	38.142400
_cell_length_b	38.142400
_cell_length_c	38.142400
_cell_angle_alpha	109.471000
_cell_angle_beta	109.471000
_cell_angle_gamma	109.471000
_symmetry_Int_Tables_number 1

loop_
_symmetry_equiv_pos_as_xyz
'x,y,z'

loop_
_atom_site_label
_atom_site_type_symbol
_atom_site_fract_x
_atom_site_fract_y
_atom_site_fract_z
Fe11	Fe1	0.720660	0.970960	0.423060
Fe21	Fe2	0.279340	0.029040	0.576940
Fe31	Fe3	0.939090	0.467790	0.236900
Fe41	Fe4	0.702190	0.763100	0.230890
Fe51	Fe5	0.532210	0.263100	0.560910
Fe61	Fe6	0.736900	0.939090	0.967790
Fe71	Fe7	0.951500	0.733930	0.015630
Fe81	Fe8	0.048500	0.266070	0.984370
Fe91	Fe9	0.220660	0.797600	0.749700
Fe101	Fe10	0.736300	0.280400	0.751900
Fe111	Fe11	0.015600	0.751900	0.471500
Fe121	Fe12	0.702400	0.423060	0.452100
Fe131	Fe13	0.230890	0.967790	0.028700
Fe141	Fe14	0.560910	0.797810	0.528700
Fe151	Fe15	0.451500	0.435870	0.217570
Fe161	Fe16	0.236300	0.484400	0.455900
Fe171	Fe17	0.249700	0.220660	0.297600
Fe181	Fe18	0.280400	0.251900	0.236300
Fe191	Fe19	0.797600	0.249700	0.720660
Fe201	Fe20	0.970960	0.923060	0.220660
Fe211	Fe21	0.076940	0.279340	0.529040
Fe221	Fe22	0.060910	0.532210	0.763100
Fe231	Fe23	0.733930	0.515630	0.451500
Fe241	Fe24	0.471300	0.769110	0.532210
Fe251	Fe25	0.750300	0.779340	0.702400
Fe261	Fe26	0.515600	0.044100	0.263700
Fe271	Fe27	0.751900	0.971500	0.515600
Fe281	Fe28	0.029040	0.076940	0.779340
Fe291	Fe29	0.576940	0.047900	0.797600
Fe301	Fe30	0.452100	0.529040	0.249700
Fe311	Fe31	0.250300	0.547900	0.970960
Fe321	Fe32	0.528500	0.780400	0.044100
Fe331	Fe33	0.984370	0.218300	0.435870
Fe341	Fe34	0.781700	0.064130	0.515630
Fe351	Fe35	0.236900	0.269110	0.797810
Fe361	Fe36	0.032210	0.471300	0.269110
Fe371	Fe37	0.028500	0.984400	0.748100
Fe381	Fe38	0.251900	0.736300	0.780400
Fe391	Fe39	0.769110	0.032210	0.971300
Fe401	Fe40	0.935870	0.984370	0.718300
Fe411	Fe41	0.779340	0.202400	0.250300
Fe421	Fe42	0.248100	0.028500	0.484400
Fe431	Fe43	0.218300	0.935870	0.484370
Fe441	Fe44	0.028700	0.560910	0.297810
Fe451	Fe45	0.219600	0.455900	0.971500
Fe461	Fe46	0.263100	0.060910	0.032210
Fe471	Fe47	0.782430	0.718300	0.733930
Fe481	Fe48	0.297600	0.576940	0.547900
Fe491	Fe49	0.266070	0.484370	0.548500
Fe501	Fe50	0.766070	0.217570	0.781700
Fe511	Fe51	0.763700	0.515600	0.544100
Fe521	Fe52	0.202190	0.971300	0.939090
Fe531	Fe53	0.971500	0.015600	0.251900
Fe541	Fe54	0.515630	0.951500	0.233930
Fe551	Fe55	0.064130	0.015630	0.281700
Fe561	Fe56	0.967790	0.528700	0.730890
Fe571	Fe57	0.718300	0.233930	0.282430
Fe581	Fe58	0.233930	0.782430	0.218300
Fe591	Fe59	0.423060	0.952100	0.202400
Fe601	Fe60	0.971300	0.439090	0.702190
Fe611	Fe61	0.282430	0.548500	0.064130
Fe621	Fe62	0.780400	0.544100	0.028500
Fe631	Fe63	0.717570	0.451500	0.935870
Fe641	Fe64	0.217570	0.281700	0.266070
Fe651	Fe65	0.297810	0.236900	0.769110
Fe661	Fe66	0.528700	0.230890	0.467790
Fe671	Fe67	0.435870	0.717570	0.951500
Fe681	Fe68	0.923060	0.720660	0.470960
Fe691	Fe69	0.797810	0.028700	0.060910
Fe701	Fe70	0.455900	0.471500	0.719600
Fe711	Fe71	0.439090	0.202190	0.471300
Fe721	Fe72	0.015630	0.781700	0.564130
Fe731	Fe73	0.748100	0.263700	0.219600
Fe741	Fe74	0.529040	0.749700	0.952100
Fe751	Fe75	0.044100	0.763700	0.015600
Fe761	Fe76	0.763100	0.730890	0.202190
Fe771	Fe77	0.484400	0.955900	0.736300
Fe781	Fe78	0.467790	0.736900	0.439090
Fe791	Fe79	0.281700	0.766070	0.717570
Fe801	Fe80	0.749700	0.452100	0.029040
Fe811	Fe81	0.471500	0.219600	0.955900
Fe821	Fe82	0.548500	0.564130	0.782430
Fe831	Fe83	0.952100	0.702400	0.923060
Fe841	Fe84	0.719600	0.748100	0.763700
Fe851	Fe85	0.544100	0.528500	0.280400
Fe861	Fe86	0.202400	0.750300	0.279340
Fe871	Fe87	0.269110	0.297810	0.736900
Fe881	Fe88	0.955900	0.236300	0.984400
Fe891	Fe89	0.984400	0.248100	0.528500
Fe901	Fe90	0.470960	0.250300	0.047900
Fe911	Fe91	0.564130	0.282430	0.048500
Fe921	Fe92	0.263700	0.719600	0.248100
Fe931	Fe93	0.730890	0.702190	0.263100
Fe941	Fe94	0.547900	0.470960	0.750300
Fe951	Fe95	0.047900	0.297600	0.076940
Fe961	Fe96	0.484370	0.048500	0.766070
H11	H1	0.119300	0.429900	0.121800
H21	H2	0.870900	0.231200	0.377700
H31	H3	0.622900	0.606800	0.910100
H41	H4	0.497900	0.301600	0.908300
H51	H5	0.929600	0.109900	0.110700
H61	H6	0.570400	0.681100	0.180300
H71	H7	0.712600	0.103600	0.998400
H81	H8	0.610200	0.700200	0.981800
H91	H9	0.109000	0.212600	0.714200
H101	H10	0.803700	0.393300	0.301600
H111	H11	0.910000	0.281600	0.299800
H121	H12	0.819000	0.412300	0.802900
H131	H13	0.497500	0.189400	0.119300
H141	H14	0.911700	0.090600	0.392500
H151	H15	0.359100	0.008300	0.130800
H161	H16	0.000800	0.390100	0.319700
H171	H17	0.483900	0.093300	0.181000
H181	H18	0.896000	0.250400	0.872200
H191	H19	0.859100	0.728300	0.350800
H201	H20	0.621800	0.249600	0.145600
H211	H21	0.588300	0.980800	0.178900
H221	H22	0.639700	0.146500	0.768800
H231	H23	0.360300	0.853500	0.231200
H241	H24	0.604000	0.476200	0.354400
H251	H25	0.483900	0.877100	0.287200
H261	H26	0.149200	0.140900	0.771700
H271	H27	0.122900	0.212800	0.016100
H281	H28	0.089900	0.196700	0.212800
H291	H29	0.429900	0.621800	0.619300
H301	H30	0.016100	0.303300	0.393200
H311	H31	0.411700	0.019200	0.821100
H321	H32	0.910400	0.303700	0.502100
H331	H33	0.088300	0.909400	0.607500
H341	H34	0.006800	0.860300	0.129100
H351	H35	0.906700	0.319000	0.016100
H361	H36	0.993200	0.139700	0.870900
H371	H37	0.605200	0.714200	0.501600
H381	H38	0.250400	0.372200	0.396000
H391	H39	0.110200	0.128400	0.910000
H401	H40	0.390100	0.819700	0.500800
H411	H41	0.878200	0.808100	0.497500
H421	H42	0.303300	0.893200	0.516100
H431	H43	0.983900	0.696700	0.606800
H441	H44	0.212600	0.214200	0.609000
H451	H45	0.590000	0.889800	0.371600
H461	H46	0.860300	0.629100	0.506800
H471	H47	0.818900	0.889300	0.999200
H481	H48	0.178900	0.698100	0.090600
H491	H49	0.698100	0.590600	0.678900
H501	H50	0.493200	0.622300	0.853500
H511	H51	0.070400	0.890100	0.889300
H521	H52	0.696300	0.997900	0.589600
H531	H53	0.502100	0.698400	0.091700
H541	H54	0.603600	0.391000	0.605200
H551	H55	0.799800	0.910000	0.781600
H561	H56	0.678900	0.588300	0.480800
H571	H57	0.516100	0.906700	0.819000
H581	H58	0.802900	0.890600	0.483900
H591	H59	0.002100	0.910400	0.803700
H601	H60	0.370900	0.993200	0.639700
H611	H61	0.121800	0.191900	0.502500
H621	H62	0.912300	0.593300	0.109400
H631	H63	0.350500	0.746400	0.377500
H641	H64	0.810600	0.380700	0.002500
H651	H65	0.409400	0.821100	0.801900
H661	H66	0.249600	0.645600	0.121800
H671	H67	0.350800	0.122500	0.991700
H681	H68	0.093300	0.681000	0.983900
H691	H69	0.408300	0.497900	0.801600
H701	H70	0.303700	0.002100	0.410400
H711	H71	0.198100	0.519200	0.107500
H721	H72	0.628400	0.018200	0.718400
H731	H73	0.781600	0.371600	0.481800
H741	H74	0.910100	0.803300	0.787200
H751	H75	0.630800	0.359100	0.508300
H761	H76	0.698400	0.591700	0.002100
H771	H77	0.406700	0.390600	0.587700
H781	H78	0.393300	0.801600	0.303700
H791	H79	0.287400	0.896400	0.001600
H801	H80	0.396000	0.523800	0.645600
H811	H81	0.973000	0.622500	0.368900
H821	H82	0.368900	0.246400	0.895900
H831	H83	0.868900	0.973000	0.122500
H841	H84	0.395900	0.368900	0.746400
H851	H85	0.377700	0.646500	0.006800
H861	H86	0.877500	0.350500	0.246400
H871	H87	0.394800	0.285800	0.498400
H881	H88	0.610700	0.929600	0.609900
H891	H89	0.369200	0.640900	0.491700
H901	H90	0.591700	0.502100	0.198400
H911	H91	0.589900	0.377100	0.893200
H921	H92	0.299800	0.518200	0.889800
H931	H93	0.390600	0.087700	0.906700
H941	H94	0.378200	0.880700	0.070100
H951	H95	0.894800	0.396400	0.109000
H961	H96	0.646500	0.506800	0.877700
H971	H97	0.691900	0.070100	0.189400
H981	H98	0.753600	0.604100	0.131100
H991	H99	0.103600	0.498400	0.212600
H1001	H100	0.354400	0.378200	0.250400
H1011	H101	0.106800	0.983900	0.196700
H1021	H102	0.878200	0.023800	0.627800
H1031	H103	0.929900	0.310600	0.808100
H1041	H104	0.508300	0.649200	0.377500
H1051	H105	0.181100	0.110700	0.000800
H1061	H106	0.850500	0.473000	0.604100
H1071	H107	0.801600	0.803700	0.893300
H1081	H108	0.476200	0.854400	0.104000
H1091	H109	0.198400	0.196300	0.106700
H1101	H110	0.308100	0.929900	0.810600
H1111	H111	0.589600	0.091700	0.393300
H1121	H112	0.087700	0.406700	0.890600
H1131	H113	0.890600	0.983900	0.302900
H1141	H114	0.649500	0.253600	0.622500
H1151	H115	0.129100	0.768800	0.622300
H1161	H116	0.122500	0.649500	0.753600
H1171	H117	0.891000	0.787400	0.285800
H1181	H118	0.895900	0.149500	0.027000
H1191	H119	0.877100	0.787200	0.983900
H1201	H120	0.746400	0.877500	0.850500
H1211	H121	0.089600	0.696300	0.497900
H1221	H122	0.893300	0.589600	0.591700
H1231	H123	0.302900	0.819000	0.912300
H1241	H124	0.893200	0.016100	0.803300
H1251	H125	0.127800	0.878200	0.523800
H1261	H126	0.501600	0.287400	0.396400
H1271	H127	0.889800	0.871600	0.090000
H1281	H128	0.619300	0.497500	0.689400
H1291	H129	0.070100	0.689400	0.191900
H1301	H130	0.629100	0.006800	0.360300
H1311	H131	0.001600	0.605200	0.214200
H1321	H132	0.645600	0.621800	0.749600
H1331	H133	0.622300	0.353500	0.993200
H1341	H134	0.872200	0.121800	0.476200
H1351	H135	0.890100	0.389300	0.570400
H1361	H136	0.214200	0.109000	0.712600
H1371	H137	0.002500	0.121800	0.691900
H1381	H138	0.570100	0.378200	0.380700
H1391	H139	0.787400	0.785800	0.391000
H1401	H140	0.622500	0.771700	0.630800
H1411	H141	0.285800	0.998400	0.894800
H1421	H142	0.981800	0.781600	0.871600
H1431	H143	0.090000	0.718400	0.700200
H1441	H144	0.728300	0.850800	0.359100
H1451	H145	0.181000	0.587700	0.197100
H1461	H146	0.149500	0.527000	0.395900
H1471	H147	0.976200	0.872200	0.621800
H1481	H148	0.587700	0.697100	0.681000
H1491	H149	0.023800	0.127800	0.378200
H1501	H150	0.019200	0.321100	0.911700
H1511	H151	0.880700	0.570100	0.878200
H1521	H152	0.500800	0.181100	0.610700
H1531	H153	0.104000	0.749600	0.127800
H1541	H154	0.785800	0.891000	0.287400
H1551	H155	0.131100	0.027000	0.877500
H1561	H156	0.680300	0.570400	0.181100
H1571	H157	0.803300	0.287200	0.410100
H1581	H158	0.253600	0.122500	0.149500
H1591	H159	0.506800	0.377700	0.146500
H1601	H160	0.593300	0.609400	0.412300
H1611	H161	0.480800	0.392500	0.301900
H1621	H162	0.631100	0.753600	0.104100
H1631	H163	0.128400	0.410000	0.610200
H1641	H164	0.310600	0.308100	0.429900
H1651	H165	0.018200	0.218400	0.128400
H1661	H166	0.801900	0.480800	0.892500
H1671	H167	0.121800	0.976200	0.372200
H1681	H168	0.271700	0.149200	0.640900
H1691	H169	0.712800	0.089900	0.696700
H1701	H170	0.105200	0.603600	0.891000
H1711	H171	0.473000	0.104100	0.350500
H1721	H172	0.410000	0.110200	0.628400
H1731	H173	0.122300	0.129100	0.268800
H1741	H174	0.787200	0.483900	0.377100
H1751	H175	0.109400	0.016100	0.697100
H1761	H176	0.393200	0.589900	0.877100
H1771	H177	0.109900	0.610700	0.429600
H1781	H178	0.689400	0.691900	0.570100
H1791	H179	0.871600	0.590000	0.389800
H1801	H180	0.287200	0.910100	0.303300
H1811	H181	0.377500	0.228300	0.369200
H1821	H182	0.410400	0.908300	0.606700
H1831	H183	0.621800	0.119300	0.929900
H1841	H184	0.821100	0.301900	0.909400
H1851	H185	0.197100	0.109400	0.516100
H1861	H186	0.200200	0.090000	0.218400
H1871	H187	0.714200	0.001600	0.105200
H1881	H188	0.139700	0.370900	0.493200
H1891	H189	0.877700	0.870900	0.731200
H1901	H190	0.627800	0.104000	0.249600
H1911	H191	0.196300	0.606700	0.698400
H1921	H192	0.731200	0.360300	0.353500
H1931	H193	0.853500	0.731200	0.860300
H1941	H194	0.808100	0.997500	0.378200
H1951	H195	0.189400	0.619300	0.997500
H1961	H196	0.372200	0.896000	0.750400
H1971	H197	0.396400	0.609000	0.394800
H1981	H198	0.523800	0.145600	0.896000
H1991	H199	0.008300	0.630800	0.859100
H2001	H200	0.090600	0.892500	0.411700
H2011	H201	0.392500	0.801900	0.980800
H2021	H202	0.991700	0.369200	0.140900
H2031	H203	0.110700	0.500800	0.681100
H2041	H204	0.212800	0.516100	0.622900
H2051	H205	0.353500	0.493200	0.122300
H2061	H206	0.609900	0.180300	0.499200
H2071	H207	0.999200	0.609900	0.680300
H2081	H208	0.518200	0.389800	0.799800
H2091	H209	0.130800	0.622500	0.271700
H2101	H210	0.998400	0.394800	0.785800
H2111	H211	0.697100	0.181000	0.087700
H2121	H212	0.281600	0.799800	0.410000
H2131	H213	0.321100	0.411700	0.519200
H2141	H214	0.228300	0.869200	0.877500
H2151	H215	0.499200	0.818900	0.389300
H2161	H216	0.854400	0.604000	0.976200
H2171	H217	0.590600	0.178900	0.198100
H2181	H218	0.606800	0.410100	0.122900
H2191	H219	0.604100	0.631100	0.253600
H2201	H220	0.877500	0.508300	0.149200
H2211	H221	0.869200	0.377500	0.728300
H2221	H222	0.718400	0.200200	0.590000
H2231	H223	0.527000	0.895900	0.649500
H2241	H224	0.429600	0.318900	0.819700
H2251	H225	0.196700	0.712800	0.589900
H2261	H226	0.104100	0.850500	0.973000
H2271	H227	0.246400	0.395900	0.868900
H2281	H228	0.319700	0.429600	0.818900
H2291	H229	0.145600	0.396000	0.023800
H2301	H230	0.607500	0.198100	0.019200
H2311	H231	0.481800	0.610200	0.200200
H2321	H232	0.696700	0.106800	0.483900
H2331	H233	0.377500	0.131100	0.527000
H2341	H234	0.498400	0.712600	0.603600
H2351	H235	0.371600	0.981800	0.281600
H2361	H236	0.622500	0.868900	0.473000
H2371	H237	0.091700	0.893300	0.089600
H2381	H238	0.301900	0.409400	0.321100
H2391	H239	0.389300	0.070400	0.390100
H2401	H240	0.700200	0.481800	0.110200
H2411	H241	0.268800	0.639700	0.646500
H2421	H242	0.896400	0.501600	0.787400
H2431	H243	0.640900	0.991700	0.869200
H2441	H244	0.380700	0.502500	0.310600
H2451	H245	0.410100	0.622900	0.106800
H2461	H246	0.107500	0.088300	0.409400
H2471	H247	0.749600	0.627800	0.604000
H2481	H248	0.122500	0.491700	0.850800
H2491	H249	0.889300	0.499200	0.318900
H2501	H250	0.983900	0.802900	0.390600
H2511	H251	0.750400	0.354400	0.878200
H2521	H252	0.301600	0.408300	0.997900
H2531	H253	0.768800	0.122300	0.629100
H2541	H254	0.412300	0.302900	0.319000
H2551	H255	0.106700	0.410400	0.408300
H2561	H256	0.519200	0.607500	0.698100
H2571	H257	0.997900	0.089600	0.196300
H2581	H258	0.016100	0.197100	0.609400
H2591	H259	0.681000	0.483900	0.593300
H2601	H260	0.681100	0.680300	0.070400
H2611	H261	0.140900	0.271700	0.649200
H2621	H262	0.908300	0.106700	0.910400
H2631	H263	0.491700	0.350800	0.622500
H2641	H264	0.218400	0.628400	0.518200
H2651	H265	0.609000	0.894800	0.896400
H2661	H266	0.516100	0.122900	0.712800
H2671	H267	0.771700	0.130800	0.122500
H2681	H268	0.609400	0.912300	0.093300
H2691	H269	0.027000	0.377500	0.631100
H2701	H270	0.231200	0.877700	0.370900
H2711	H271	0.502500	0.810600	0.880700
H2721	H272	0.850800	0.859100	0.228300
H2731	H273	0.649200	0.877500	0.008300
H2741	H274	0.389800	0.299800	0.018200
H2751	H275	0.892500	0.911700	0.590600
H2761	H276	0.180300	0.999200	0.109900
H2771	H277	0.378200	0.750400	0.854400
H2781	H278	0.606700	0.198400	0.696300
H2791	H279	0.980800	0.678900	0.088300
H2801	H280	0.909400	0.107500	0.588300
H2811	H281	0.997500	0.878200	0.308100
H2821	H282	0.819700	0.000800	0.890100
H2831	H283	0.318900	0.319700	0.929600
H2841	H284	0.146500	0.268800	0.139700
H2851	H285	0.191900	0.002500	0.621800
H2861	H286	0.319000	0.516100	0.406700
H2871	H287	0.391000	0.105200	0.103600
H2881	H288	0.377100	0.393200	0.089900
C11	C1	0.545500	0.245500	0.103800
C21	C2	0.641100	0.022000	0.180700
C31	C3	0.341300	0.460400	0.319300
C41	C4	0.461600	0.301700	0.359500
C51	C5	0.060200	0.340800	0.586800
C61	C6	0.094400	0.876200	0.935400
C71	C7	0.600800	0.349100	0.967900
C81	C8	0.058300	0.200000	0.454500
C91	C9	0.876200	0.435400	0.594400
C101	C10	0.457900	0.184600	0.545300
C111	C11	0.877300	0.924800	0.264100
C121	C12	0.587700	0.842400	0.028100
C131	C13	0.558300	0.103800	0.858300
C141	C14	0.051100	0.398900	0.633800
C151	C15	0.330000	0.937100	0.803300
C161	C16	0.218400	0.175900	0.761700
C171	C17	0.091100	0.955300	0.173200
C181	C18	0.387400	0.632200	0.444800
C191	C19	0.453100	0.797400	0.024500
C201	C20	0.543300	0.761700	0.585800
C211	C21	0.887400	0.442600	0.755200
C221	C22	0.780600	0.439800	0.526600
C231	C23	0.405600	0.571900	0.630100
C241	C24	0.866200	0.948900	0.101100
C251	C25	0.251700	0.618800	0.650900
C261	C26	0.641700	0.104200	0.441900
C271	C27	0.539600	0.180700	0.158700
C281	C28	0.133800	0.437100	0.107100
C291	C29	0.945900	0.076300	0.833200
C301	C30	0.546800	0.441500	0.177100
C311	C31	0.400100	0.062900	0.371400
C321	C32	0.798200	0.917400	0.807200
C331	C33	0.399200	0.650900	0.032100
C341	C34	0.261700	0.218400	0.675900
C351	C35	0.598400	0.181000	0.989800
C361	C36	0.575200	0.952500	0.839300
C371	C37	0.457500	0.281600	0.543300
C381	C38	0.300200	0.962500	0.358300
C391	C39	0.954700	0.542100	0.315400
C401	C40	0.815400	0.954700	0.042100
C411	C41	0.866200	0.562900	0.892900
C421	C42	0.369900	0.441800	0.275500
C431	C43	0.297400	0.472700	0.043700
C441	C44	0.369700	0.822900	0.264400
C451	C45	0.559200	0.841000	0.435400
C461	C46	0.049600	0.132300	0.398900
C471	C47	0.158700	0.478000	0.119100
C481	C48	0.062900	0.871400	0.900100
C491	C49	0.652200	0.234900	0.601100
C501	C50	0.243100	0.576300	0.630400
C511	C51	0.616700	0.398700	0.589600
C521	C52	0.580800	0.708900	0.663100
C531	C53	0.973400	0.219400	0.060200
C541	C54	0.650700	0.601100	0.733400
C551	C55	0.301700	0.859500	0.961600
C561	C56	0.633800	0.526700	0.696700
C571	C57	0.435400	0.094400	0.376200
C581	C58	0.424800	0.047500	0.160700
C591	C59	0.532100	0.399200	0.150900
C601	C60	0.473400	0.413200	0.754000
C611	C61	0.939800	0.659200	0.413200
C621	C62	0.944800	0.387400	0.132200
C631	C63	0.892900	0.830000	0.526700
C641	C64	0.761700	0.085800	0.043300
C651	C65	0.928600	0.155700	0.453100
C661	C66	0.246300	0.675300	0.702600
C671	C67	0.245500	0.603800	0.045500
C681	C68	0.417300	0.366200	0.765100
C691	C69	0.801200	0.240500	0.341700
C701	C70	0.101200	0.259500	0.060700
C711	C71	0.412300	0.157600	0.971900
C721	C72	0.026600	0.780600	0.939800
C731	C73	0.603800	0.545500	0.745500
C741	C74	0.366200	0.265100	0.917300
C751	C75	0.910400	0.383300	0.101300
C761	C76	0.417500	0.527300	0.818600
C771	C77	0.160500	0.620400	0.479900
C781	C78	0.628600	0.191500	0.528700
C791	C79	0.291300	0.972700	0.390200
C801	C80	0.265100	0.417300	0.866200
C811	C81	0.738300	0.781600	0.324100
C821	C82	0.456700	0.238300	0.414200
C831	C83	0.367700	0.917300	0.766600
C841	C84	0.557800	0.897900	0.859500
C851	C85	0.867700	0.101100	0.450400
C861	C86	0.809100	0.898700	0.282000
C871	C87	0.396200	0.454500	0.254500
C881	C88	0.104200	0.941900	0.141700
C891	C89	0.423700	0.869600	0.256900
C901	C90	0.119200	0.110200	0.917400
C911	C91	0.657600	0.745300	0.685700
C921	C92	0.101100	0.652200	0.734900
C931	C93	0.582700	0.633800	0.234900
C941	C94	0.900100	0.528700	0.337200
C951	C95	0.619400	0.967100	0.865700
C961	C96	0.244800	0.187400	0.632200
C971	C97	0.666300	0.094400	0.224500
C981	C98	0.632300	0.082700	0.233400
C991	C99	0.582600	0.191200	0.181000
C1001	C100	0.027100	0.410400	0.809100
C1011	C101	0.082700	0.847800	0.948900
C1021	C102	0.441700	0.896200	0.141700
C1031	C103	0.601300	0.910400	0.883300
C1041	C104	0.753700	0.134300	0.101400
C1051	C105	0.950400	0.867700	0.601100
C1061	C106	0.274000	0.459700	0.888500
C1071	C107	0.675900	0.957500	0.914200
C1081	C108	0.322900	0.453200	0.058500
C1091	C109	0.955300	0.673200	0.591100
C1101	C110	0.971300	0.371400	0.308500
C1111	C111	0.410400	0.309100	0.527100
C1121	C112	0.280600	0.754000	0.340800
C1131	C113	0.042100	0.587400	0.726700
C1141	C114	0.340100	0.038400	0.897900
C1151	C115	0.192800	0.610200	0.491000
C1161	C116	0.055200	0.612600	0.867800
C1171	C117	0.337200	0.308500	0.937100
C1181	C118	0.440800	0.159000	0.564600
C1191	C119	0.967100	0.365700	0.119400
C1201	C120	0.452500	0.377300	0.613200
C1211	C121	0.459500	0.658300	0.898800
C1221	C122	0.187400	0.132200	0.744800
C1231	C123	0.735600	0.058500	0.605300
C1241	C124	0.180600	0.040100	0.160500
C1251	C125	0.082600	0.901600	0.391400
C1261	C126	0.917300	0.152200	0.051100
C1271	C127	0.594400	0.659000	0.218200
C1281	C128	0.753700	0.324700	0.297400
C1291	C129	0.113200	0.452500	0.877300
C1301	C130	0.781600	0.824100	0.238300
C1311	C131	0.300000	0.858300	0.754500
C1321	C132	0.057400	0.444800	0.812600
C1331	C133	0.245300	0.087700	0.559600
C1341	C134	0.658300	0.398800	0.959500
C1351	C135	0.869600	0.756900	0.923700
C1361	C136	0.159200	0.719400	0.746000
C1371	C137	0.208900	0.128100	0.545800
C1381	C138	0.858900	0.039600	0.380900
C1391	C139	0.413200	0.254000	0.973400
C1401	C140	0.082100	0.173200	0.217900
C1411	C141	0.611500	0.726000	0.040300
C1421	C142	0.773300	0.957900	0.912600
C1431	C143	0.607000	0.041700	0.219100
C1441	C144	0.746300	0.847700	0.380600
C1451	C145	0.255200	0.887400	0.942600
C1461	C146	0.224500	0.630100	0.058200
C1471	C147	0.234900	0.101100	0.152200
C1481	C148	0.130100	0.405600	0.071900
C1491	C149	0.132200	0.244800	0.687400
C1501	C150	0.952500	0.339300	0.075200
C1511	C151	0.545800	0.917700	0.836900
C1521	C152	0.808500	0.971300	0.871400
C1531	C153	0.472900	0.282000	0.383300
C1541	C154	0.119400	0.253700	0.652300
C1551	C155	0.632200	0.944800	0.887400
C1561	C156	0.913200	0.939800	0.159200
C1571	C157	0.099900	0.471300	0.662800
C1581	C158	0.024500	0.727100	0.071400
C1591	C159	0.891400	0.082600	0.401600
C1601	C160	0.607100	0.133800	0.937100
C1611	C161	0.111500	0.071200	0.885500
C1621	C162	0.038400	0.397900	0.840100
C1631	C163	0.058200	0.928100	0.333700
C1641	C164	0.395800	0.537500	0.837700
C1651	C165	0.175900	0.261700	0.718400
C1661	C166	0.322600	0.387900	0.280900
C1671	C167	0.032900	0.634300	0.880600
C1681	C168	0.545300	0.860700	0.587400
C1691	C169	0.961600	0.602100	0.159900
C1701	C170	0.605300	0.046800	0.369700
C1711	C171	0.094400	0.724500	0.166300
C1721	C172	0.318600	0.417500	0.027300
C1731	C173	0.133800	0.051100	0.898900
C1741	C174	0.177100	0.235600	0.130300
C1751	C175	0.054100	0.923700	0.166800
C1761	C176	0.388500	0.274000	0.959700
C1771	C177	0.972700	0.890200	0.791300
C1781	C178	0.623800	0.218200	0.559200
C1791	C179	0.939300	0.698800	0.540500
C1801	C180	0.082700	0.733400	0.132300
C1811	C181	0.782000	0.809100	0.398700
C1821	C182	0.040500	0.939300	0.198800
C1831	C183	0.858300	0.300200	0.462500
C1841	C184	0.377300	0.113200	0.952500
C1851	C185	0.824100	0.738300	0.281600
C1861	C186	0.819000	0.510200	0.901600
C1871	C187	0.957500	0.414200	0.175900
C1881	C188	0.359500	0.557800	0.397900
C1891	C189	0.934700	0.893000	0.612100
C1901	C190	0.379600	0.020100	0.339500
C1911	C191	0.727100	0.571400	0.524500
C1921	C192	0.297400	0.344300	0.272900
C1931	C193	0.555200	0.687400	0.442600
C1941	C194	0.347700	0.101400	0.967100
C1951	C195	0.158300	0.198800	0.259500
C1961	C196	0.253700	0.152300	0.619400
C1971	C197	0.764100	0.877300	0.424800
C1981	C198	0.281800	0.405600	0.841000
C1991	C199	0.010200	0.691200	0.108600
C2001	C200	0.273300	0.360700	0.815400
C2011	C201	0.159900	0.057800	0.698300
C2021	C202	0.376200	0.781800	0.440800
C2031	C203	0.898900	0.049600	0.632300
C2041	C204	0.360700	0.315400	0.773300
C2051	C205	0.326800	0.908900	0.544700
C2061	C206	0.202600	0.475500	0.046900
C2071	C207	0.130300	0.394700	0.453200
C2081	C208	0.898600	0.532900	0.152300
C2091	C209	0.677100	0.546800	0.941500
C2101	C210	0.246300	0.865700	0.898600
C2111	C211	0.417400	0.119200	0.610200
C2121	C212	0.812600	0.867800	0.255200
C2131	C213	0.412600	0.773300	0.457900
C2141	C214	0.880800	0.889800	0.082600
C2151	C215	0.847700	0.880600	0.246300
C2161	C216	0.538400	0.698300	0.640500
C2171	C217	0.408900	0.582100	0.864200
C2181	C218	0.140500	0.120400	0.959900
C2191	C219	0.528700	0.837200	0.400100
C2201	C220	0.312600	0.057400	0.944800
C2211	C221	0.162800	0.099900	0.971300
C2221	C222	0.391400	0.989800	0.808800
C2231	C223	0.202600	0.246300	0.175300
C2241	C224	0.887900	0.065300	0.607000
C2251	C225	0.371900	0.080800	0.917700
C2261	C226	0.781800	0.940800	0.876200
C2271	C227	0.022000	0.680700	0.141100
C2281	C228	0.887300	0.833200	0.756900
C2291	C229	0.027300	0.824700	0.071000
C2301	C230	0.841300	0.522000	0.880900
C2311	C231	0.339500	0.819400	0.459900
C2321	C232	0.586800	0.746000	0.026600
C2331	C233	0.719400	0.246000	0.659200
C2341	C234	0.152200	0.551100	0.417300
C2351	C235	0.814300	0.342400	0.754700
C2361	C236	0.670000	0.062900	0.196700
C2371	C237	0.128100	0.045800	0.708900
C2381	C238	0.462500	0.662300	0.104200
C2391	C239	0.046800	0.869700	0.105300
C2401	C240	0.341700	0.601200	0.040500
C2411	C241	0.132300	0.898900	0.549600
C2421	C242	0.254700	0.814300	0.842400
C2431	C243	0.045500	0.941700	0.300000
C2441	C244	0.394700	0.953200	0.630300
C2451	C245	0.226700	0.042100	0.087400
C2461	C246	0.956300	0.929000	0.753700
C2471	C247	0.166800	0.743100	0.612700
C2481	C248	0.840100	0.942200	0.301700
C2491	C249	0.754500	0.396200	0.954500
C2501	C250	0.119100	0.141100	0.460400
C2511	C251	0.200000	0.954500	0.558300
C2521	C252	0.601200	0.540500	0.841700
C2531	C253	0.254500	0.300000	0.358300
C2541	C254	0.398900	0.133800	0.551100
C2551	C255	0.185700	0.571200	0.459700
C2561	C256	0.562900	0.392900	0.366200
C2571	C257	0.919200	0.582300	0.128100
C2581	C258	0.282000	0.883300	0.972900
C2591	C259	0.941900	0.641700	0.604200
C2601	C260	0.039600	0.880900	0.358900
C2611	C261	0.660500	0.180600	0.540100
C2621	C262	0.908900	0.044700	0.826800
C2631	C263	0.441800	0.775500	0.869900
C2641	C264	0.718000	0.116700	0.027100
C2651	C265	0.745500	0.700000	0.641700
C2661	C266	0.524500	0.453100	0.297400
C2671	C267	0.641700	0.441700	0.396200
C2681	C268	0.184600	0.045300	0.957900
C2691	C269	0.680600	0.520100	0.140500
C2701	C270	0.082500	0.901100	0.109800
C2711	C271	0.191500	0.028700	0.128600
C2721	C272	0.037500	0.141700	0.199800
C2731	C273	0.141700	0.699800	0.537500
C2741	C274	0.898800	0.740500	0.939300
C2751	C275	0.898900	0.347800	0.265100
C2761	C276	0.040300	0.814300	0.928800
C2771	C277	0.774000	0.885500	0.814300
C2781	C278	0.417300	0.549600	0.650700
C2791	C279	0.630400	0.554100	0.887300
C2801	C280	0.219100	0.677400	0.112100
C2811	C281	0.634300	0.380600	0.532900
C2821	C282	0.937100	0.303300	0.830000
C2831	C283	0.367800	0.055200	0.112600
C2841	C284	0.324700	0.797400	0.253700
C2851	C285	0.912300	0.940400	0.254700
C2861	C286	0.201800	0.082600	0.192800
C2871	C287	0.041700	0.719100	0.107000
C2881	C288	0.571000	0.027300	0.324700
C2891	C289	0.248300	0.899200	0.367100
C2901	C290	0.282100	0.917900	0.326800
C2911	C291	0.454700	0.139300	0.412600
C2921	C292	0.871400	0.400100	0.562900
C2931	C293	0.123800	0.564600	0.405600
C2941	C294	0.139300	0.912600	0.954700
C2951	C295	0.839300	0.386800	0.764100
C2961	C296	0.369600	0.445900	0.112700
C2971	C297	0.365700	0.619400	0.467100
C2981	C298	0.559600	0.971900	0.814300
C2991	C299	0.701800	0.509000	0.119200
C3001	C300	0.208700	0.598900	0.681400
C3011	C301	0.890200	0.291300	0.472700
C3021	C302	0.235900	0.122700	0.575200
C3031	C303	0.059200	0.623800	0.718200
C3041	C304	0.571900	0.130100	0.905600
C3051	C305	0.869900	0.594400	0.928100
C3061	C306	0.347800	0.765100	0.398900
C3071	C307	0.455300	0.864200	0.282100
C3081	C308	0.456300	0.702600	0.027300
C3091	C309	0.199800	0.558100	0.662300
C3101	C310	0.254000	0.473400	0.913200
C3111	C311	0.150700	0.417300	0.049600
C3121	C312	0.807200	0.389800	0.509000
C3131	C313	0.163100	0.580800	0.208900
C3141	C314	0.047500	0.660700	0.924800
C3151	C315	0.390200	0.917500	0.598900
C3161	C316	0.746300	0.043700	0.571000
C3171	C317	0.844300	0.046900	0.571400
C3181	C318	0.880900	0.858900	0.539600
C3191	C319	0.917700	0.336900	0.045800
C3201	C320	0.522000	0.380900	0.341300
C3211	C321	0.101400	0.467100	0.847700
C3221	C322	0.264400	0.941500	0.394700
C3231	C323	0.291100	0.836900	0.919200
C3241	C324	0.960400	0.119100	0.641100
C3251	C325	0.791100	0.871900	0.454200
C3261	C326	0.437100	0.607100	0.633800
C3271	C327	0.764400	0.369700	0.322900
C3281	C328	0.359500	0.319400	0.979900
C3291	C329	0.098900	0.390200	0.417500
C3301	C330	0.972700	0.175300	0.929000
C3311	C331	0.745300	0.185700	0.157600
C3321	C332	0.450400	0.849300	0.082700
C3331	C333	0.337700	0.395800	0.037500
C3341	C334	0.928100	0.833700	0.558200
C3351	C335	0.367100	0.967900	0.618800
C3361	C336	0.833200	0.256900	0.387300
C3371	C337	0.632900	0.032100	0.381200
C3381	C338	0.191200	0.681000	0.082600
C3391	C339	0.386800	0.264100	0.339300
C3401	C340	0.735900	0.160700	0.113200
C3411	C341	0.708900	0.163100	0.080800
C3421	C342	0.917900	0.826800	0.782100
C3431	C343	0.901100	0.609800	0.582500
C3441	C344	0.797400	0.524500	0.953100
C3451	C345	0.582700	0.450400	0.349300
C3461	C346	0.542500	0.718400	0.456700
C3471	C347	0.107100	0.170000	0.473300
C3481	C348	0.541700	0.434700	0.322600
C3491	C349	0.198300	0.159900	0.557800
C3501	C350	0.405600	0.341000	0.781800
C3511	C351	0.898700	0.782000	0.309100
C3521	C352	0.604200	0.462500	0.162300
C3531	C353	0.460400	0.819300	0.841300
C3541	C354	0.702600	0.527300	0.956300
C3551	C355	0.340800	0.086800	0.560200
C3561	C356	0.948900	0.601100	0.366200
C3571	C357	0.264100	0.839300	0.886800
C3581	C358	0.640500	0.442200	0.602100
C3591	C359	0.560700	0.101200	0.759500
C3601	C360	0.509000	0.619200	0.201800
C3611	C361	0.428800	0.040300	0.314300
C3621	C362	0.923700	0.666800	0.554100
C3631	C363	0.619100	0.158700	0.978000
C3641	C364	0.303300	0.330000	0.437100
C3651	C365	0.685700	0.440400	0.528100
C3661	C366	0.558100	0.162300	0.699800
C3671	C367	0.912600	0.454700	0.639300
C3681	C368	0.319400	0.479900	0.859500
C3691	C369	0.520100	0.640500	0.180600
C3701	C370	0.833700	0.058200	0.428100
C3711	C371	0.082300	0.663100	0.954200
C3721	C372	0.822900	0.764400	0.869700
C3731	C373	0.905600	0.275500	0.833700
C3741	C374	0.181400	0.208700	0.098900
C3751	C375	0.659000	0.718200	0.094400
C3761	C376	0.681000	0.582600	0.691200
C3771	C377	0.675300	0.202600	0.746300
C3781	C378	0.967900	0.118800	0.867100
C3791	C379	0.979900	0.160500	0.120400
C3801	C380	0.319300	0.358900	0.478000
C3811	C381	0.527300	0.318600	0.917500
C3821	C382	0.028100	0.685700	0.940400
C3831	C383	0.118800	0.367100	0.467900
C3841	C384	0.128600	0.599900	0.437100
C3851	C385	0.717900	0.082100	0.673200
C3861	C386	0.551100	0.917300	0.652200
C3871	C387	0.307200	0.798200	0.417400
C3881	C388	0.546900	0.202600	0.975500
C3891	C389	0.109800	0.708700	0.527300
C3901	C390	0.635800	0.591100	0.917900
C3911	C391	0.744800	0.112600	0.057400
C3921	C392	0.140500	0.538400	0.198300
C3931	C393	0.991000	0.192800	0.110200
C3941	C394	0.358300	0.558300	0.603800
C3951	C395	0.060700	0.301200	0.459500
C3961	C396	0.526700	0.196700	0.133800
C3971	C397	0.557400	0.744800	0.612600
C3981	C398	0.112600	0.557400	0.244800
C3991	C399	0.766600	0.349300	0.898900
C4001	C400	0.591100	0.417900	0.135800
C4011	C401	0.699800	0.037500	0.641700
C4021	C402	0.101100	0.950400	0.367700
C4031	C403	0.439300	0.898800	0.240500
C4041	C404	0.417900	0.635800	0.091100
C4051	C405	0.467100	0.347700	0.601400
C4061	C406	0.677400	0.612100	0.719100
C4071	C407	0.020100	0.839500	0.879600
C4081	C408	0.475500	0.546900	0.702600
C4091	C409	0.130400	0.243100	0.076300
C4101	C410	0.381200	0.849100	0.248300
C4111	C411	0.881200	0.632900	0.532100
C4121	C412	0.560200	0.973400	0.719400
C4131	C413	0.791300	0.401100	0.318600
C4141	C414	0.662800	0.691500	0.062900
C4151	C415	0.527300	0.456300	0.202600
C4161	C416	0.953100	0.928600	0.655700
C4171	C417	0.440400	0.028100	0.185700
C4181	C418	0.808800	0.319000	0.917400
C4191	C419	0.724500	0.666300	0.594400
C4201	C420	0.065300	0.107000	0.387900
C4211	C421	0.814300	0.428800	0.540300
C4221	C422	0.613200	0.735900	0.660700
C4231	C423	0.837200	0.900100	0.028700
C4241	C424	0.071900	0.166300	0.441800
C4251	C425	0.471900	0.412300	0.657600
C4261	C426	0.240500	0.841700	0.301200
C4271	C427	0.046900	0.071400	0.344300
C4281	C428	0.441900	0.837700	0.300200
C4291	C429	0.830000	0.026700	0.392900
C4301	C430	0.489800	0.598400	0.681000
C4311	C431	0.940400	0.754700	0.412300
C4321	C432	0.358900	0.978000	0.819300
C4331	C433	0.958300	0.280900	0.893000
C4341	C434	0.441500	0.677100	0.046800
C4351	C435	0.663100	0.454200	0.582300
C4361	C436	0.858300	0.254500	0.800000
C4371	C437	0.141100	0.960400	0.619100
C4381	C438	0.540100	0.859500	0.379600
C4391	C439	0.746000	0.526600	0.086800
C4401	C440	0.393000	0.958300	0.780900
C4411	C441	0.867800	0.755200	0.312600
C4421	C442	0.152300	0.119400	0.753700
C4431	C443	0.170000	0.973300	0.607100
C4441	C444	0.238300	0.914200	0.956700
C4451	C445	0.453200	0.558500	0.822900
C4461	C446	0.819300	0.341300	0.960400
C4471	C447	0.978000	0.319300	0.858900
C4481	C448	0.120400	0.459900	0.640500
C4491	C449	0.800200	0.441900	0.337700
C4501	C450	0.673200	0.091100	0.455300
C4511	C451	0.448900	0.082700	0.347800
C4521	C452	0.864200	0.782100	0.955300
C4531	C453	0.940800	0.376200	0.281800
C4541	C454	0.380800	0.298200	0.991000
C4551	C455	0.454500	0.754500	0.896200
C4561	C456	0.610200	0.991000	0.692800
C4571	C457	0.917400	0.098400	0.608600
C4581	C458	0.459900	0.140500	0.620400
C4591	C459	0.780900	0.322600	0.887900
C4601	C460	0.339300	0.575200	0.452500
C4611	C461	0.419200	0.291100	0.336900
C4621	C462	0.733400	0.632300	0.582700
C4631	C463	0.869700	0.605300	0.546800
C4641	C464	0.897900	0.359500	0.057800
C4651	C465	0.772900	0.297400	0.844300
C4661	C466	0.957900	0.412600	0.273300
C4671	C467	0.444800	0.312600	0.557400
C4681	C468	0.614500	0.888500	0.428800
C4691	C469	0.085800	0.543300	0.261700
C4701	C470	0.718200	0.594400	0.159000
C4711	C471	0.157600	0.471900	0.912300
C4721	C472	0.883300	0.472900	0.782000
C4731	C473	0.914200	0.456700	0.738300
C4741	C474	0.217900	0.544700	0.635800
C4751	C475	0.639300	0.684600	0.226700
C4761	C476	0.618800	0.150900	0.751700
C4771	C477	0.387900	0.780900	0.822600
C4781	C478	0.622700	0.886800	0.047500
C4791	C479	0.098400	0.108600	0.417400
C4801	C480	0.397900	0.340100	0.538400
C4811	C481	0.510200	0.401600	0.319000
C4821	C482	0.218200	0.059200	0.123800
C4831	C483	0.219400	0.560200	0.473400
C4841	C484	0.445900	0.612700	0.869600
C4851	C485	0.895800	0.058100	0.858300
C4861	C486	0.366200	0.473300	0.303300
C4871	C487	0.585800	0.324100	0.542500
C4881	C488	0.612700	0.369600	0.945900
C4891	C489	0.755200	0.812600	0.367800
C4901	C490	0.333700	0.905600	0.775500
C4911	C491	0.166300	0.941800	0.571900
C4921	C492	0.309100	0.027100	0.910400
C4931	C493	0.044700	0.326800	0.408900
C4941	C494	0.389800	0.009000	0.307200
C4951	C495	0.847800	0.448900	0.582700
C4961	C496	0.280900	0.393000	0.458300
C4971	C497	0.180700	0.658700	0.039600
C4981	C498	0.888500	0.928800	0.114500
C4991	C499	0.564600	0.905600	0.623800
C5001	C500	0.959700	0.185700	0.071200
C5011	C501	0.428600	0.975500	0.772900
C5021	C502	0.275500	0.333700	0.405600
C5031	C503	0.628100	0.919200	0.082300
C5041	C504	0.349100	0.467900	0.100800
C5051	C505	0.526600	0.586800	0.246000
C5061	C506	0.542100	0.815400	0.454700
C5071	C507	0.190900	0.101300	0.718000
C5081	C508	0.392900	0.866200	0.062900
C5091	C509	0.841000	0.935400	0.059200
C5101	C510	0.797400	0.753700	0.824700
C5111	C511	0.942200	0.801700	0.340100
C5121	C512	0.748300	0.381200	0.349100
C5131	C513	0.860700	0.087400	0.045300
C5141	C514	0.062900	0.696700	0.170000
C5151	C515	0.344300	0.772900	0.797400
C5161	C516	0.859500	0.879600	0.040100
C5171	C517	0.756900	0.423700	0.369600
C5181	C518	0.587400	0.226700	0.542100
C5191	C519	0.571400	0.024500	0.227100
C5201	C520	0.342400	0.254700	0.314300
C5211	C521	0.660700	0.424800	0.547500
C5221	C522	0.380900	0.841300	0.022000
C5231	C523	0.235600	0.630300	0.677100
C5241	C524	0.924800	0.764100	0.377300
C5251	C525	0.155700	0.953100	0.428600
C5261	C526	0.159000	0.064600	0.940800
C5271	C527	0.956700	0.542500	0.218400
C5281	C528	0.565300	0.177400	0.958300
C5291	C529	0.459700	0.388500	0.774000
C5301	C530	0.690900	0.972900	0.089600
C5311	C531	0.428100	0.869900	0.094400
C5321	C532	0.719100	0.607000	0.541700
C5331	C533	0.801700	0.840100	0.442200
C5341	C534	0.929000	0.253700	0.456300
C5351	C535	0.824700	0.571000	0.527300
C5361	C536	0.687400	0.942600	0.055200
C5371	C537	0.865700	0.398600	0.746300
C5381	C538	0.650900	0.532100	0.899200
C5391	C539	0.633800	0.734900	0.082700
C5401	C540	0.479900	0.359500	0.819400
C5411	C541	0.043300	0.457500	0.781600
C5421	C542	0.928800	0.614500	0.388500
C5431	C543	0.899200	0.867100	0.748300
C5441	C544	0.308500	0.437100	0.837200
C5451	C545	0.116700	0.527100	0.218000
C5461	C546	0.308800	0.391400	0.489800
C5471	C547	0.417400	0.808800	0.819000
C5481	C548	0.893000	0.112100	0.434700
C5491	C549	0.726700	0.639300	0.184600
C5501	C550	0.383300	0.601300	0.410400
C5511	C551	0.885500	0.314300	0.274000
C5521	C552	0.122700	0.075200	0.735900
C5531	C553	0.917400	0.307200	0.298200
C5541	C554	0.759500	0.158300	0.698800
C5551	C555	0.429000	0.972700	0.675300
C5561	C556	0.612100	0.219100	0.177400
C5571	C557	0.826800	0.282100	0.417900
C5581	C558	0.253700	0.956300	0.429000
C5591	C559	0.198800	0.759500	0.658300
C5601	C560	0.259500	0.560700	0.601200
C5611	C561	0.071200	0.385500	0.611500
C5621	C562	0.849300	0.582700	0.950400
C5631	C563	0.256900	0.887300	0.333200
C5641	C564	0.822600	0.541700	0.934700
C5651	C565	0.652300	0.898600	0.032900
C5661	C566	0.549600	0.150700	0.917300
C5671	C567	0.962500	0.858300	0.800200
C5681	C568	0.726000	0.540300	0.111500
C5691	C569	0.941700	0.800000	0.545500
C5701	C570	0.527100	0.718000	0.616700
C5711	C571	0.437100	0.337200	0.808500
C5721	C572	0.387300	0.630400	0.054100
C5731	C573	0.177400	0.458300	0.065300
C5741	C574	0.558200	0.224500	0.130100
C5751	C575	0.698800	0.040500	0.439300
C5761	C576	0.076300	0.333200	0.445900
C5771	C577	0.227100	0.702600	0.155700
C5781	C578	0.324100	0.042500	0.085800
C5791	C579	0.867100	0.248300	0.399200
C5801	C580	0.105300	0.735600	0.558500
C5811	C581	0.973300	0.107100	0.670000
C5821	C582	0.896200	0.641700	0.941700
C5831	C583	0.841700	0.801200	0.740500
C5841	C584	0.080800	0.417700	0.871900
C5851	C585	0.959900	0.339500	0.319400
C5861	C586	0.175300	0.429000	0.472700
C5871	C587	0.075200	0.235900	0.622700
C5881	C588	0.101300	0.218000	0.690900
C5891	C589	0.043700	0.071000	0.246300
C5901	C590	0.087700	0.059600	0.745300
C5911	C591	0.889800	0.582600	0.380800
C5921	C592	0.042500	0.585800	0.824100
C5931	C593	0.589600	0.690900	0.472900
C5941	C594	0.971900	0.314300	0.059600
C5951	C595	0.953200	0.130300	0.894700
C5961	C596	0.439800	0.026600	0.280600
C5971	C597	0.582100	0.364200	0.908900
C5981	C598	0.491000	0.380800	0.798200
C5991	C599	0.666800	0.054100	0.423700
C6001	C600	0.935400	0.559200	0.341000
C6011	C601	0.401100	0.818600	0.291300
C6021	C602	0.112700	0.166800	0.243100
C6031	C603	0.434700	0.822600	0.041700
C6041	C604	0.734900	0.582700	0.133800
C6051	C605	0.281600	0.043300	0.957500
C6061	C606	0.301200	0.959500	0.560700
C6071	C607	0.385500	0.111500	0.571200
C6081	C608	0.612600	0.367800	0.555200
C6091	C609	0.659200	0.913200	0.439800
C6101	C610	0.108600	0.917400	0.598400
C6111	C611	0.045300	0.457900	0.684600
C6121	C612	0.630300	0.177100	0.735600
C6131	C613	0.743100	0.112700	0.666800
C6141	C614	0.941500	0.894700	0.764400
C6151	C615	0.718400	0.956700	0.042500
C6161	C616	0.959500	0.060700	0.801200
C6171	C617	0.141700	0.745500	0.200000
C6181	C618	0.112100	0.934700	0.393000
C6191	C619	0.803300	0.366200	0.973300
C6201	C620	0.972900	0.589600	0.190900
C6211	C621	0.558500	0.322900	0.953200
C6221	C622	0.467900	0.600800	0.849100
C6231	C623	0.086800	0.060200	0.840800
C6241	C624	0.454200	0.082300	0.163100
C6251	C625	0.543700	0.297400	0.972700
C6261	C626	0.057800	0.198300	0.659900
C6271	C627	0.398800	0.459500	0.158300
C6281	C628	0.886800	0.547500	0.122700
C6291	C629	0.089600	0.616700	0.898700
C6301	C630	0.218000	0.190900	0.601300
C6311	C631	0.871900	0.954200	0.291100
C6321	C632	0.937100	0.128600	0.099900
C6331	C633	0.602100	0.659900	0.461600
C6341	C634	0.917300	0.266600	0.867700
C6351	C635	0.528100	0.587700	0.342400
C6361	C636	0.028700	0.628600	0.691500
C6371	C637	0.132900	0.751700	0.600800
C6381	C638	0.135800	0.217900	0.044700
C6391	C639	0.685700	0.226000	0.614500
C6401	C640	0.472700	0.543700	0.797400
C6411	C641	0.662300	0.604200	0.962500
C6421	C642	0.472700	0.681400	0.082500
C6431	C643	0.114500	0.685700	0.726000
C6441	C644	0.226000	0.114500	0.185700
C6451	C645	0.684600	0.726700	0.139300
C6461	C646	0.341000	0.281800	0.905600
C6471	C647	0.045800	0.208900	0.628100
C6481	C648	0.336900	0.545800	0.417700
C6491	C649	0.582500	0.472700	0.181400
C6501	C650	0.266600	0.367700	0.417300
C6511	C651	0.417700	0.371900	0.580800
C6521	C652	0.040100	0.660500	0.680600
C6531	C653	0.380600	0.032900	0.134300
C6541	C654	0.107000	0.887900	0.565300
C6551	C655	0.954200	0.791100	0.371900
C6561	C656	0.547500	0.622700	0.386800
C6571	C657	0.185700	0.657600	0.245300
C6581	C658	0.702600	0.655700	0.727100
C6591	C659	0.680700	0.641100	0.522000
C6601	C660	0.358300	0.895800	0.558100
C6611	C661	0.691200	0.608600	0.510200
C6621	C662	0.594400	0.428100	0.369900
C6631	C663	0.880600	0.746300	0.347700
C6641	C664	0.692800	0.201800	0.582600
C6651	C665	0.032100	0.881200	0.132900
C6661	C666	0.619200	0.701800	0.009000
C6671	C667	0.009000	0.807200	0.889800
C6681	C668	0.398700	0.089600	0.116700
C6691	C669	0.181000	0.489800	0.098400
C6701	C670	0.087400	0.545300	0.360700
C6711	C671	0.540500	0.341700	0.101200
C6721	C672	0.349300	0.398900	0.266600
C6731	C673	0.442200	0.102100	0.140500
C6741	C674	0.103800	0.358300	0.058300
C6751	C675	0.601100	0.233400	0.150700
C6761	C676	0.818600	0.791300	0.901100
C6771	C677	0.696700	0.670000	0.562900
C6781	C678	0.554100	0.387300	0.130400
C6791	C679	0.849100	0.748300	0.881200
C6801	C680	0.681400	0.582500	0.972700
C6811	C681	0.082600	0.692800	0.701800
C6821	C682	0.640500	0.680600	0.020100
C6831	C683	0.473300	0.803300	0.866200
C6841	C684	0.458300	0.565300	0.677400
C6851	C685	0.839500	0.379600	0.520100
C6861	C686	0.609800	0.082500	0.401100
C6871	C687	0.058100	0.358300	0.395800
C6881	C688	0.989800	0.308800	0.891400
C6891	C689	0.894700	0.264400	0.441500
C6901	C690	0.537500	0.337700	0.895800
C6911	C691	0.026700	0.892900	0.330000
C6921	C692	0.414200	0.675900	0.457500
C6931	C693	0.782100	0.455300	0.364200
C6941	C694	0.691500	0.562900	0.162800
C6951	C695	0.582300	0.628100	0.419200
C6961	C696	0.571200	0.959700	0.685700
C6971	C697	0.800000	0.045500	0.441700
C6981	C698	0.751700	0.100800	0.632900
C6991	C699	0.836900	0.419200	0.791100
C7001	C700	0.601100	0.866200	0.448900
C7011	C701	0.954500	0.058300	0.700000
C7021	C702	0.102100	0.640500	0.942200
C7031	C703	0.975500	0.272900	0.928600
C7041	C704	0.134300	0.601400	0.253700
C7051	C705	0.315400	0.273300	0.860700
C7061	C706	0.659900	0.961600	0.102100
C7071	C707	0.233400	0.650700	0.101100
C7081	C708	0.544700	0.135800	0.717900
C7091	C709	0.401600	0.819000	0.010200
C7101	C710	0.110200	0.417400	0.619200
C7111	C711	0.576300	0.130400	0.743100
C7121	C712	0.173200	0.717900	0.582100
C7131	C713	0.599900	0.937100	0.628600
C7141	C714	0.319000	0.417400	0.308800
C7151	C715	0.942600	0.555200	0.187400
C7161	C716	0.837700	0.800200	0.941900
C7171	C717	0.071000	0.746300	0.543700
C7181	C718	0.398600	0.246300	0.365700
C7191	C719	0.160700	0.613200	0.235900
C7201	C720	0.708700	0.027300	0.609800
C7211	C721	0.901600	0.891400	0.582600
C7221	C722	0.582600	0.880800	0.389800
C7231	C723	0.879600	0.540100	0.359500
C7241	C724	0.630100	0.558200	0.724500
C7251	C725	0.655700	0.227100	0.202600
C7261	C726	0.840800	0.280600	0.254000
C7271	C727	0.917500	0.098900	0.890200
C7281	C728	0.314300	0.559600	0.471900
C7291	C729	0.162300	0.199800	0.058100
C7301	C730	0.246000	0.159200	0.219400
C7311	C731	0.058500	0.105300	0.235600
C7321	C732	0.754700	0.912300	0.440400
C7331	C733	0.905600	0.123800	0.064600
C7341	C734	0.819400	0.959900	0.839500
C7351	C735	0.059600	0.245300	0.587700
C7361	C736	0.658700	0.539600	0.680700
C7371	C737	0.398900	0.766600	0.849300
C7381	C738	0.598900	0.181400	0.708700
C7391	C739	0.272900	0.428600	0.475500
C7401	C740	0.562900	0.662800	0.191500
C7411	C741	0.765100	0.898900	0.847800
C7421	C742	0.532900	0.652300	0.398600
C7431	C743	0.698300	0.140500	0.038400
C7441	C744	0.859500	0.461600	0.801700
C7451	C745	0.608600	0.010200	0.191200
C7461	C746	0.700000	0.141700	0.245500
C7471	C747	0.478000	0.619100	0.658700
C7481	C748	0.364200	0.408900	0.082100
C7491	C749	0.100800	0.132900	0.251700
C7501	C750	0.775500	0.369900	0.941800
C7511	C751	0.754000	0.840800	0.780600
C7521	C752	0.620400	0.979900	0.660500
C7531	C753	0.071400	0.844300	0.546900
C7541	C754	0.540300	0.611500	0.226000
C7551	C755	0.027300	0.109800	0.208700
C7561	C756	0.064600	0.440800	0.659000
C7571	C757	0.196700	0.633800	0.026700
C7581	C758	0.150900	0.251700	0.118800
C7591	C759	0.471300	0.162800	0.599900
C7601	C760	0.601400	0.753700	0.634300
C7611	C761	0.941800	0.071900	0.666300
C7621	C762	0.740500	0.439300	0.398800
C7631	C763	0.333200	0.945900	0.576300
C7641	C764	0.298200	0.491000	0.880800
C7651	C765	0.371400	0.808500	0.471300
C7661	C766	0.314300	0.774000	0.385500
C7671	C767	0.842400	0.528100	0.087700
C7681	C768	0.442600	0.255200	0.387400
N11	N1	0.003600	0.359800	0.832000
N21	N2	0.847200	0.511400	0.362800
N31	N3	0.136500	0.973400	0.140500
N41	N4	0.333100	0.489900	0.347200
N51	N5	0.164200	0.652800	0.515600
N61	N6	0.832900	0.473400	0.336900
N71	N7	0.357300	0.014100	0.847200
N81	N8	0.859500	0.332900	0.496000
N91	N9	0.847200	0.333100	0.989900
N101	N10	0.503600	0.671600	0.643800
N111	N11	0.484400	0.637200	0.148600
N121	N12	0.011400	0.664200	0.648600
N131	N13	0.335800	0.851400	0.488600
N141	N14	0.152800	0.488600	0.637200
N151	N15	0.652800	0.642700	0.485900
N161	N16	0.473400	0.836900	0.332900
N171	N17	0.504000	0.336900	0.863500
N181	N18	0.851400	0.988600	0.835800
N191	N19	0.973400	0.640500	0.636500
N201	N20	0.152800	0.666900	0.010100
N211	N21	0.835800	0.347200	0.484400
N221	N22	0.843200	0.857300	0.510100
N231	N23	0.143800	0.503600	0.171600
N241	N24	0.148600	0.011400	0.164200
N251	N25	0.156800	0.142700	0.489900
N261	N26	0.988600	0.335800	0.351400
N271	N27	0.496400	0.328400	0.356200
N281	N28	0.640200	0.668000	0.496400
N291	N29	0.332900	0.996000	0.359500
N301	N30	0.996000	0.859500	0.832900
N311	N31	0.163100	0.167100	0.026600
N321	N32	0.167100	0.526600	0.663100
N331	N33	0.010100	0.843200	0.357300
N341	N34	0.004000	0.140500	0.167100
N351	N35	0.996400	0.640200	0.168000
N361	N36	0.972200	0.828400	0.332000
N371	N37	0.515600	0.362800	0.851400
N381	N38	0.168000	0.027800	0.671600
N391	N39	0.857300	0.010100	0.343200
N401	N40	0.488600	0.137200	0.652800
N411	N41	0.671600	0.143800	0.003600
N421	N42	0.833100	0.485900	0.843200
N431	N43	0.643800	0.472200	0.640200
N441	N44	0.140200	0.643800	0.972200
N451	N45	0.336900	0.363500	0.004000
N461	N46	0.359800	0.332000	0.503600
N471	N47	0.166900	0.514100	0.156800
N481	N48	0.637200	0.648600	0.984400
N491	N49	0.667100	0.004000	0.640500
N501	N50	0.137200	0.152800	0.988600
N511	N51	0.026600	0.359500	0.363500
N521	N52	0.489900	0.847200	0.833100
N531	N53	0.014100	0.347200	0.857300
N541	N54	0.332000	0.003600	0.859800
N551	N55	0.664200	0.148600	0.511400
N561	N56	0.510100	0.152800	0.166900
N571	N57	0.511400	0.862800	0.347200
N581	N58	0.363500	0.504000	0.836900
N591	N59	0.171600	0.168000	0.527800
N601	N60	0.356200	0.527800	0.359800
N611	N61	0.828400	0.832000	0.472200
N621	N62	0.989900	0.156800	0.642700
N631	N63	0.668000	0.996400	0.140200
N641	N64	0.859800	0.356200	0.027800
N651	N65	0.140500	0.667100	0.504000
N661	N66	0.863500	0.026600	0.859500
N671	N67	0.642700	0.985900	0.152800
N681	N68	0.856200	0.496400	0.828400
N691	N69	0.663100	0.636500	0.996000
N701	N70	0.832000	0.972200	0.328400
N711	N71	0.027800	0.171600	0.668000
N721	N72	0.485900	0.343200	0.333100
N731	N73	0.328400	0.856200	0.996400
N741	N74	0.514100	0.656800	0.666900
N751	N75	0.640500	0.136500	0.473400
N761	N76	0.343200	0.833100	0.985900
N771	N77	0.984400	0.835800	0.847200
N781	N78	0.527800	0.859800	0.856200
N791	N79	0.472200	0.140200	0.143800
N801	N80	0.015600	0.164200	0.152800
N811	N81	0.652800	0.015600	0.664200
N821	N82	0.359500	0.863500	0.526600
N831	N83	0.836900	0.832900	0.973400
N841	N84	0.496000	0.663100	0.136500
N851	N85	0.526600	0.163100	0.667100
N861	N86	0.362800	0.351400	0.015600
N871	N87	0.656800	0.166900	0.014100
N881	N88	0.985900	0.652800	0.142700
N891	N89	0.351400	0.515600	0.862800
N901	N90	0.142700	0.989900	0.656800
N911	N91	0.347200	0.357300	0.514100
N921	N92	0.648600	0.484400	0.137200
N931	N93	0.666900	0.510100	0.652800
N941	N94	0.347200	0.984400	0.335800
N951	N95	0.862800	0.847200	0.011400
N961	N96	0.636500	0.496000	0.163100
O11	O1	0.806600	0.736900	0.795900
O21	O2	0.187400	0.870900	0.456500
O31	O3	0.911300	0.645300	0.917200
O41	O4	0.168500	0.759700	0.191200
O51	O5	0.280400	0.588500	0.592900
O61	O6	0.000000	0.500000	0.730800
O71	O7	0.734000	0.728100	0.645300
O81	O8	0.355600	0.287000	0.782800
O91	O9	0.934300	0.948600	0.669300
O101	O10	0.928200	0.976400	0.264400
O111	O11	0.330700	0.779300	0.765000
O121	O12	0.936600	0.025200	0.772000
O131	O13	0.481000	0.982400	0.232400
O141	O14	0.691900	0.004400	0.411500
O151	O15	0.687400	0.230900	0.316500
O161	O16	0.519000	0.017600	0.767600
O171	O17	0.666200	0.674800	0.243600
O181	O18	0.235000	0.514300	0.065700
O191	O19	0.791900	0.716400	0.286900
O201	O20	0.708200	0.260900	0.686900
O211	O21	0.428200	0.163800	0.951800
O221	O22	0.243600	0.068800	0.077400
O231	O23	0.325800	0.587600	0.511000
O241	O24	0.571800	0.312100	0.565100
O251	O25	0.930300	0.941000	0.736900
O261	O26	0.833200	0.250400	0.687400
O271	O27	0.129600	0.564500	0.795300
O281	O28	0.482400	0.501400	0.250000
O291	O29	0.786900	0.791900	0.216400
O301	O30	0.941000	0.236900	0.430300
O311	O31	0.248600	0.767600	0.750000
O321	O32	0.427200	0.782800	0.495800
O331	O33	0.994500	0.943300	0.684800
O341	O34	0.282800	0.355600	0.787000
O351	O35	0.834300	0.065100	0.129600
O361	O36	0.985700	0.720700	0.051400
O371	O37	0.582800	0.437000	0.749600
O381	O38	0.629600	0.834300	0.565100
O391	O39	0.183800	0.388900	0.932900
O401	O40	0.995600	0.088500	0.808100
O411	O41	0.505900	0.234000	0.088700
O421	O42	0.129100	0.043500	0.312600
O431	O43	0.000000	0.500000	0.269200
O441	O44	0.581500	0.012300	0.751400
O451	O45	0.183500	0.312600	0.269100
O461	O46	0.588700	0.505900	0.734000
O471	O47	0.295900	0.806600	0.236900
O481	O48	0.704700	0.870400	0.935500
O491	O49	0.232400	0.750000	0.251400
O501	O50	0.256400	0.333800	0.825200
O511	O51	0.730800	0.665700	0.295300
O521	O52	0.769200	0.000000	0.000000
O531	O53	0.504200	0.787000	0.431400
O541	O54	0.995800	0.427200	0.282800
O551	O55	0.555500	0.049900	0.313800
O561	O56	0.795900	0.559000	0.489300
O571	O57	0.408800	0.431500	0.240300
O581	O58	0.434900	0.769200	0.564500
O591	O59	0.051200	0.741500	0.056700
O601	O60	0.025200	0.272000	0.436600
O611	O61	0.708100	0.995000	0.924500
O621	O62	0.995000	0.424500	0.208100
O631	O63	0.978700	0.686900	0.426000
O641	O64	0.435500	0.704700	0.370400
O651	O65	0.144400	0.927200	0.931400
O661	O66	0.629100	0.316500	0.085600
O671	O67	0.230900	0.816500	0.187400
O681	O68	0.005500	0.056700	0.315200
O691	O69	0.043500	0.812600	0.629100
O701	O70	0.712000	0.476400	0.548200
O711	O71	0.336200	0.264400	0.288000
O721	O72	0.552700	0.574000	0.260900
O731	O73	0.830700	0.065700	0.551400
O741	O74	0.279300	0.448600	0.514300
O751	O75	0.217200	0.004200	0.072800
O761	O76	0.588500	0.092900	0.780400
O771	O77	0.428200	0.687900	0.434900
O781	O78	0.548200	0.571800	0.336200
O791	O79	0.064500	0.434900	0.269200
O801	O80	0.732400	0.481000	0.482400
O811	O81	0.023600	0.235600	0.571800
O821	O82	0.787000	0.931400	0.004200
O831	O83	0.950100	0.186200	0.944500
O841	O84	0.685200	0.761800	0.674200
O851	O85	0.309700	0.315200	0.258500
O861	O86	0.044000	0.749100	0.432900
O871	O87	0.248600	0.760900	0.330100
O881	O88	0.088500	0.308100	0.495600
O891	O89	0.294900	0.683800	0.250900
O901	O90	0.582800	0.088700	0.854700
O911	O91	0.434300	0.765000	0.985700
O921	O92	0.505600	0.263900	0.950100
O931	O93	0.517600	0.498600	0.750000
O941	O94	0.008600	0.431200	0.674800
O951	O95	0.569700	0.306600	0.010700
O961	O96	0.166200	0.922600	0.991400
O971	O97	0.687400	0.937000	0.354200
O981	O98	0.500000	0.230800	0.500000
O991	O99	0.263900	0.450100	0.005600
O1001	O100	0.494400	0.736100	0.049900
O1011	O101	0.544000	0.111100	0.294900
O1021	O102	0.228000	0.753200	0.664600
O1031	O103	0.577400	0.243600	0.568800
O1041	O104	0.065100	0.571800	0.812100
O1051	O105	0.751400	0.232400	0.250000
O1061	O106	0.645300	0.417200	0.411300
O1071	O107	0.686900	0.926000	0.478700
O1081	O108	0.870900	0.956500	0.687400
O1091	O109	0.854200	0.687400	0.437000
O1101	O110	0.663800	0.735600	0.712000
O1111	O111	0.506700	0.759700	0.571800
O1121	O112	0.006700	0.434900	0.747000
O1131	O113	0.568500	0.259700	0.091200
O1141	O114	0.069200	0.081500	0.830100
O1151	O115	0.690300	0.684800	0.741500
O1161	O116	0.758300	0.313800	0.263900
O1171	O117	0.917200	0.771900	0.505900
O1181	O118	0.568800	0.825200	0.491400
O1191	O119	0.931400	0.504200	0.287000
O1201	O120	0.494500	0.809700	0.051200
O1211	O121	0.683500	0.414400	0.870900
O1221	O122	0.750000	0.482400	0.001400
O1231	O123	0.308800	0.831500	0.740300
O1241	O124	0.998600	0.981000	0.248600
O1251	O125	0.076600	0.087600	0.761800
O1261	O126	0.814800	0.489000	0.076600
O1271	O127	0.728100	0.145300	0.234000
O1281	O128	0.835400	0.772000	0.746800
O1291	O129	0.543500	0.914400	0.230900
O1301	O130	0.251400	0.581500	0.512300
O1311	O131	0.713000	0.717200	0.144400
O1321	O132	0.267600	0.519000	0.517600
O1331	O133	0.388900	0.432900	0.683800
O1341	O134	0.474800	0.911400	0.246800
O1351	O135	0.551200	0.494500	0.309700
O1361	O136	0.059000	0.763100	0.569700
O1371	O137	0.556700	0.051200	0.241500
O1381	O138	0.074000	0.021300	0.813100
O1391	O139	0.772000	0.246800	0.335400
O1401	O140	0.075500	0.570500	0.283600
O1411	O141	0.668500	0.477300	0.408800
O1421	O142	0.551400	0.985700	0.220700
O1431	O143	0.982400	0.732400	0.981000
O1441	O144	0.505500	0.190300	0.948800
O1451	O145	0.947300	0.208200	0.021300
O1461	O146	0.559000	0.989300	0.295900
O1471	O147	0.588600	0.563400	0.835400
O1481	O148	0.163800	0.451800	0.928200
O1491	O149	0.411500	0.907100	0.219600
O1501	O150	0.908800	0.668500	0.977300
O1511	O151	0.417200	0.911300	0.145300
O1521	O152	0.549900	0.494400	0.236100
O1531	O153	0.574000	0.760900	0.052700
O1541	O154	0.166800	0.749600	0.312600
O1551	O155	0.763900	0.758300	0.813800
O1561	O156	0.005000	0.575500	0.791900
O1571	O157	0.261800	0.076600	0.587600
O1581	O158	0.187400	0.833200	0.750400
O1591	O159	0.068500	0.977300	0.308800
O1601	O160	0.092900	0.280400	0.088500
O1611	O161	0.312500	0.592900	0.004400
O1621	O162	0.426000	0.239100	0.947300
O1631	O163	0.735000	0.669300	0.720700
O1641	O164	0.669300	0.220700	0.235000
O1651	O165	0.236900	0.930300	0.441000
O1661	O166	0.312100	0.065100	0.071800
O1671	O167	0.833800	0.077400	0.008600
O1681	O168	0.522700	0.091200	0.831500
O1691	O169	0.758500	0.309700	0.815200
O1701	O170	0.063000	0.145800	0.812600
O1711	O171	0.691200	0.168500	0.259700
O1721	O172	0.976400	0.764400	0.428200
O1731	O173	0.219600	0.812500	0.308100
O1741	O174	0.931500	0.022700	0.691200
O1751	O175	0.253200	0.525200	0.588600
O1761	O176	0.354700	0.582800	0.588700
O1771	O177	0.186200	0.444500	0.450100
O1781	O178	0.510700	0.569700	0.806600
O1791	O179	0.204100	0.441000	0.510700
O1801	O180	0.750900	0.294900	0.183800
O1811	O181	0.525200	0.088600	0.753200
O1821	O182	0.918500	0.669900	0.430800
O1831	O183	0.258500	0.443300	0.448800
O1841	O184	0.216400	0.924500	0.929500
O1851	O185	0.174800	0.008600	0.931200
O1861	O186	0.928200	0.493300	0.740300
O1871	O187	0.687500	0.407100	0.995600
O1881	O188	0.316500	0.585600	0.129100
O1891	O189	0.741700	0.005600	0.555500
O1901	O190	0.813800	0.555500	0.549900
O1911	O191	0.645800	0.082800	0.833200
O1921	O192	0.930800	0.918500	0.169900
O1931	O193	0.204700	0.269200	0.834300
O1941	O194	0.258300	0.994400	0.444500
O1951	O195	0.743600	0.666200	0.174800
O1961	O196	0.816200	0.611100	0.067100
O1971	O197	0.489000	0.576600	0.314800
O1981	O198	0.335400	0.588600	0.063400
O1991	O199	0.907100	0.719600	0.911500
O2001	O200	0.934900	0.370400	0.665700
O2011	O201	0.923400	0.912400	0.238200
O2021	O202	0.070500	0.495000	0.786900
O2031	O203	0.249100	0.705100	0.816200
O2041	O204	0.424500	0.708100	0.495000
O2051	O205	0.570500	0.783600	0.575500
O2061	O206	0.644400	0.713000	0.217200
O2071	O207	0.511000	0.423400	0.685200
O2081	O208	0.719600	0.411500	0.407100
O2091	O209	0.948600	0.169300	0.434300
O2101	O210	0.239100	0.169900	0.251400
O2111	O211	0.825800	0.314800	0.738200
O2121	O212	0.088700	0.354700	0.082800
O2131	O213	0.563400	0.335400	0.088600
O2141	O214	0.782800	0.995800	0.927200
O2151	O215	0.051400	0.830700	0.565700
O2161	O216	0.501400	0.750000	0.982400
O2171	O217	0.091200	0.331500	0.022700
O2181	O218	0.434900	0.247000	0.506700
O2191	O219	0.220700	0.735000	0.169300
O2201	O220	0.932900	0.044000	0.249100
O2211	O221	0.747000	0.812100	0.240300
O2221	O222	0.504400	0.312500	0.092900
O2231	O223	0.313100	0.074000	0.521300
O2241	O224	0.568600	0.855600	0.572800
O2251	O225	0.485700	0.434300	0.265000
O2261	O226	0.325200	0.256400	0.833800
O2271	O227	0.169900	0.751400	0.739100
O2281	O228	0.989000	0.674200	0.912400
O2291	O229	0.145300	0.734000	0.228100
O2301	O230	0.431400	0.144400	0.427200
O2311	O231	0.315200	0.758500	0.809700
O2321	O232	0.430300	0.693400	0.989300
O2331	O233	0.239100	0.447300	0.926000
O2341	O234	0.055500	0.741700	0.505600
O2351	O235	0.704100	0.193400	0.763100
O2361	O236	0.780400	0.187500	0.691900
O2371	O237	0.571800	0.836200	0.048200
O2381	O238	0.407100	0.495600	0.187500
O2391	O239	0.331500	0.522700	0.591200
O2401	O240	0.429500	0.216400	0.424500
O2411	O241	0.487700	0.569200	0.239100
O2421	O242	0.751400	0.239100	0.669900
O2431	O243	0.664600	0.411400	0.936600
O2441	O244	0.286900	0.070500	0.995000
O2451	O245	0.736100	0.549900	0.994400
O2461	O246	0.259700	0.253000	0.687900
O2471	O247	0.585600	0.629100	0.816500
O2481	O248	0.477300	0.908800	0.168500
O2491	O249	0.312600	0.063000	0.645800
O2501	O250	0.576600	0.814800	0.989000
O2511	O251	0.591200	0.568500	0.759700
O2521	O252	0.495000	0.286900	0.570500
O2531	O253	0.854700	0.266000	0.771900
O2541	O254	0.812600	0.129100	0.543500
O2551	O255	0.052700	0.791800	0.978700
O2561	O256	0.917200	0.666800	0.854200
O2571	O257	0.812100	0.740300	0.247000
O2581	O258	0.291900	0.005000	0.075500
O2591	O259	0.766000	0.411300	0.994100
O2601	O260	0.683800	0.750900	0.794900
O2611	O261	0.735600	0.212000	0.163800
O2621	O262	0.728000	0.063400	0.474800
O2631	O263	0.948800	0.258500	0.943300
O2641	O264	0.422600	0.756400	0.431200
O2651	O265	0.269200	0.269200	0.769200
O2661	O266	0.334300	0.204700	0.769200
O2671	O267	0.521300	0.947300	0.708200
O2681	O268	0.021300	0.313100	0.574000
O2691	O269	0.736900	0.295900	0.306600
O2701	O270	0.250000	0.248600	0.267600
O2711	O271	0.259700	0.591200	0.068500
O2721	O272	0.012300	0.251400	0.081500
O2731	O273	0.306600	0.510700	0.069700
O2741	O274	0.977300	0.808800	0.568500
O2751	O275	0.935500	0.565100	0.730800
O2761	O276	0.991400	0.568800	0.325200
O2771	O277	0.498600	0.250000	0.017600
O2781	O278	0.764400	0.928200	0.476400
O2791	O279	0.448600	0.014300	0.779300
O2801	O280	0.236100	0.241700	0.186200
O2811	O281	0.014300	0.279300	0.948600
O2821	O282	0.441000	0.010700	0.704100
O2831	O283	0.165700	0.934900	0.870400
O2841	O284	0.072800	0.568600	0.355600
O2851	O285	0.291800	0.739100	0.313100
O2861	O286	0.082800	0.333200	0.145800
O2871	O287	0.430800	0.260900	0.012300
O2881	O288	0.288000	0.523600	0.451800
O2891	O289	0.174200	0.685200	0.261800
O2901	O290	0.716400	0.786900	0.291900
O2911	O291	0.190300	0.448800	0.005500
O2921	O292	0.071800	0.506700	0.259700
O2931	O293	0.065100	0.629600	0.334300
O2941	O294	0.314800	0.238200	0.325800
O2951	O295	0.989300	0.795900	0.059000
O2961	O296	0.250000	0.517600	0.998600
O2971	O297	0.087600	0.261800	0.576600
O2981	O298	0.808100	0.219600	0.312500
O2991	O299	0.316200	0.249100	0.205100
O3001	O300	0.674800	0.743600	0.166200
O3011	O301	0.187500	0.191900	0.280400
O3021	O302	0.451800	0.428200	0.663800
O3031	O303	0.213000	0.068600	0.995800
O3041	O304	0.666800	0.354200	0.417200
O3051	O305	0.771900	0.005900	0.417200
O3061	O306	0.082800	0.228100	0.494100
O3071	O307	0.816500	0.687400	0.730900
O3081	O308	0.238200	0.825800	0.814800
O3091	O309	0.756400	0.931200	0.922600
O3101	O310	0.447300	0.426000	0.739100
O3111	O311	0.049900	0.813800	0.055500
O3121	O312	0.934900	0.428200	0.187900
O3131	O313	0.812500	0.808100	0.719600
O3141	O314	0.713100	0.929500	0.005000
O3151	O315	0.330100	0.069200	0.581500
O3161	O316	0.417200	0.563000	0.250400
O3171	O317	0.956500	0.187400	0.370900
O3181	O318	0.569200	0.739100	0.987700
O3191	O319	0.684800	0.241500	0.190300
O3201	O320	0.794900	0.544000	0.611100
O3211	O321	0.456500	0.085600	0.769100
O3221	O322	0.068800	0.577400	0.743600
O3231	O323	0.333200	0.645800	0.582800
O3241	O324	0.937000	0.854200	0.187400
O3251	O325	0.010700	0.204100	0.941000
O3261	O326	0.514300	0.565700	0.735000
O3271	O327	0.250900	0.067100	0.456000
O3281	O328	0.831500	0.240300	0.808800
O3291	O329	0.705100	0.316200	0.749100
O3301	O330	0.437000	0.249600	0.082800
O3311	O331	0.912400	0.738200	0.423400
O3321	O332	0.001400	0.019000	0.751400
O3331	O333	0.271900	0.854700	0.766000
O3341	O334	0.213100	0.208100	0.783600
O3351	O335	0.765000	0.485700	0.934300
O3361	O336	0.769100	0.183500	0.812600
O3371	O337	0.750000	0.751400	0.732400
O3381	O338	0.069700	0.059000	0.263100
O3391	O339	0.295300	0.129600	0.064500
O3401	O340	0.686200	0.236100	0.741700
O3411	O341	0.436600	0.664600	0.911400
O3421	O342	0.247000	0.006700	0.934900
O3431	O343	0.004200	0.572800	0.717200
O3441	O344	0.739100	0.813100	0.791800
O3451	O345	0.443300	0.948800	0.758500
O3461	O346	0.720700	0.551400	0.485700
O3471	O347	0.815200	0.005500	0.556700
O3481	O348	0.048200	0.712000	0.976400
O3491	O349	0.587600	0.011000	0.825800
O3501	O350	0.993300	0.565100	0.253000
O3511	O351	0.450100	0.505600	0.763900
O3521	O352	0.249600	0.582800	0.937000
O3531	O353	0.564500	0.295300	0.629600
O3541	O354	0.749600	0.812600	0.666800
O3551	O355	0.088600	0.253200	0.025200
O3561	O356	0.065700	0.051400	0.330700
O3571	O357	0.495600	0.687500	0.907100
O3581	O358	0.924500	0.429500	0.716400
O3591	O359	0.432900	0.183800	0.888900
O3601	O360	0.748600	0.418500	0.487700
O3611	O361	0.240300	0.308800	0.331500
O3621	O362	0.565700	0.235000	0.014300
O3631	O363	0.565100	0.753000	0.493300
O3641	O364	0.145800	0.312600	0.563000
O3651	O365	0.981000	0.748600	0.498600
O3661	O366	0.512300	0.430800	0.760900
O3671	O367	0.411300	0.494100	0.266000
O3681	O368	0.505000	0.713100	0.429500
O3691	O369	0.067100	0.956000	0.750900
O3701	O370	0.888900	0.205100	0.956000
O3711	O371	0.085600	0.269100	0.956500
O3721	O372	0.825200	0.991400	0.068800
O3731	O373	0.370400	0.165700	0.434900
O3741	O374	0.068600	0.495800	0.713000
O3751	O375	0.230800	0.000000	0.000000
O3761	O376	0.022700	0.191200	0.431500
O3771	O377	0.508600	0.833800	0.577400
O3781	O378	0.572800	0.217200	0.504200
O3791	O379	0.354200	0.917200	0.166800
O3801	O380	0.495800	0.213000	0.568600
O3811	O381	0.926000	0.978700	0.186900
O3821	O382	0.056700	0.815200	0.505500
O3831	O383	0.370900	0.683500	0.914400
O3841	O384	0.987700	0.748600	0.918500
O3851	O385	0.184800	0.994500	0.443300
O3861	O386	0.283600	0.213100	0.708100
O3871	O387	0.753200	0.164600	0.728000
O3881	O388	0.855600	0.072800	0.068600
O3891	O389	0.870400	0.435500	0.204700
O3901	O390	0.717200	0.644400	0.213000
O3911	O391	0.730900	0.543500	0.414400
O3921	O392	0.269100	0.456500	0.585600
O3931	O393	0.448800	0.505500	0.690300
O3941	O394	0.500000	0.769200	0.500000
O3951	O395	0.739100	0.487700	0.069200
O3961	O396	0.071800	0.023600	0.735600
O3971	O397	0.164600	0.228000	0.253200
O3981	O398	0.565100	0.230800	0.435500
O3991	O399	0.740300	0.408800	0.931500
O4001	O400	0.956000	0.250900	0.567100
O4011	O401	0.791800	0.478700	0.552700
O4021	O402	0.523600	0.951800	0.788000
O4031	O403	0.795300	0.730800	0.165700
O4041	O404	0.693400	0.489300	0.930300
O4051	O405	0.250400	0.187400	0.333200
O4061	O406	0.491400	0.166200	0.422600
O4071	O407	0.575500	0.291900	0.505000
O4081	O408	0.931200	0.422600	0.256400
O4091	O409	0.234000	0.588700	0.005900
O4101	O410	0.763100	0.069700	0.559000
O4111	O411	0.412400	0.989000	0.174200
O4121	O412	0.994400	0.944500	0.758300
O4131	O413	0.836200	0.548200	0.071800
O4141	O414	0.205100	0.456000	0.388900
O4151	O415	0.017600	0.267600	0.019000
O4161	O416	0.456000	0.888900	0.705100
O4171	O417	0.761800	0.174200	0.185200
O4181	O418	0.005600	0.055500	0.241700
O4191	O419	0.312600	0.769100	0.683500
O4201	O420	0.611100	0.567100	0.316200
O4211	O421	0.411400	0.436600	0.164600
O4221	O422	0.111100	0.794900	0.044000
O4231	O423	0.749100	0.932900	0.544000
O4241	O424	0.313800	0.763900	0.258300
O4251	O425	0.750400	0.417200	0.063000
O4261	O426	0.760900	0.552700	0.074000
O4271	O427	0.333800	0.325200	0.756400
O4281	O428	0.431200	0.174800	0.508600
O4291	O429	0.951800	0.288000	0.023600
O4301	O430	0.208100	0.283600	0.713100
O4311	O431	0.191200	0.931500	0.522700
O4321	O432	0.228100	0.994100	0.582800
O4331	O433	0.266000	0.271900	0.354700
O4341	O434	0.308100	0.995600	0.588500
O4351	O435	0.769200	0.064500	0.934900
O4361	O436	0.193400	0.263100	0.204100
O4371	O437	0.830100	0.248600	0.260900
O4381	O438	0.783600	0.075500	0.070500
O4391	O439	0.943300	0.184800	0.494500
O4401	O440	0.489300	0.430300	0.193400
O4411	O441	0.687900	0.934900	0.928200
O4421	O442	0.260900	0.186900	0.208200
O4431	O443	0.423400	0.185200	0.011000
O4441	O444	0.476400	0.048200	0.212000
O4451	O445	0.191900	0.780400	0.687500
O4461	O446	0.264400	0.788000	0.836200
O4471	O447	0.260900	0.512300	0.930800
O4481	O448	0.263100	0.704100	0.693400
O4491	O449	0.185200	0.511000	0.923400
O4501	O450	0.665700	0.795300	0.230800
O4511	O451	0.019000	0.251400	0.501400
O4521	O452	0.246800	0.835400	0.272000
O4531	O453	0.208200	0.521300	0.447300
O4541	O454	0.251400	0.001400	0.519000
O4551	O455	0.808800	0.068500	0.477300
O4561	O456	0.241700	0.686200	0.736100
O4571	O457	0.235600	0.071800	0.523600
O4581	O458	0.077400	0.508600	0.333800
O4591	O459	0.741500	0.556700	0.551200
O4601	O460	0.669900	0.930800	0.418500
O4611	O461	0.005900	0.917200	0.271900
O4621	O462	0.187900	0.259700	0.753000
O4631	O463	0.809700	0.551200	0.994500
O4641	O464	0.746800	0.474800	0.411400
O4651	O465	0.674200	0.412400	0.489000
O4661	O466	0.444500	0.950100	0.686200
O4671	O467	0.241500	0.690300	0.184800
O4681	O468	0.994100	0.082800	0.728100
O4691	O469	0.730800	0.730800	0.230800
O4701	O470	0.592900	0.504400	0.812500
O4711	O471	0.478700	0.052700	0.291800
O4721	O472	0.929500	0.505000	0.213100
O4731	O473	0.004400	0.911500	0.191900
O4741	O474	0.265000	0.330700	0.279300
O4751	O475	0.212000	0.663800	0.235600
O4761	O476	0.567100	0.816200	0.111100
O4771	O477	0.240300	0.928200	0.993300
O4781	O478	0.011000	0.325800	0.087600
O4791	O479	0.563000	0.750400	0.917200
O4801	O480	0.418500	0.987700	0.248600
O4811	O481	0.063400	0.974800	0.228000
O4821	O482	0.927200	0.431400	0.644400
O4831	O483	0.759700	0.071800	0.006700
O4841	O484	0.911500	0.691900	0.504400
O4851	O485	0.813100	0.291800	0.239100
O4861	O486	0.914400	0.730900	0.043500
O4871	O487	0.272000	0.936600	0.525200
O4881	O488	0.812600	0.166800	0.249600
O4891	O489	0.779300	0.265000	0.830700
O4901	O490	0.494100	0.766000	0.911300
O4911	O491	0.169300	0.934300	0.448600
O4921	O492	0.759700	0.691200	0.668500
O4931	O493	0.911400	0.746800	0.974800
O4941	O494	0.760900	0.830100	0.748600
O4951	O495	0.740300	0.747000	0.312100
O4961	O496	0.431500	0.740300	0.908800
O4971	O497	0.944500	0.258300	0.494400
O4981	O498	0.738200	0.923400	0.412400
O4991	O499	0.493300	0.240300	0.428200
O5001	O500	0.230800	0.935500	0.065100
O5011	O501	0.253000	0.187900	0.759700
O5021	O502	0.081500	0.330100	0.569200
O5031	O503	0.974800	0.728000	0.563400
O5041	O504	0.748600	0.998600	0.481000
O5051	O505	0.767600	0.250000	0.748600
O5061	O506	0.186900	0.708200	0.760900
O5071	O507	0.287000	0.282800	0.855600
O5081	O508	0.414400	0.370900	0.183500
O5091	O509	0.753000	0.993300	0.065100
O5101	O510	0.788000	0.336200	0.764400
O5111	O511	0.922600	0.491400	0.666200
O5121	O512	0.269200	0.334300	0.704700
