data_TOXNIF_freeONLY_PM
_symmetry_space_group_name_H-M	'P1'
_cell_length_a	11.778500
_cell_length_b	12.004900
_cell_length_c	12.004900
_cell_angle_alpha	76.074500
_cell_angle_beta	60.621900
_cell_angle_gamma	60.621900
_symmetry_Int_Tables_number 1

loop_
_symmetry_equiv_pos_as_xyz
'x,y,z'

loop_
_atom_site_label
_atom_site_type_symbol
_atom_site_fract_x
_atom_site_fract_y
_atom_site_fract_z
Al11	Al1	0.194400	0.000000	0.611200
Al21	Al2	0.444400	0.111200	0.500000
Al31	Al3	0.805600	0.000000	0.388800
Al41	Al4	0.055600	0.888800	0.500000
H11	H1	0.141720	0.500000	0.500000
H21	H2	0.346640	0.950050	0.196230
H31	H3	0.358280	0.500000	0.500000
H41	H4	0.891720	0.000000	0.000000
H51	H5	0.441820	0.933180	0.433180
H61	H6	0.703310	0.950050	0.803770
H71	H7	0.903360	0.303770	0.549950
H81	H8	0.757080	0.696230	0.450050
H91	H9	0.108280	0.000000	0.000000
H101	H10	0.457130	0.049950	0.196230
H111	H11	0.625000	0.933180	0.566820
H121	H12	0.125000	0.066820	0.433180
H131	H13	0.792870	0.303770	0.450050
H141	H14	0.808180	0.066820	0.566820
H151	H15	0.492920	0.049950	0.803770
H161	H16	0.546690	0.696230	0.549950
C11	C1	0.101230	0.957170	0.231430
C21	C2	0.434460	0.000000	0.000000
C31	C3	0.582660	0.268570	0.457170
C41	C4	0.576940	0.388010	0.471490
C51	C5	0.289830	0.042830	0.768570
C61	C6	0.673060	0.028510	0.111990
C71	C7	0.916530	0.388010	0.528510
C81	C8	0.684460	0.500000	0.500000
C91	C9	0.960170	0.731430	0.457170
C101	C10	0.695040	0.971490	0.888010
C111	C11	0.035050	0.388010	0.528510
C121	C12	0.148770	0.268570	0.542830
C131	C13	0.554960	0.611990	0.528510
C141	C14	0.565540	0.000000	0.000000
C151	C15	0.813560	0.971490	0.888010
C161	C16	0.436440	0.611990	0.528510
C171	C17	0.333470	0.971490	0.111990
C181	C18	0.052570	0.500000	0.500000
C191	C19	0.447430	0.500000	0.500000
C201	C20	0.941600	0.957170	0.768570
C211	C21	0.951570	0.611990	0.471490
C221	C22	0.833050	0.611990	0.471490
C231	C23	0.695460	0.388010	0.471490
C241	C24	0.214950	0.971490	0.111990
C251	C25	0.308400	0.731430	0.542830
C261	C26	0.554540	0.028510	0.111990
C271	C27	0.298430	0.028510	0.888010
C281	C28	0.667340	0.042830	0.231430
C291	C29	0.197430	0.000000	0.000000
C301	C30	0.416950	0.028510	0.888010
C311	C31	0.815540	0.500000	0.500000
C321	C32	0.802570	0.000000	0.000000
O11	O1	0.225320	0.993750	0.755690
O21	O2	0.625000	0.994020	0.505980
O31	O3	0.231010	0.744310	0.493750
O41	O4	0.024680	0.744310	0.506250
O51	O5	0.469070	0.255690	0.506250
O61	O6	0.974760	0.006250	0.244310
O71	O7	0.548860	0.104190	0.320990
O81	O8	0.346950	0.104190	0.679010
O91	O9	0.119850	0.179010	0.604190
O101	O10	0.275960	0.820990	0.604190
O111	O11	0.130150	0.895810	0.320990
O121	O12	0.380980	0.994020	0.494020
O131	O13	0.780930	0.993750	0.244310
O141	O14	0.701140	0.179010	0.395810
O151	O15	0.018990	0.006250	0.755690
O161	O16	0.869020	0.005980	0.505980
O171	O17	0.974040	0.895810	0.679010
O181	O18	0.125000	0.005980	0.494020
O191	O19	0.903050	0.820990	0.395810
O201	O20	0.275240	0.255690	0.493750
