data_TOZHAR_freeONLY_PM
_symmetry_space_group_name_H-M	'P1'
_cell_length_a	8.222100
_cell_length_b	9.441000
_cell_length_c	11.932000
_cell_angle_alpha	90.000000
_cell_angle_beta	90.000000
_cell_angle_gamma	90.000000
_symmetry_Int_Tables_number 1

loop_
_symmetry_equiv_pos_as_xyz
'x,y,z'

loop_
_atom_site_label
_atom_site_type_symbol
_atom_site_fract_x
_atom_site_fract_y
_atom_site_fract_z
Ag11	Ag1	0.294600	0.110600	0.181800
Ag21	Ag2	0.794600	0.889400	0.818200
Ag31	Ag3	0.294600	0.389400	0.681800
Ag41	Ag4	0.794600	0.610600	0.318200
H11	H1	0.267200	0.209300	0.444700
H21	H2	0.561500	0.321000	0.206900
H31	H3	0.540900	0.535100	0.516900
H41	H4	0.767200	0.790700	0.555300
H51	H5	0.061500	0.679000	0.793100
H61	H6	0.040900	0.464900	0.483100
H71	H7	0.267200	0.290700	0.944700
H81	H8	0.561500	0.179000	0.706900
H91	H9	0.540900	0.964900	0.016900
H101	H10	0.767200	0.709300	0.055300
H111	H11	0.061500	0.821000	0.293100
H121	H12	0.040900	0.035100	0.983100
C11	C1	0.526100	0.350500	0.287100
C21	C2	0.350300	0.271000	0.418000
C31	C3	0.523900	0.445300	0.461000
C41	C4	0.026100	0.649500	0.712900
C51	C5	0.850300	0.729000	0.582000
C61	C6	0.023900	0.554700	0.539000
C71	C7	0.526100	0.149500	0.787100
C81	C8	0.350300	0.229000	0.918000
C91	C9	0.523900	0.054700	0.961000
C101	C10	0.026100	0.850500	0.212900
C111	C11	0.850300	0.771000	0.082000
C121	C12	0.023900	0.945300	0.039000
N11	N1	0.404300	0.263200	0.313100
N21	N2	0.406900	0.139800	0.994800
N31	N3	0.090600	0.945500	0.140300
N41	N4	0.904300	0.736800	0.686900
N51	N5	0.906900	0.860200	0.005200
N61	N6	0.590600	0.054500	0.859700
N71	N7	0.404300	0.236800	0.813100
N81	N8	0.406900	0.360200	0.494800
N91	N9	0.090600	0.554500	0.640300
N101	N10	0.904300	0.763200	0.186900
N111	N11	0.906900	0.639800	0.505200
N121	N12	0.590600	0.445500	0.359700
