data_TUBLIN_freeONLY_PM
_symmetry_space_group_name_H-M	'P1'
_cell_length_a	10.128000
_cell_length_b	12.648000
_cell_length_c	15.467000
_cell_angle_alpha	106.916000
_cell_angle_beta	104.122000
_cell_angle_gamma	104.247000
_symmetry_Int_Tables_number 1

loop_
_symmetry_equiv_pos_as_xyz
'x,y,z'

loop_
_atom_site_label
_atom_site_type_symbol
_atom_site_fract_x
_atom_site_fract_y
_atom_site_fract_z
Cd11	Cd1	0.531070	0.033520	0.146540
Cd21	Cd2	0.468930	0.966480	0.853460
H11	H1	0.787200	0.875700	0.877700
H21	H2	0.478200	0.271300	0.240900
H31	H3	0.822200	0.559900	0.322700
H41	H4	0.607900	0.293500	0.814700
H51	H5	0.833300	0.239300	0.202500
H61	H6	0.542300	0.236300	0.702000
H71	H7	0.166700	0.760700	0.797500
H81	H8	0.134900	0.183100	0.750500
H91	H9	0.014800	0.388800	0.745700
H101	H10	0.985200	0.611200	0.254300
H111	H11	0.629900	0.576900	0.984100
H121	H12	0.995800	0.100300	0.148500
H131	H13	0.865100	0.816900	0.249500
H141	H14	0.331200	0.285400	0.715900
H151	H15	0.352200	0.183400	0.750200
H161	H16	0.837100	0.598800	0.944100
H171	H17	0.216200	0.901000	0.130000
H181	H18	0.668800	0.714600	0.284100
H191	H19	0.068900	0.839500	0.205900
H201	H20	0.724200	0.415900	0.070700
H211	H21	0.162900	0.401200	0.055900
H221	H22	0.924800	0.673000	0.728600
H231	H23	0.299100	0.015200	0.401800
H241	H24	0.297900	0.993500	0.545100
H251	H25	0.702100	0.006500	0.454900
H261	H26	0.058800	0.562900	0.959200
H271	H27	0.275800	0.584100	0.929300
H281	H28	0.788400	0.310100	0.751200
H291	H29	0.299300	0.403400	0.263300
H301	H30	0.521800	0.728700	0.759100
H311	H31	0.783800	0.099000	0.870000
H321	H32	0.075200	0.327000	0.271400
H331	H33	0.370100	0.423100	0.015900
H341	H34	0.177800	0.440100	0.677300
H351	H35	0.931100	0.160500	0.794100
H361	H36	0.700900	0.984800	0.598200
H371	H37	0.004200	0.899700	0.851500
H381	H38	0.459500	0.765900	0.005500
H391	H39	0.416900	0.525700	0.693500
H401	H40	0.540500	0.234100	0.994500
H411	H41	0.392100	0.706500	0.185300
H421	H42	0.700700	0.596600	0.736700
H431	H43	0.212800	0.124300	0.122300
H441	H44	0.211600	0.689900	0.248800
H451	H45	0.457700	0.763700	0.298000
H461	H46	0.647800	0.816600	0.249800
H471	H47	0.583100	0.474300	0.306500
H481	H48	0.941200	0.437100	0.040800
C11	C1	0.379500	0.995900	0.527200
C21	C2	0.859000	0.771800	0.188300
C31	C3	0.272200	0.309800	0.877300
C41	C4	0.501600	0.014000	0.413900
C51	C5	0.281200	0.372000	0.970300
C61	C6	0.157000	0.357400	0.994400
C71	C7	0.221900	0.521500	0.704900
C81	C8	0.023400	0.278700	0.928600
C91	C9	0.620500	0.004100	0.472800
C101	C10	0.184200	0.616000	0.252600
C111	C11	0.048600	0.569100	0.256800
C121	C12	0.994700	0.539100	0.735500
C131	C13	0.721200	0.445200	0.746100
C141	C14	0.392900	0.266700	0.763600
C151	C15	0.141000	0.228200	0.811700
C161	C16	0.976600	0.721300	0.071400
C171	C17	0.854900	0.408900	0.262900
C181	C18	0.458600	0.705100	0.241600
C191	C19	0.002800	0.940900	0.911600
C201	C20	0.772900	0.163900	0.911100
C211	C21	0.426100	0.694500	0.753400
C221	C22	0.217200	0.712400	0.775700
C231	C23	0.236300	0.445800	0.261600
C241	C24	0.898000	0.599700	0.733400
C251	C25	0.619700	0.990700	0.558800
C261	C26	0.573900	0.305500	0.246600
C271	C27	0.380300	0.009300	0.441200
C281	C28	0.727800	0.690200	0.122700
C291	C29	0.498400	0.986000	0.586100
C301	C30	0.872800	0.925600	0.927500
C311	C31	0.262200	0.647500	0.970200
C321	C32	0.131400	0.016600	0.983600
C331	C33	0.737800	0.352500	0.029800
C341	C34	0.636400	0.427800	0.286300
C351	C35	0.500300	0.026100	0.319500
C361	C36	0.499700	0.973900	0.680500
C371	C37	0.815800	0.384000	0.747400
C381	C38	0.718800	0.628000	0.029700
C391	C39	0.541400	0.294900	0.758400
C401	C40	0.778100	0.478500	0.295100
C411	C41	0.227100	0.836100	0.088900
C421	C42	0.980800	0.785200	0.161400
C431	C43	0.278800	0.554800	0.253900
C441	C44	0.843000	0.642600	0.005600
C451	C45	0.111500	0.730700	0.047300
C461	C46	0.127200	0.074400	0.072500
C471	C47	0.145100	0.591100	0.737100
C481	C48	0.132600	0.635700	0.987800
C491	C49	0.102000	0.400300	0.266600
C501	C50	0.951400	0.430900	0.743200
C511	C51	0.725900	0.971000	0.033000
C521	C52	0.867400	0.364300	0.012200
C531	C53	0.019200	0.214800	0.838600
C541	C54	0.868600	0.983400	0.016400
C551	C55	0.997200	0.059100	0.088400
C561	C56	0.371300	0.757200	0.015700
C571	C57	0.763700	0.554200	0.738400
C581	C58	0.628700	0.242800	0.984300
C591	C59	0.607100	0.733300	0.236400
C601	C60	0.363600	0.572200	0.713700
C611	C61	0.782800	0.287600	0.224300
C621	C62	0.274100	0.029000	0.967000
C631	C63	0.888500	0.269300	0.952700
C641	C64	0.005300	0.460900	0.264500
N11	N1	0.353800	0.763900	0.783300
N21	N2	0.646100	0.150500	0.926900
N31	N3	0.353900	0.849500	0.073100
N41	N4	0.646200	0.236100	0.216700
O11	O1	0.732400	0.020800	0.118300
O21	O2	0.593700	0.941200	0.724500
O31	O3	0.406300	0.058800	0.275500
O41	O4	0.412900	0.591400	0.246500
O51	O5	0.399400	0.334300	0.858500
O61	O6	0.600600	0.665700	0.141500
O71	O7	0.390000	0.082700	0.037200
O81	O8	0.399900	0.995400	0.711400
O91	O9	0.267600	0.979200	0.881700
O101	O10	0.610000	0.917300	0.962800
O111	O11	0.587100	0.408600	0.753500
O121	O12	0.600100	0.004600	0.288600
