data_TUDQOZ_freeONLY_PM
_symmetry_space_group_name_H-M	'P1'
_cell_length_a	13.595300
_cell_length_b	17.013100
_cell_length_c	51.887000
_cell_angle_alpha	90.000000
_cell_angle_beta	90.000000
_cell_angle_gamma	90.000000
_symmetry_Int_Tables_number 1

loop_
_symmetry_equiv_pos_as_xyz
'x,y,z'

loop_
_atom_site_label
_atom_site_type_symbol
_atom_site_fract_x
_atom_site_fract_y
_atom_site_fract_z
Cd11	Cd1	0.678630	0.480280	0.171450
Cd21	Cd2	0.904760	0.975970	0.166770
Cd31	Cd3	0.639760	0.997150	0.991280
Cd41	Cd4	0.321370	0.019720	0.671450
Cd51	Cd5	0.095240	0.524030	0.666770
Cd61	Cd6	0.360240	0.502850	0.491280
Cd71	Cd7	0.178630	0.519720	0.328550
Cd81	Cd8	0.404760	0.024030	0.333230
Cd91	Cd9	0.139760	0.002850	0.508720
Cd101	Cd10	0.821370	0.980280	0.828550
Cd111	Cd11	0.595240	0.475970	0.833230
Cd121	Cd12	0.860240	0.497150	0.008720
Cd131	Cd13	0.321370	0.519720	0.828550
Cd141	Cd14	0.095240	0.024030	0.833230
Cd151	Cd15	0.360240	0.002850	0.008720
Cd161	Cd16	0.678630	0.980280	0.328550
Cd171	Cd17	0.904760	0.475970	0.333230
Cd181	Cd18	0.639760	0.497150	0.508720
Cd191	Cd19	0.821370	0.480280	0.671450
Cd201	Cd20	0.595240	0.975970	0.666770
Cd211	Cd21	0.860240	0.997150	0.491280
Cd221	Cd22	0.178630	0.019720	0.171450
Cd231	Cd23	0.404760	0.524030	0.166770
Cd241	Cd24	0.139760	0.502850	0.991280
H11	H1	0.913900	0.400900	0.143200
H21	H2	0.666400	0.064400	0.130100
H31	H3	0.875700	0.106200	0.214000
H41	H4	0.885600	0.240800	0.221200
H51	H5	0.905000	0.325600	0.186300
H61	H6	0.909300	0.523900	0.123300
H71	H7	0.896300	0.639700	0.098800
H81	H8	0.890300	0.631400	0.054400
H91	H9	0.918700	0.401900	0.056700
H101	H10	0.925700	0.159900	0.068300
H111	H11	0.922700	0.022900	0.066400
H121	H12	0.915400	0.950800	0.104700
H131	H13	0.641900	0.332500	0.212500
H141	H14	0.638500	0.195500	0.213900
H151	H15	0.655800	0.123800	0.176000
H161	H16	0.664800	0.949700	0.106100
H171	H17	0.657300	0.842600	0.078000
H181	H18	0.656000	0.863900	0.033800
H191	H19	0.673500	0.092600	0.044000
H201	H20	0.685000	0.332900	0.065800
H211	H21	0.676700	0.469200	0.069500
H221	H22	0.668700	0.525900	0.110300
H231	H23	0.519600	0.929800	0.153600
H241	H24	0.393100	0.837500	0.156400
H251	H25	0.431100	0.704200	0.158100
H261	H26	0.721500	0.756600	0.159600
H271	H27	0.372700	0.535000	0.254900
H281	H28	0.560200	0.510100	0.314400
H291	H29	0.691900	0.502500	0.285800
H301	H30	0.663800	0.505500	0.241400
H311	H31	0.017900	0.944300	0.982100
H321	H32	0.145900	0.854300	0.984900
H331	H33	0.113300	0.720400	0.989900
H341	H34	0.821500	0.767200	0.988900
H351	H35	0.086100	0.099100	0.643200
H361	H36	0.333600	0.435600	0.630100
H371	H37	0.124300	0.393800	0.714000
H381	H38	0.114400	0.259200	0.721200
H391	H39	0.095000	0.174400	0.686300
H401	H40	0.090700	0.976100	0.623300
H411	H41	0.103700	0.860300	0.598800
H421	H42	0.109700	0.868600	0.554400
H431	H43	0.081300	0.098100	0.556700
H441	H44	0.074300	0.340100	0.568300
H451	H45	0.077300	0.477100	0.566400
H461	H46	0.084600	0.549200	0.604700
H471	H47	0.358100	0.167500	0.712500
H481	H48	0.361500	0.304500	0.713900
H491	H49	0.344200	0.376200	0.676000
H501	H50	0.335200	0.550300	0.606100
H511	H51	0.342700	0.657400	0.578000
H521	H52	0.344000	0.636100	0.533800
H531	H53	0.326500	0.407400	0.544000
H541	H54	0.315000	0.167100	0.565800
H551	H55	0.323300	0.030800	0.569500
H561	H56	0.331300	0.974100	0.610300
H571	H57	0.480400	0.570200	0.653600
H581	H58	0.606900	0.662500	0.656400
H591	H59	0.568900	0.795800	0.658100
H601	H60	0.278500	0.743400	0.659600
H611	H61	0.627300	0.965000	0.754900
H621	H62	0.439800	0.989900	0.814400
H631	H63	0.308100	0.997500	0.785800
H641	H64	0.336200	0.994500	0.741400
H651	H65	0.982100	0.555700	0.482100
H661	H66	0.854100	0.645700	0.484900
H671	H67	0.886700	0.779600	0.489900
H681	H68	0.178500	0.732800	0.488900
H691	H69	0.413900	0.599100	0.356800
H701	H70	0.166400	0.935600	0.369900
H711	H71	0.375700	0.893800	0.286000
H721	H72	0.385600	0.759200	0.278800
H731	H73	0.405000	0.674400	0.313700
H741	H74	0.409300	0.476100	0.376700
H751	H75	0.396300	0.360300	0.401200
H761	H76	0.390300	0.368600	0.445600
H771	H77	0.418700	0.598100	0.443300
H781	H78	0.425700	0.840100	0.431700
H791	H79	0.422700	0.977100	0.433600
H801	H80	0.415400	0.049200	0.395300
H811	H81	0.141900	0.667500	0.287500
H821	H82	0.138500	0.804500	0.286100
H831	H83	0.155800	0.876200	0.324000
H841	H84	0.164800	0.050300	0.393900
H851	H85	0.157300	0.157400	0.422000
H861	H86	0.156000	0.136100	0.466200
H871	H87	0.173500	0.907400	0.456000
H881	H88	0.185000	0.667100	0.434200
H891	H89	0.176700	0.530800	0.430500
H901	H90	0.168700	0.474100	0.389700
H911	H91	0.019600	0.070200	0.346400
H921	H92	0.893100	0.162500	0.343600
H931	H93	0.931100	0.295800	0.341900
H941	H94	0.221500	0.243400	0.340400
H951	H95	0.872700	0.465000	0.245100
H961	H96	0.060200	0.489900	0.185600
H971	H97	0.191900	0.497500	0.214200
H981	H98	0.163800	0.494500	0.258600
H991	H99	0.517900	0.055700	0.517900
H1001	H100	0.645900	0.145700	0.515100
H1011	H101	0.613300	0.279600	0.510100
H1021	H102	0.321500	0.232800	0.511100
H1031	H103	0.586100	0.900900	0.856800
H1041	H104	0.833600	0.564400	0.869900
H1051	H105	0.624300	0.606200	0.786000
H1061	H106	0.614400	0.740800	0.778800
H1071	H107	0.595000	0.825600	0.813700
H1081	H108	0.590700	0.023900	0.876700
H1091	H109	0.603700	0.139700	0.901200
H1101	H110	0.609700	0.131400	0.945600
H1111	H111	0.581300	0.901900	0.943300
H1121	H112	0.574300	0.659900	0.931700
H1131	H113	0.577300	0.522900	0.933600
H1141	H114	0.584600	0.450800	0.895300
H1151	H115	0.858100	0.832500	0.787500
H1161	H116	0.861500	0.695500	0.786100
H1171	H117	0.844200	0.623800	0.824000
H1181	H118	0.835200	0.449700	0.893900
H1191	H119	0.842700	0.342600	0.922000
H1201	H120	0.844000	0.363900	0.966200
H1211	H121	0.826500	0.592600	0.956000
H1221	H122	0.815000	0.832900	0.934200
H1231	H123	0.823300	0.969200	0.930500
H1241	H124	0.831300	0.025900	0.889700
H1251	H125	0.980400	0.429800	0.846400
H1261	H126	0.106900	0.337500	0.843600
H1271	H127	0.068900	0.204200	0.841900
H1281	H128	0.778500	0.256600	0.840400
H1291	H129	0.127300	0.035000	0.745100
H1301	H130	0.939800	0.010100	0.685600
H1311	H131	0.808100	0.002500	0.714200
H1321	H132	0.836200	0.005500	0.758600
H1331	H133	0.482100	0.444300	0.017900
H1341	H134	0.354100	0.354300	0.015100
H1351	H135	0.386700	0.220400	0.010100
H1361	H136	0.678500	0.267200	0.011100
H1371	H137	0.086100	0.599100	0.856800
H1381	H138	0.333600	0.935600	0.869900
H1391	H139	0.124300	0.893800	0.786000
H1401	H140	0.114400	0.759200	0.778800
H1411	H141	0.095000	0.674400	0.813700
H1421	H142	0.090700	0.476100	0.876700
H1431	H143	0.103700	0.360300	0.901200
H1441	H144	0.109700	0.368600	0.945600
H1451	H145	0.081300	0.598100	0.943300
H1461	H146	0.074300	0.840100	0.931700
H1471	H147	0.077300	0.977100	0.933600
H1481	H148	0.084600	0.049200	0.895300
H1491	H149	0.358100	0.667500	0.787500
H1501	H150	0.361500	0.804500	0.786100
H1511	H151	0.344200	0.876200	0.824000
H1521	H152	0.335200	0.050300	0.893900
H1531	H153	0.342700	0.157400	0.922000
H1541	H154	0.344000	0.136100	0.966200
H1551	H155	0.326500	0.907400	0.956000
H1561	H156	0.315000	0.667100	0.934200
H1571	H157	0.323300	0.530800	0.930500
H1581	H158	0.331300	0.474100	0.889700
H1591	H159	0.480400	0.070200	0.846400
H1601	H160	0.606900	0.162500	0.843600
H1611	H161	0.568900	0.295800	0.841900
H1621	H162	0.278500	0.243400	0.840400
H1631	H163	0.627300	0.465000	0.745100
H1641	H164	0.439800	0.489900	0.685600
H1651	H165	0.308100	0.497500	0.714200
H1661	H166	0.336200	0.494500	0.758600
H1671	H167	0.982100	0.055700	0.017900
H1681	H168	0.854100	0.145700	0.015100
H1691	H169	0.886700	0.279600	0.010100
H1701	H170	0.178500	0.232800	0.011100
H1711	H171	0.913900	0.900900	0.356800
H1721	H172	0.666400	0.564400	0.369900
H1731	H173	0.875700	0.606200	0.286000
H1741	H174	0.885600	0.740800	0.278800
H1751	H175	0.905000	0.825600	0.313700
H1761	H176	0.909300	0.023900	0.376700
H1771	H177	0.896300	0.139700	0.401200
H1781	H178	0.890300	0.131400	0.445600
H1791	H179	0.918700	0.901900	0.443300
H1801	H180	0.925700	0.659900	0.431700
H1811	H181	0.922700	0.522900	0.433600
H1821	H182	0.915400	0.450800	0.395300
H1831	H183	0.641900	0.832500	0.287500
H1841	H184	0.638500	0.695500	0.286100
H1851	H185	0.655800	0.623800	0.324000
H1861	H186	0.664800	0.449700	0.393900
H1871	H187	0.657300	0.342600	0.422000
H1881	H188	0.656000	0.363900	0.466200
H1891	H189	0.673500	0.592600	0.456000
H1901	H190	0.685000	0.832900	0.434200
H1911	H191	0.676700	0.969200	0.430500
H1921	H192	0.668700	0.025900	0.389700
H1931	H193	0.519600	0.429800	0.346400
H1941	H194	0.393100	0.337500	0.343600
H1951	H195	0.431100	0.204200	0.341900
H1961	H196	0.721500	0.256600	0.340400
H1971	H197	0.372700	0.035000	0.245100
H1981	H198	0.560200	0.010100	0.185600
H1991	H199	0.691900	0.002500	0.214200
H2001	H200	0.663800	0.005500	0.258600
H2011	H201	0.017900	0.444300	0.517900
H2021	H202	0.145900	0.354300	0.515100
H2031	H203	0.113300	0.220400	0.510100
H2041	H204	0.821500	0.267200	0.511100
H2051	H205	0.586100	0.400900	0.643200
H2061	H206	0.833600	0.064400	0.630100
H2071	H207	0.624300	0.106200	0.714000
H2081	H208	0.614400	0.240800	0.721200
H2091	H209	0.595000	0.325600	0.686300
H2101	H210	0.590700	0.523900	0.623300
H2111	H211	0.603700	0.639700	0.598800
H2121	H212	0.609700	0.631400	0.554400
H2131	H213	0.581300	0.401900	0.556700
H2141	H214	0.574300	0.159900	0.568300
H2151	H215	0.577300	0.022900	0.566400
H2161	H216	0.584600	0.950800	0.604700
H2171	H217	0.858100	0.332500	0.712500
H2181	H218	0.861500	0.195500	0.713900
H2191	H219	0.844200	0.123800	0.676000
H2201	H220	0.835200	0.949700	0.606100
H2211	H221	0.842700	0.842600	0.578000
H2221	H222	0.844000	0.863900	0.533800
H2231	H223	0.826500	0.092600	0.544000
H2241	H224	0.815000	0.332900	0.565800
H2251	H225	0.823300	0.469200	0.569500
H2261	H226	0.831300	0.525900	0.610300
H2271	H227	0.980400	0.929800	0.653600
H2281	H228	0.106900	0.837500	0.656400
H2291	H229	0.068900	0.704200	0.658100
H2301	H230	0.778500	0.756600	0.659600
H2311	H231	0.127300	0.535000	0.754900
H2321	H232	0.939800	0.510100	0.814400
H2331	H233	0.808100	0.502500	0.785800
H2341	H234	0.836200	0.505500	0.741400
H2351	H235	0.482100	0.944300	0.482100
H2361	H236	0.354100	0.854300	0.484900
H2371	H237	0.386700	0.720400	0.489900
H2381	H238	0.678500	0.767200	0.488900
H2391	H239	0.413900	0.099100	0.143200
H2401	H240	0.166400	0.435600	0.130100
H2411	H241	0.375700	0.393800	0.214000
H2421	H242	0.385600	0.259200	0.221200
H2431	H243	0.405000	0.174400	0.186300
H2441	H244	0.409300	0.976100	0.123300
H2451	H245	0.396300	0.860300	0.098800
H2461	H246	0.390300	0.868600	0.054400
H2471	H247	0.418700	0.098100	0.056700
H2481	H248	0.425700	0.340100	0.068300
H2491	H249	0.422700	0.477100	0.066400
H2501	H250	0.415400	0.549200	0.104700
H2511	H251	0.141900	0.167500	0.212500
H2521	H252	0.138500	0.304500	0.213900
H2531	H253	0.155800	0.376200	0.176000
H2541	H254	0.164800	0.550300	0.106100
H2551	H255	0.157300	0.657400	0.078000
H2561	H256	0.156000	0.636100	0.033800
H2571	H257	0.173500	0.407400	0.044000
H2581	H258	0.185000	0.167100	0.065800
H2591	H259	0.176700	0.030800	0.069500
H2601	H260	0.168700	0.974100	0.110300
H2611	H261	0.019600	0.570200	0.153600
H2621	H262	0.893100	0.662500	0.156400
H2631	H263	0.931100	0.795800	0.158100
H2641	H264	0.221500	0.743400	0.159600
H2651	H265	0.872700	0.965000	0.254900
H2661	H266	0.060200	0.989900	0.314400
H2671	H267	0.191900	0.997500	0.285800
H2681	H268	0.163800	0.994500	0.241400
H2691	H269	0.517900	0.555700	0.982100
H2701	H270	0.645900	0.645700	0.984900
H2711	H271	0.613300	0.779600	0.989900
H2721	H272	0.321500	0.732800	0.988900
C11	C1	0.884700	0.140300	0.199730
C21	C2	0.889700	0.220700	0.204180
C31	C3	0.900700	0.270500	0.183610
C41	C4	0.905700	0.239400	0.158530
C51	C5	0.914400	0.283900	0.135310
C61	C6	0.919700	0.374000	0.105150
C71	C7	0.915700	0.450400	0.092310
C81	C8	0.908400	0.521800	0.105030
C91	C9	0.899900	0.589900	0.090610
C101	C10	0.896600	0.584400	0.064160
C111	C11	0.912700	0.450700	0.065460
C121	C12	0.919100	0.250300	0.111220
C131	C13	0.917000	0.167000	0.107790
C141	C14	0.921700	0.129700	0.083680
C151	C15	0.920300	0.049200	0.082510
C161	C16	0.915300	0.006600	0.105460
C171	C17	0.910300	0.120200	0.130070
C181	C18	0.903300	0.156800	0.155700
C191	C19	0.647500	0.303800	0.196870
C201	C20	0.645900	0.221800	0.197850
C211	C21	0.655000	0.179700	0.175550
C221	C22	0.663400	0.219700	0.151980
C231	C23	0.669600	0.183600	0.127130
C241	C24	0.673000	0.105400	0.093500
C251	C25	0.670000	0.033400	0.077790
C261	C26	0.664900	0.957700	0.088020
C271	C27	0.660000	0.894700	0.071400
C281	C28	0.659000	0.907700	0.045150
C291	C29	0.669000	0.041300	0.051180
C301	C30	0.674500	0.226200	0.104380
C311	C31	0.675100	0.310200	0.104620
C321	C32	0.679500	0.356800	0.082270
C331	C33	0.675900	0.436900	0.084470
C341	C34	0.671200	0.470300	0.108940
C351	C35	0.670100	0.348600	0.128690
C361	C36	0.663500	0.302700	0.152410
C371	C37	0.632300	0.851800	0.156320
C381	C38	0.534900	0.875500	0.155240
C391	C39	0.459800	0.820900	0.156490
C401	C40	0.482600	0.742000	0.157880
C411	C41	0.580200	0.716900	0.158890
C421	C42	0.654800	0.772800	0.158440
C431	C43	0.714300	0.910300	0.155880
C441	C44	0.606600	0.631900	0.159770
C451	C45	0.515500	0.521900	0.244110
C461	C46	0.437600	0.527300	0.261220
C471	C47	0.453700	0.521500	0.287440
C481	C48	0.548400	0.512800	0.296380
C491	C49	0.626800	0.507900	0.279420
C501	C50	0.610500	0.510900	0.253150
C511	C51	0.495000	0.524200	0.215750
C521	C52	0.366400	0.523000	0.305600
C531	C53	0.906500	0.864900	0.985070
C541	C54	0.003700	0.890000	0.984020
C551	C55	0.079700	0.836500	0.985800
C561	C56	0.060500	0.756900	0.988920
C571	C57	0.964100	0.730600	0.990630
C581	C58	0.887700	0.785000	0.988310
C591	C59	0.820800	0.921600	0.983630
C601	C60	0.940300	0.646600	0.996070
C611	C61	0.115300	0.359700	0.699730
C621	C62	0.110300	0.279300	0.704180
C631	C63	0.099300	0.229500	0.683610
C641	C64	0.094300	0.260600	0.658530
C651	C65	0.085600	0.216100	0.635310
C661	C66	0.080300	0.126000	0.605150
C671	C67	0.084300	0.049600	0.592310
C681	C68	0.091600	0.978200	0.605030
C691	C69	0.100100	0.910100	0.590610
C701	C70	0.103400	0.915600	0.564160
C711	C71	0.087300	0.049300	0.565460
C721	C72	0.080900	0.249700	0.611220
C731	C73	0.083000	0.333000	0.607790
C741	C74	0.078300	0.370300	0.583680
C751	C75	0.079700	0.450800	0.582510
C761	C76	0.084700	0.493400	0.605460
C771	C77	0.089700	0.379800	0.630070
C781	C78	0.096700	0.343200	0.655700
C791	C79	0.352500	0.196200	0.696870
C801	C80	0.354100	0.278200	0.697850
C811	C81	0.345000	0.320300	0.675550
C821	C82	0.336600	0.280300	0.651980
C831	C83	0.330400	0.316400	0.627130
C841	C84	0.327000	0.394600	0.593500
C851	C85	0.330000	0.466600	0.577790
C861	C86	0.335100	0.542300	0.588020
C871	C87	0.340000	0.605300	0.571400
C881	C88	0.341000	0.592300	0.545150
C891	C89	0.331000	0.458700	0.551180
C901	C90	0.325500	0.273800	0.604380
C911	C91	0.324900	0.189800	0.604620
C921	C92	0.320500	0.143200	0.582270
C931	C93	0.324100	0.063100	0.584470
C941	C94	0.328800	0.029700	0.608940
C951	C95	0.329900	0.151400	0.628690
C961	C96	0.336500	0.197300	0.652410
C971	C97	0.367700	0.648200	0.656320
C981	C98	0.465100	0.624500	0.655240
C991	C99	0.540200	0.679100	0.656490
C1001	C100	0.517400	0.758000	0.657880
C1011	C101	0.419800	0.783100	0.658890
C1021	C102	0.345200	0.727200	0.658440
C1031	C103	0.285700	0.589700	0.655880
C1041	C104	0.393400	0.868100	0.659770
C1051	C105	0.484500	0.978100	0.744110
C1061	C106	0.562400	0.972700	0.761220
C1071	C107	0.546300	0.978500	0.787440
C1081	C108	0.451600	0.987200	0.796380
C1091	C109	0.373200	0.992100	0.779420
C1101	C110	0.389500	0.989100	0.753150
C1111	C111	0.505000	0.975800	0.715750
C1121	C112	0.633600	0.977000	0.805600
C1131	C113	0.093500	0.635100	0.485070
C1141	C114	0.996300	0.610000	0.484020
C1151	C115	0.920300	0.663500	0.485800
C1161	C116	0.939500	0.743100	0.488920
C1171	C117	0.035900	0.769400	0.490630
C1181	C118	0.112300	0.715000	0.488310
C1191	C119	0.179200	0.578400	0.483630
C1201	C120	0.059700	0.853400	0.496070
C1211	C121	0.384700	0.859700	0.300270
C1221	C122	0.389700	0.779300	0.295820
C1231	C123	0.400700	0.729500	0.316390
C1241	C124	0.405700	0.760600	0.341470
C1251	C125	0.414400	0.716100	0.364690
C1261	C126	0.419700	0.626000	0.394850
C1271	C127	0.415700	0.549600	0.407690
C1281	C128	0.408400	0.478200	0.394970
C1291	C129	0.399900	0.410100	0.409390
C1301	C130	0.396600	0.415600	0.435840
C1311	C131	0.412700	0.549300	0.434540
C1321	C132	0.419100	0.749700	0.388780
C1331	C133	0.417000	0.833000	0.392210
C1341	C134	0.421700	0.870300	0.416320
C1351	C135	0.420300	0.950800	0.417490
C1361	C136	0.415300	0.993400	0.394540
C1371	C137	0.410300	0.879800	0.369930
C1381	C138	0.403300	0.843200	0.344300
C1391	C139	0.147500	0.696200	0.303130
C1401	C140	0.145900	0.778200	0.302150
C1411	C141	0.155000	0.820300	0.324450
C1421	C142	0.163400	0.780300	0.348020
C1431	C143	0.169600	0.816400	0.372870
C1441	C144	0.173000	0.894600	0.406500
C1451	C145	0.170000	0.966600	0.422210
C1461	C146	0.164900	0.042300	0.411980
C1471	C147	0.160000	0.105300	0.428600
C1481	C148	0.159000	0.092300	0.454850
C1491	C149	0.169000	0.958700	0.448820
C1501	C150	0.174500	0.773800	0.395620
C1511	C151	0.175100	0.689800	0.395380
C1521	C152	0.179500	0.643200	0.417730
C1531	C153	0.175900	0.563100	0.415530
C1541	C154	0.171200	0.529700	0.391060
C1551	C155	0.170100	0.651400	0.371310
C1561	C156	0.163500	0.697300	0.347590
C1571	C157	0.132300	0.148200	0.343680
C1581	C158	0.034900	0.124500	0.344760
C1591	C159	0.959800	0.179100	0.343510
C1601	C160	0.982600	0.258000	0.342120
C1611	C161	0.080200	0.283100	0.341110
C1621	C162	0.154800	0.227200	0.341560
C1631	C163	0.214300	0.089700	0.344120
C1641	C164	0.106600	0.368100	0.340230
C1651	C165	0.015500	0.478100	0.255890
C1661	C166	0.937600	0.472700	0.238780
C1671	C167	0.953700	0.478500	0.212560
C1681	C168	0.048400	0.487200	0.203620
C1691	C169	0.126800	0.492100	0.220580
C1701	C170	0.110500	0.489100	0.246850
C1711	C171	0.995000	0.475800	0.284250
C1721	C172	0.866400	0.477000	0.194400
C1731	C173	0.406500	0.135100	0.514930
C1741	C174	0.503700	0.110000	0.515980
C1751	C175	0.579700	0.163500	0.514200
C1761	C176	0.560500	0.243100	0.511080
C1771	C177	0.464100	0.269400	0.509370
C1781	C178	0.387700	0.215000	0.511690
C1791	C179	0.320800	0.078400	0.516370
C1801	C180	0.440300	0.353400	0.503930
C1811	C181	0.615300	0.640300	0.800270
C1821	C182	0.610300	0.720700	0.795820
C1831	C183	0.599300	0.770500	0.816390
C1841	C184	0.594300	0.739400	0.841470
C1851	C185	0.585600	0.783900	0.864690
C1861	C186	0.580300	0.874000	0.894850
C1871	C187	0.584300	0.950400	0.907690
C1881	C188	0.591600	0.021800	0.894970
C1891	C189	0.600100	0.089900	0.909390
C1901	C190	0.603400	0.084400	0.935840
C1911	C191	0.587300	0.950700	0.934540
C1921	C192	0.580900	0.750300	0.888780
C1931	C193	0.583000	0.667000	0.892210
C1941	C194	0.578300	0.629700	0.916320
C1951	C195	0.579700	0.549200	0.917490
C1961	C196	0.584700	0.506600	0.894540
C1971	C197	0.589700	0.620200	0.869930
C1981	C198	0.596700	0.656800	0.844300
C1991	C199	0.852500	0.803800	0.803130
C2001	C200	0.854100	0.721800	0.802150
C2011	C201	0.845000	0.679700	0.824450
C2021	C202	0.836600	0.719700	0.848020
C2031	C203	0.830400	0.683600	0.872870
C2041	C204	0.827000	0.605400	0.906500
C2051	C205	0.830000	0.533400	0.922210
C2061	C206	0.835100	0.457700	0.911980
C2071	C207	0.840000	0.394700	0.928600
C2081	C208	0.841000	0.407700	0.954850
C2091	C209	0.831000	0.541300	0.948820
C2101	C210	0.825500	0.726200	0.895620
C2111	C211	0.824900	0.810200	0.895380
C2121	C212	0.820500	0.856800	0.917730
C2131	C213	0.824100	0.936900	0.915530
C2141	C214	0.828800	0.970300	0.891060
C2151	C215	0.829900	0.848600	0.871310
C2161	C216	0.836500	0.802700	0.847590
C2171	C217	0.867700	0.351800	0.843680
C2181	C218	0.965100	0.375500	0.844760
C2191	C219	0.040200	0.320900	0.843510
C2201	C220	0.017400	0.242000	0.842120
C2211	C221	0.919800	0.216900	0.841110
C2221	C222	0.845200	0.272800	0.841560
C2231	C223	0.785700	0.410300	0.844120
C2241	C224	0.893400	0.131900	0.840230
C2251	C225	0.984500	0.021900	0.755890
C2261	C226	0.062400	0.027300	0.738780
C2271	C227	0.046300	0.021500	0.712560
C2281	C228	0.951600	0.012800	0.703620
C2291	C229	0.873200	0.007900	0.720580
C2301	C230	0.889500	0.010900	0.746850
C2311	C231	0.005000	0.024200	0.784250
C2321	C232	0.133600	0.023000	0.694400
C2331	C233	0.593500	0.364900	0.014930
C2341	C234	0.496300	0.390000	0.015980
C2351	C235	0.420300	0.336500	0.014200
C2361	C236	0.439500	0.256900	0.011080
C2371	C237	0.535900	0.230600	0.009370
C2381	C238	0.612300	0.285000	0.011690
C2391	C239	0.679200	0.421600	0.016370
C2401	C240	0.559700	0.146600	0.003930
C2411	C241	0.115300	0.859700	0.800270
C2421	C242	0.110300	0.779300	0.795820
C2431	C243	0.099300	0.729500	0.816390
C2441	C244	0.094300	0.760600	0.841470
C2451	C245	0.085600	0.716100	0.864690
C2461	C246	0.080300	0.626000	0.894850
C2471	C247	0.084300	0.549600	0.907690
C2481	C248	0.091600	0.478200	0.894970
C2491	C249	0.100100	0.410100	0.909390
C2501	C250	0.103400	0.415600	0.935840
C2511	C251	0.087300	0.549300	0.934540
C2521	C252	0.080900	0.749700	0.888780
C2531	C253	0.083000	0.833000	0.892210
C2541	C254	0.078300	0.870300	0.916320
C2551	C255	0.079700	0.950800	0.917490
C2561	C256	0.084700	0.993400	0.894540
C2571	C257	0.089700	0.879800	0.869930
C2581	C258	0.096700	0.843200	0.844300
C2591	C259	0.352500	0.696200	0.803130
C2601	C260	0.354100	0.778200	0.802150
C2611	C261	0.345000	0.820300	0.824450
C2621	C262	0.336600	0.780300	0.848020
C2631	C263	0.330400	0.816400	0.872870
C2641	C264	0.327000	0.894600	0.906500
C2651	C265	0.330000	0.966600	0.922210
C2661	C266	0.335100	0.042300	0.911980
C2671	C267	0.340000	0.105300	0.928600
C2681	C268	0.341000	0.092300	0.954850
C2691	C269	0.331000	0.958700	0.948820
C2701	C270	0.325500	0.773800	0.895620
C2711	C271	0.324900	0.689800	0.895380
C2721	C272	0.320500	0.643200	0.917730
C2731	C273	0.324100	0.563100	0.915530
C2741	C274	0.328800	0.529700	0.891060
C2751	C275	0.329900	0.651400	0.871310
C2761	C276	0.336500	0.697300	0.847590
C2771	C277	0.367700	0.148200	0.843680
C2781	C278	0.465100	0.124500	0.844760
C2791	C279	0.540200	0.179100	0.843510
C2801	C280	0.517400	0.258000	0.842120
C2811	C281	0.419800	0.283100	0.841110
C2821	C282	0.345200	0.227200	0.841560
C2831	C283	0.285700	0.089700	0.844120
C2841	C284	0.393400	0.368100	0.840230
C2851	C285	0.484500	0.478100	0.755890
C2861	C286	0.562400	0.472700	0.738780
C2871	C287	0.546300	0.478500	0.712560
C2881	C288	0.451600	0.487200	0.703620
C2891	C289	0.373200	0.492100	0.720580
C2901	C290	0.389500	0.489100	0.746850
C2911	C291	0.505000	0.475800	0.784250
C2921	C292	0.633600	0.477000	0.694400
C2931	C293	0.093500	0.135100	0.014930
C2941	C294	0.996300	0.110000	0.015980
C2951	C295	0.920300	0.163500	0.014200
C2961	C296	0.939500	0.243100	0.011080
C2971	C297	0.035900	0.269400	0.009370
C2981	C298	0.112300	0.215000	0.011690
C2991	C299	0.179200	0.078400	0.016370
C3001	C300	0.059700	0.353400	0.003930
C3011	C301	0.884700	0.640300	0.300270
C3021	C302	0.889700	0.720700	0.295820
C3031	C303	0.900700	0.770500	0.316390
C3041	C304	0.905700	0.739400	0.341470
C3051	C305	0.914400	0.783900	0.364690
C3061	C306	0.919700	0.874000	0.394850
C3071	C307	0.915700	0.950400	0.407690
C3081	C308	0.908400	0.021800	0.394970
C3091	C309	0.899900	0.089900	0.409390
C3101	C310	0.896600	0.084400	0.435840
C3111	C311	0.912700	0.950700	0.434540
C3121	C312	0.919100	0.750300	0.388780
C3131	C313	0.917000	0.667000	0.392210
C3141	C314	0.921700	0.629700	0.416320
C3151	C315	0.920300	0.549200	0.417490
C3161	C316	0.915300	0.506600	0.394540
C3171	C317	0.910300	0.620200	0.369930
C3181	C318	0.903300	0.656800	0.344300
C3191	C319	0.647500	0.803800	0.303130
C3201	C320	0.645900	0.721800	0.302150
C3211	C321	0.655000	0.679700	0.324450
C3221	C322	0.663400	0.719700	0.348020
C3231	C323	0.669600	0.683600	0.372870
C3241	C324	0.673000	0.605400	0.406500
C3251	C325	0.670000	0.533400	0.422210
C3261	C326	0.664900	0.457700	0.411980
C3271	C327	0.660000	0.394700	0.428600
C3281	C328	0.659000	0.407700	0.454850
C3291	C329	0.669000	0.541300	0.448820
C3301	C330	0.674500	0.726200	0.395620
C3311	C331	0.675100	0.810200	0.395380
C3321	C332	0.679500	0.856800	0.417730
C3331	C333	0.675900	0.936900	0.415530
C3341	C334	0.671200	0.970300	0.391060
C3351	C335	0.670100	0.848600	0.371310
C3361	C336	0.663500	0.802700	0.347590
C3371	C337	0.632300	0.351800	0.343680
C3381	C338	0.534900	0.375500	0.344760
C3391	C339	0.459800	0.320900	0.343510
C3401	C340	0.482600	0.242000	0.342120
C3411	C341	0.580200	0.216900	0.341110
C3421	C342	0.654800	0.272800	0.341560
C3431	C343	0.714300	0.410300	0.344120
C3441	C344	0.606600	0.131900	0.340230
C3451	C345	0.515500	0.021900	0.255890
C3461	C346	0.437600	0.027300	0.238780
C3471	C347	0.453700	0.021500	0.212560
C3481	C348	0.548400	0.012800	0.203620
C3491	C349	0.626800	0.007900	0.220580
C3501	C350	0.610500	0.010900	0.246850
C3511	C351	0.495000	0.024200	0.284250
C3521	C352	0.366400	0.023000	0.194400
C3531	C353	0.906500	0.364900	0.514930
C3541	C354	0.003700	0.390000	0.515980
C3551	C355	0.079700	0.336500	0.514200
C3561	C356	0.060500	0.256900	0.511080
C3571	C357	0.964100	0.230600	0.509370
C3581	C358	0.887700	0.285000	0.511690
C3591	C359	0.820800	0.421600	0.516370
C3601	C360	0.940300	0.146600	0.503930
C3611	C361	0.615300	0.140300	0.699730
C3621	C362	0.610300	0.220700	0.704180
C3631	C363	0.599300	0.270500	0.683610
C3641	C364	0.594300	0.239400	0.658530
C3651	C365	0.585600	0.283900	0.635310
C3661	C366	0.580300	0.374000	0.605150
C3671	C367	0.584300	0.450400	0.592310
C3681	C368	0.591600	0.521800	0.605030
C3691	C369	0.600100	0.589900	0.590610
C3701	C370	0.603400	0.584400	0.564160
C3711	C371	0.587300	0.450700	0.565460
C3721	C372	0.580900	0.250300	0.611220
C3731	C373	0.583000	0.167000	0.607790
C3741	C374	0.578300	0.129700	0.583680
C3751	C375	0.579700	0.049200	0.582510
C3761	C376	0.584700	0.006600	0.605460
C3771	C377	0.589700	0.120200	0.630070
C3781	C378	0.596700	0.156800	0.655700
C3791	C379	0.852500	0.303800	0.696870
C3801	C380	0.854100	0.221800	0.697850
C3811	C381	0.845000	0.179700	0.675550
C3821	C382	0.836600	0.219700	0.651980
C3831	C383	0.830400	0.183600	0.627130
C3841	C384	0.827000	0.105400	0.593500
C3851	C385	0.830000	0.033400	0.577790
C3861	C386	0.835100	0.957700	0.588020
C3871	C387	0.840000	0.894700	0.571400
C3881	C388	0.841000	0.907700	0.545150
C3891	C389	0.831000	0.041300	0.551180
C3901	C390	0.825500	0.226200	0.604380
C3911	C391	0.824900	0.310200	0.604620
C3921	C392	0.820500	0.356800	0.582270
C3931	C393	0.824100	0.436900	0.584470
C3941	C394	0.828800	0.470300	0.608940
C3951	C395	0.829900	0.348600	0.628690
C3961	C396	0.836500	0.302700	0.652410
C3971	C397	0.867700	0.851800	0.656320
C3981	C398	0.965100	0.875500	0.655240
C3991	C399	0.040200	0.820900	0.656490
C4001	C400	0.017400	0.742000	0.657880
C4011	C401	0.919800	0.716900	0.658890
C4021	C402	0.845200	0.772800	0.658440
C4031	C403	0.785700	0.910300	0.655880
C4041	C404	0.893400	0.631900	0.659770
C4051	C405	0.984500	0.521900	0.744110
C4061	C406	0.062400	0.527300	0.761220
C4071	C407	0.046300	0.521500	0.787440
C4081	C408	0.951600	0.512800	0.796380
C4091	C409	0.873200	0.507900	0.779420
C4101	C410	0.889500	0.510900	0.753150
C4111	C411	0.005000	0.524200	0.715750
C4121	C412	0.133600	0.523000	0.805600
C4131	C413	0.593500	0.864900	0.485070
C4141	C414	0.496300	0.890000	0.484020
C4151	C415	0.420300	0.836500	0.485800
C4161	C416	0.439500	0.756900	0.488920
C4171	C417	0.535900	0.730600	0.490630
C4181	C418	0.612300	0.785000	0.488310
C4191	C419	0.679200	0.921600	0.483630
C4201	C420	0.559700	0.646600	0.496070
C4211	C421	0.384700	0.359700	0.199730
C4221	C422	0.389700	0.279300	0.204180
C4231	C423	0.400700	0.229500	0.183610
C4241	C424	0.405700	0.260600	0.158530
C4251	C425	0.414400	0.216100	0.135310
C4261	C426	0.419700	0.126000	0.105150
C4271	C427	0.415700	0.049600	0.092310
C4281	C428	0.408400	0.978200	0.105030
C4291	C429	0.399900	0.910100	0.090610
C4301	C430	0.396600	0.915600	0.064160
C4311	C431	0.412700	0.049300	0.065460
C4321	C432	0.419100	0.249700	0.111220
C4331	C433	0.417000	0.333000	0.107790
C4341	C434	0.421700	0.370300	0.083680
C4351	C435	0.420300	0.450800	0.082510
C4361	C436	0.415300	0.493400	0.105460
C4371	C437	0.410300	0.379800	0.130070
C4381	C438	0.403300	0.343200	0.155700
C4391	C439	0.147500	0.196200	0.196870
C4401	C440	0.145900	0.278200	0.197850
C4411	C441	0.155000	0.320300	0.175550
C4421	C442	0.163400	0.280300	0.151980
C4431	C443	0.169600	0.316400	0.127130
C4441	C444	0.173000	0.394600	0.093500
C4451	C445	0.170000	0.466600	0.077790
C4461	C446	0.164900	0.542300	0.088020
C4471	C447	0.160000	0.605300	0.071400
C4481	C448	0.159000	0.592300	0.045150
C4491	C449	0.169000	0.458700	0.051180
C4501	C450	0.174500	0.273800	0.104380
C4511	C451	0.175100	0.189800	0.104620
C4521	C452	0.179500	0.143200	0.082270
C4531	C453	0.175900	0.063100	0.084470
C4541	C454	0.171200	0.029700	0.108940
C4551	C455	0.170100	0.151400	0.128690
C4561	C456	0.163500	0.197300	0.152410
C4571	C457	0.132300	0.648200	0.156320
C4581	C458	0.034900	0.624500	0.155240
C4591	C459	0.959800	0.679100	0.156490
C4601	C460	0.982600	0.758000	0.157880
C4611	C461	0.080200	0.783100	0.158890
C4621	C462	0.154800	0.727200	0.158440
C4631	C463	0.214300	0.589700	0.155880
C4641	C464	0.106600	0.868100	0.159770
C4651	C465	0.015500	0.978100	0.244110
C4661	C466	0.937600	0.972700	0.261220
C4671	C467	0.953700	0.978500	0.287440
C4681	C468	0.048400	0.987200	0.296380
C4691	C469	0.126800	0.992100	0.279420
C4701	C470	0.110500	0.989100	0.253150
C4711	C471	0.995000	0.975800	0.215750
C4721	C472	0.866400	0.977000	0.305600
C4731	C473	0.406500	0.635100	0.985070
C4741	C474	0.503700	0.610000	0.984020
C4751	C475	0.579700	0.663500	0.985800
C4761	C476	0.560500	0.743100	0.988920
C4771	C477	0.464100	0.769400	0.990630
C4781	C478	0.387700	0.715000	0.988310
C4791	C479	0.320800	0.578400	0.983630
C4801	C480	0.440300	0.853400	0.996070
N11	N1	0.891900	0.108900	0.176270
N21	N2	0.910300	0.041220	0.128460
N31	N3	0.656400	0.343200	0.174850
N41	N4	0.669900	0.427690	0.130440
N51	N5	0.922800	0.306800	0.092410
N61	N6	0.915500	0.363880	0.131340
N71	N7	0.676600	0.176500	0.083440
N81	N8	0.669000	0.105660	0.119870
N91	N9	0.901800	0.515800	0.051440
N101	N10	0.662000	0.979800	0.035160
N111	N11	0.108100	0.391100	0.676270
N121	N12	0.089700	0.458780	0.628460
N131	N13	0.343600	0.156800	0.674850
N141	N14	0.330100	0.072310	0.630440
N151	N15	0.077200	0.193200	0.592410
N161	N16	0.084500	0.136120	0.631340
N171	N17	0.323400	0.323500	0.583440
N181	N18	0.331000	0.394340	0.619870
N191	N19	0.098200	0.984200	0.551440
N201	N20	0.338000	0.520200	0.535160
N211	N21	0.391900	0.891100	0.323730
N221	N22	0.410300	0.958780	0.371540
N231	N23	0.156400	0.656800	0.325150
N241	N24	0.169900	0.572310	0.369560
N251	N25	0.422800	0.693200	0.407590
N261	N26	0.415500	0.636120	0.368660
N271	N27	0.176600	0.823500	0.416560
N281	N28	0.169000	0.894340	0.380130
N291	N29	0.401800	0.484200	0.448560
N301	N30	0.162000	0.020200	0.464840
N311	N31	0.608100	0.608900	0.823730
N321	N32	0.589700	0.541220	0.871540
N331	N33	0.843600	0.843200	0.825150
N341	N34	0.830100	0.927690	0.869560
N351	N35	0.577200	0.806800	0.907590
N361	N36	0.584500	0.863880	0.868660
N371	N37	0.823400	0.676500	0.916560
N381	N38	0.831000	0.605660	0.880130
N391	N39	0.598200	0.015800	0.948560
N401	N40	0.838000	0.479800	0.964840
N411	N41	0.108100	0.891100	0.823730
N421	N42	0.089700	0.958780	0.871540
N431	N43	0.343600	0.656800	0.825150
N441	N44	0.330100	0.572310	0.869560
N451	N45	0.077200	0.693200	0.907590
N461	N46	0.084500	0.636120	0.868660
N471	N47	0.323400	0.823500	0.916560
N481	N48	0.331000	0.894340	0.880130
N491	N49	0.098200	0.484200	0.948560
N501	N50	0.338000	0.020200	0.964840
N511	N51	0.891900	0.608900	0.323730
N521	N52	0.910300	0.541220	0.371540
N531	N53	0.656400	0.843200	0.325150
N541	N54	0.669900	0.927690	0.369560
N551	N55	0.922800	0.806800	0.407590
N561	N56	0.915500	0.863880	0.368660
N571	N57	0.676600	0.676500	0.416560
N581	N58	0.669000	0.605660	0.380130
N591	N59	0.901800	0.015800	0.448560
N601	N60	0.662000	0.479800	0.464840
N611	N61	0.608100	0.108900	0.676270
N621	N62	0.589700	0.041220	0.628460
N631	N63	0.843600	0.343200	0.674850
N641	N64	0.830100	0.427690	0.630440
N651	N65	0.577200	0.306800	0.592410
N661	N66	0.584500	0.363880	0.631340
N671	N67	0.823400	0.176500	0.583440
N681	N68	0.831000	0.105660	0.619870
N691	N69	0.598200	0.515800	0.551440
N701	N70	0.838000	0.979800	0.535160
N711	N71	0.391900	0.391100	0.176270
N721	N72	0.410300	0.458780	0.128460
N731	N73	0.156400	0.156800	0.174850
N741	N74	0.169900	0.072310	0.130440
N751	N75	0.422800	0.193200	0.092410
N761	N76	0.415500	0.136120	0.131340
N771	N77	0.176600	0.323500	0.083440
N781	N78	0.169000	0.394340	0.119870
N791	N79	0.401800	0.984200	0.051440
N801	N80	0.162000	0.520200	0.035160
O11	O1	0.696600	0.982560	0.156100
O21	O2	0.801200	0.882570	0.155210
O31	O3	0.545400	0.581870	0.151810
O41	O4	0.689900	0.612220	0.168050
O51	O5	0.416400	0.557030	0.208250
O61	O6	0.553500	0.490640	0.200680
O71	O7	0.282700	0.520500	0.295460
O81	O8	0.379500	0.527240	0.329510
O91	O9	0.736000	0.892160	0.984190
O101	O10	0.835700	0.994060	0.982440
O111	O11	0.853200	0.629870	0.002870
O121	O12	0.004900	0.593810	0.994170
O131	O13	0.303400	0.517440	0.656100
O141	O14	0.198800	0.617430	0.655210
O151	O15	0.454600	0.918130	0.651810
O161	O16	0.310100	0.887780	0.668050
O171	O17	0.583600	0.942970	0.708250
O181	O18	0.446500	0.009360	0.700680
O191	O19	0.717300	0.979500	0.795460
O201	O20	0.620500	0.972760	0.829510
O211	O21	0.264000	0.607840	0.484190
O221	O22	0.164300	0.505940	0.482440
O231	O23	0.146800	0.870130	0.502870
O241	O24	0.995100	0.906190	0.494170
O251	O25	0.196600	0.017440	0.343900
O261	O26	0.301200	0.117430	0.344790
O271	O27	0.045400	0.418130	0.348190
O281	O28	0.189900	0.387780	0.331950
O291	O29	0.916400	0.442970	0.291750
O301	O30	0.053500	0.509360	0.299320
O311	O31	0.782700	0.479500	0.204540
O321	O32	0.879500	0.472760	0.170490
O331	O33	0.236000	0.107840	0.515810
O341	O34	0.335700	0.005940	0.517560
O351	O35	0.353200	0.370130	0.497130
O361	O36	0.504900	0.406190	0.505830
O371	O37	0.803400	0.482560	0.843900
O381	O38	0.698800	0.382570	0.844790
O391	O39	0.954600	0.081870	0.848190
O401	O40	0.810100	0.112220	0.831950
O411	O41	0.083600	0.057030	0.791750
O421	O42	0.946500	0.990640	0.799320
O431	O43	0.217300	0.020500	0.704540
O441	O44	0.120500	0.027240	0.670490
O451	O45	0.764000	0.392160	0.015810
O461	O46	0.664300	0.494060	0.017560
O471	O47	0.646800	0.129870	0.997130
O481	O48	0.495100	0.093810	0.005830
O491	O49	0.303400	0.017440	0.843900
O501	O50	0.198800	0.117430	0.844790
O511	O51	0.454600	0.418130	0.848190
O521	O52	0.310100	0.387780	0.831950
O531	O53	0.583600	0.442970	0.791750
O541	O54	0.446500	0.509360	0.799320
O551	O55	0.717300	0.479500	0.704540
O561	O56	0.620500	0.472760	0.670490
O571	O57	0.264000	0.107840	0.015810
O581	O58	0.164300	0.005940	0.017560
O591	O59	0.146800	0.370130	0.997130
O601	O60	0.995100	0.406190	0.005830
O611	O61	0.696600	0.482560	0.343900
O621	O62	0.801200	0.382570	0.344790
O631	O63	0.545400	0.081870	0.348190
O641	O64	0.689900	0.112220	0.331950
O651	O65	0.416400	0.057030	0.291750
O661	O66	0.553500	0.990640	0.299320
O671	O67	0.282700	0.020500	0.204540
O681	O68	0.379500	0.027240	0.170490
O691	O69	0.736000	0.392160	0.515810
O701	O70	0.835700	0.494060	0.517560
O711	O71	0.853200	0.129870	0.497130
O721	O72	0.004900	0.093810	0.505830
O731	O73	0.803400	0.982560	0.656100
O741	O74	0.698800	0.882570	0.655210
O751	O75	0.954600	0.581870	0.651810
O761	O76	0.810100	0.612220	0.668050
O771	O77	0.083600	0.557030	0.708250
O781	O78	0.946500	0.490640	0.700680
O791	O79	0.217300	0.520500	0.795460
O801	O80	0.120500	0.527240	0.829510
O811	O81	0.764000	0.892160	0.484190
O821	O82	0.664300	0.994060	0.482440
O831	O83	0.646800	0.629870	0.502870
O841	O84	0.495100	0.593810	0.494170
O851	O85	0.196600	0.517440	0.156100
O861	O86	0.301200	0.617430	0.155210
O871	O87	0.045400	0.918130	0.151810
O881	O88	0.189900	0.887780	0.168050
O891	O89	0.916400	0.942970	0.208250
O901	O90	0.053500	0.009360	0.200680
O911	O91	0.782700	0.979500	0.295460
O921	O92	0.879500	0.972760	0.329510
O931	O93	0.236000	0.607840	0.984190
O941	O94	0.335700	0.505940	0.982440
O951	O95	0.353200	0.870130	0.002870
O961	O96	0.504900	0.906190	0.994170
