data_TUTJAU_freeONLY_PM
_symmetry_space_group_name_H-M	'P1'
_cell_length_a	15.209000
_cell_length_b	16.361000
_cell_length_c	17.463000
_cell_angle_alpha	110.410000
_cell_angle_beta	90.000000
_cell_angle_gamma	90.000000
_symmetry_Int_Tables_number 1

loop_
_symmetry_equiv_pos_as_xyz
'x,y,z'

loop_
_atom_site_label
_atom_site_type_symbol
_atom_site_fract_x
_atom_site_fract_y
_atom_site_fract_z
Mn11	Mn1	0.566440	0.541870	0.766620
Mn21	Mn2	0.850960	0.449770	0.718310
Mn31	Mn3	0.066440	0.958130	0.733380
Mn41	Mn4	0.350960	0.050230	0.781690
Mn51	Mn5	0.433560	0.458130	0.233380
Mn61	Mn6	0.149040	0.550230	0.281690
Mn71	Mn7	0.933560	0.041870	0.266620
Mn81	Mn8	0.649040	0.949770	0.218310
H11	H1	0.810200	0.033600	0.680200
H21	H2	0.590300	0.937000	0.765800
H31	H3	0.884000	0.720900	0.722000
H41	H4	0.533100	0.271300	0.750900
H51	H5	0.659200	0.045700	0.716700
H61	H6	0.786000	0.243800	0.682100
H71	H7	0.514900	0.817900	0.811200
H81	H8	0.482700	0.914800	0.838500
H91	H9	0.629300	0.738700	0.779900
H101	H10	0.753900	0.943800	0.755900
H111	H11	0.815300	0.011300	0.393600
H121	H12	0.017300	0.157700	0.575200
H131	H13	0.513300	0.786300	0.934900
H141	H14	0.045700	0.121700	0.440400
H151	H15	0.792000	0.037400	0.531200
H161	H16	0.635300	0.001900	0.940300
H171	H17	0.563300	0.809500	0.062900
H181	H18	0.671900	0.024300	0.071800
H191	H19	0.310200	0.466400	0.819800
H201	H20	0.090300	0.563000	0.734200
H211	H21	0.384000	0.779100	0.778000
H221	H22	0.033100	0.228700	0.749100
H231	H23	0.159200	0.454300	0.783300
H241	H24	0.286000	0.256200	0.817900
H251	H25	0.014900	0.682100	0.688800
H261	H26	0.982700	0.585200	0.661500
H271	H27	0.129300	0.761300	0.720100
H281	H28	0.253900	0.556200	0.744100
H291	H29	0.315300	0.488700	0.106400
H301	H30	0.517300	0.342300	0.924800
H311	H31	0.013300	0.713700	0.565100
H321	H32	0.545700	0.378300	0.059600
H331	H33	0.292000	0.462600	0.968800
H341	H34	0.135300	0.498100	0.559700
H351	H35	0.063300	0.690500	0.437100
H361	H36	0.171900	0.475700	0.428200
H371	H37	0.189800	0.966400	0.319800
H381	H38	0.409700	0.063000	0.234200
H391	H39	0.116000	0.279100	0.278000
H401	H40	0.466900	0.728700	0.249100
H411	H41	0.340800	0.954300	0.283300
H421	H42	0.214000	0.756200	0.317900
H431	H43	0.485100	0.182100	0.188800
H441	H44	0.517300	0.085200	0.161500
H451	H45	0.370700	0.261300	0.220100
H461	H46	0.246100	0.056200	0.244100
H471	H47	0.184700	0.988700	0.606400
H481	H48	0.982700	0.842300	0.424800
H491	H49	0.486700	0.213700	0.065100
H501	H50	0.954300	0.878300	0.559600
H511	H51	0.208000	0.962600	0.468800
H521	H52	0.364700	0.998100	0.059700
H531	H53	0.436700	0.190500	0.937100
H541	H54	0.328100	0.975700	0.928200
H551	H55	0.689800	0.533600	0.180200
H561	H56	0.909700	0.437000	0.265800
H571	H57	0.616000	0.220900	0.222000
H581	H58	0.966900	0.771300	0.250900
H591	H59	0.840800	0.545700	0.216700
H601	H60	0.714000	0.743800	0.182100
H611	H61	0.985100	0.317900	0.311200
H621	H62	0.017300	0.414800	0.338500
H631	H63	0.870700	0.238700	0.279900
H641	H64	0.746100	0.443800	0.255900
H651	H65	0.684700	0.511300	0.893600
H661	H66	0.482700	0.657700	0.075200
H671	H67	0.986700	0.286300	0.434900
H681	H68	0.454300	0.621700	0.940400
H691	H69	0.708000	0.537400	0.031200
H701	H70	0.864700	0.501900	0.440300
H711	H71	0.936700	0.309500	0.562900
H721	H72	0.828100	0.524300	0.571800
C11	C1	0.584500	0.152400	0.738100
C21	C2	0.660100	0.272500	0.716400
C31	C3	0.896800	0.117500	0.660500
C41	C4	0.831500	0.837900	0.736000
C51	C5	0.832100	0.752900	0.734000
C61	C6	0.502400	0.115100	0.760100
C71	C7	0.584000	0.237900	0.737400
C81	C8	0.757600	0.715300	0.749600
C91	C9	0.660100	0.103000	0.717800
C101	C10	0.735500	0.220900	0.697000
C111	C11	0.677600	0.849100	0.767700
C121	C12	0.564700	0.893000	0.921300
C131	C13	0.738300	0.137300	0.698900
C141	C14	0.758300	0.624600	0.751500
C151	C15	0.533500	0.878100	0.836000
C161	C16	0.905900	0.099900	0.570000
C171	C17	0.915400	0.880800	0.724600
C181	C18	0.679900	0.763600	0.767700
C191	C19	0.661200	0.362900	0.715600
C201	C20	0.753900	0.886100	0.753600
C211	C21	0.858500	0.040700	0.430700
C221	C22	0.975500	0.124600	0.538600
C231	C23	0.546100	0.836200	0.961300
C241	C24	0.992200	0.106100	0.457100
C251	C25	0.843600	0.056400	0.514200
C261	C26	0.616100	0.962800	0.964600
C271	C27	0.575100	0.851700	0.039900
C281	C28	0.639000	0.974900	0.043900
C291	C29	0.084500	0.347600	0.761900
C301	C30	0.160100	0.227500	0.783600
C311	C31	0.396800	0.382500	0.839500
C321	C32	0.331500	0.662100	0.764000
C331	C33	0.332100	0.747100	0.766000
C341	C34	0.002400	0.384900	0.739900
C351	C35	0.084000	0.262100	0.762600
C361	C36	0.257600	0.784700	0.750400
C371	C37	0.160100	0.397000	0.782200
C381	C38	0.235500	0.279100	0.803000
C391	C39	0.177600	0.650900	0.732300
C401	C40	0.064700	0.607000	0.578700
C411	C41	0.238300	0.362700	0.801100
C421	C42	0.258300	0.875400	0.748500
C431	C43	0.033500	0.621900	0.664000
C441	C44	0.405900	0.400100	0.930000
C451	C45	0.415400	0.619200	0.775400
C461	C46	0.179900	0.736400	0.732300
C471	C47	0.161200	0.137100	0.784400
C481	C48	0.253900	0.613900	0.746400
C491	C49	0.358500	0.459300	0.069300
C501	C50	0.475500	0.375400	0.961400
C511	C51	0.046100	0.663800	0.538700
C521	C52	0.492200	0.393900	0.042900
C531	C53	0.343600	0.443600	0.985800
C541	C54	0.116100	0.537200	0.535400
C551	C55	0.075100	0.648300	0.460100
C561	C56	0.139000	0.525100	0.456100
C571	C57	0.415500	0.847600	0.261900
C581	C58	0.339900	0.727500	0.283600
C591	C59	0.103200	0.882500	0.339500
C601	C60	0.168500	0.162100	0.264000
C611	C61	0.167900	0.247100	0.266000
C621	C62	0.497600	0.884900	0.239900
C631	C63	0.416000	0.762100	0.262600
C641	C64	0.242400	0.284700	0.250400
C651	C65	0.339900	0.897000	0.282200
C661	C66	0.264500	0.779100	0.303000
C671	C67	0.322400	0.150900	0.232300
C681	C68	0.435300	0.107000	0.078700
C691	C69	0.261700	0.862700	0.301100
C701	C70	0.241700	0.375400	0.248500
C711	C71	0.466500	0.121900	0.164000
C721	C72	0.094100	0.900100	0.430000
C731	C73	0.084600	0.119200	0.275400
C741	C74	0.320100	0.236400	0.232300
C751	C75	0.338800	0.637100	0.284400
C761	C76	0.246100	0.113900	0.246400
C771	C77	0.141500	0.959300	0.569300
C781	C78	0.024500	0.875400	0.461400
C791	C79	0.453900	0.163800	0.038700
C801	C80	0.007800	0.893900	0.542900
C811	C81	0.156400	0.943600	0.485800
C821	C82	0.383900	0.037200	0.035400
C831	C83	0.424900	0.148300	0.960100
C841	C84	0.361000	0.025100	0.956100
C851	C85	0.915500	0.652400	0.238100
C861	C86	0.839900	0.772500	0.216400
C871	C87	0.603200	0.617500	0.160500
C881	C88	0.668500	0.337900	0.236000
C891	C89	0.667900	0.252900	0.234000
C901	C90	0.997600	0.615100	0.260100
C911	C91	0.916000	0.737900	0.237400
C921	C92	0.742400	0.215300	0.249600
C931	C93	0.839900	0.603000	0.217800
C941	C94	0.764500	0.720900	0.197000
C951	C95	0.822400	0.349100	0.267700
C961	C96	0.935300	0.393000	0.421300
C971	C97	0.761700	0.637300	0.198900
C981	C98	0.741700	0.124600	0.251500
C991	C99	0.966500	0.378100	0.336000
C1001	C100	0.594100	0.599900	0.070000
C1011	C101	0.584600	0.380800	0.224600
C1021	C102	0.820100	0.263600	0.267700
C1031	C103	0.838800	0.862900	0.215600
C1041	C104	0.746100	0.386100	0.253600
C1051	C105	0.641500	0.540700	0.930700
C1061	C106	0.524500	0.624600	0.038600
C1071	C107	0.953900	0.336200	0.461300
C1081	C108	0.507800	0.606100	0.957100
C1091	C109	0.656400	0.556400	0.014200
C1101	C110	0.883900	0.462800	0.464600
C1111	C111	0.924900	0.351700	0.539900
C1121	C112	0.861000	0.474900	0.543900
N11	N1	0.930900	0.065400	0.401700
N21	N2	0.813200	0.086100	0.680200
N31	N3	0.599200	0.896400	0.785500
N41	N4	0.618100	0.921500	0.084700
N51	N5	0.430900	0.434600	0.098300
N61	N6	0.313200	0.413900	0.819800
N71	N7	0.099200	0.603600	0.714500
N81	N8	0.118100	0.578500	0.415300
N91	N9	0.069100	0.934600	0.598300
N101	N10	0.186800	0.913900	0.319800
N111	N11	0.400800	0.103600	0.214500
N121	N12	0.381900	0.078500	0.915300
N131	N13	0.569100	0.565400	0.901700
N141	N14	0.686800	0.586100	0.180200
N151	N15	0.900800	0.396400	0.285500
N161	N16	0.881900	0.421500	0.584700
O11	O1	0.434800	0.161000	0.778500
O21	O2	0.502400	0.037400	0.758700
O31	O3	0.690900	0.598300	0.778100
O41	O4	0.984900	0.839200	0.713500
O51	O5	0.914200	0.961600	0.733000
O61	O6	0.827400	0.581000	0.728100
O71	O7	0.728100	0.389300	0.690100
O81	O8	0.592000	0.408200	0.740200
O91	O9	0.835700	0.482200	0.850900
O101	O10	0.563300	0.521900	0.632500
O111	O11	0.934800	0.339000	0.721500
O121	O12	0.002400	0.462600	0.741300
O131	O13	0.190900	0.901700	0.721900
O141	O14	0.484900	0.660800	0.786500
O151	O15	0.414200	0.538400	0.767000
O161	O16	0.327400	0.919000	0.771900
O171	O17	0.228100	0.110700	0.809900
O181	O18	0.092000	0.091800	0.759800
O191	O19	0.335700	0.017800	0.649100
O201	O20	0.063300	0.978100	0.867500
O211	O21	0.565200	0.839000	0.221500
O221	O22	0.497600	0.962600	0.241300
O231	O23	0.309100	0.401700	0.221900
O241	O24	0.015100	0.160800	0.286500
O251	O25	0.085800	0.038400	0.267000
O261	O26	0.172600	0.419000	0.271900
O271	O27	0.271900	0.610700	0.309900
O281	O28	0.408000	0.591800	0.259800
O291	O29	0.164300	0.517800	0.149100
O301	O30	0.436700	0.478100	0.367500
O311	O31	0.065200	0.661000	0.278500
O321	O32	0.997600	0.537400	0.258700
O331	O33	0.809100	0.098300	0.278100
O341	O34	0.515100	0.339200	0.213500
O351	O35	0.585800	0.461600	0.233000
O361	O36	0.672600	0.081000	0.228100
O371	O37	0.771900	0.889300	0.190100
O381	O38	0.908000	0.908200	0.240200
O391	O39	0.664300	0.982200	0.350900
O401	O40	0.936700	0.021900	0.132500
