data_UFUQIV_freeONLY_PM
_symmetry_space_group_name_H-M	'P1'
_cell_length_a	18.219000
_cell_length_b	22.105500
_cell_length_c	22.105500
_cell_angle_alpha	80.222700
_cell_angle_beta	65.663700
_cell_angle_gamma	65.663700
_symmetry_Int_Tables_number 1

loop_
_symmetry_equiv_pos_as_xyz
'x,y,z'

loop_
_atom_site_label
_atom_site_type_symbol
_atom_site_fract_x
_atom_site_fract_y
_atom_site_fract_z
Cu11	Cu1	0.750000	0.507570	0.492430
Cu21	Cu2	0.250000	0.992430	0.007570
Cu31	Cu3	0.257570	0.492430	0.992430
Cu41	Cu4	0.242430	0.007570	0.507570
H11	H1	0.429600	0.935800	0.423800
H21	H2	0.566600	0.569300	0.503900
H31	H3	0.266400	0.877100	0.573100
H41	H4	0.739700	0.646500	0.461900
H51	H5	0.370900	0.773300	0.568100
H61	H6	0.460200	0.671500	0.508300
H71	H7	0.637500	0.751900	0.464100
H81	H8	0.539100	0.834400	0.415600
H91	H9	0.289200	0.564200	0.076200
H101	H10	0.139800	0.930700	0.996100
H111	H11	0.216600	0.622900	0.926900
H121	H12	0.348100	0.853500	0.038100
H131	H13	0.212300	0.726700	0.931900
H141	H14	0.140000	0.828500	0.991700
H151	H15	0.353500	0.748100	0.035900
H161	H16	0.289100	0.665600	0.084400
H171	H17	0.210800	0.923800	0.435800
H181	H18	0.360200	0.003900	0.069300
H191	H19	0.283400	0.073100	0.377100
H201	H20	0.151900	0.961900	0.146500
H211	H21	0.287700	0.068100	0.273300
H221	H22	0.360000	0.008300	0.171500
H231	H23	0.146500	0.964100	0.251900
H241	H24	0.210900	0.915600	0.334400
H251	H25	0.070400	0.576200	0.064200
H261	H26	0.933400	0.496100	0.430700
H271	H27	0.233600	0.426900	0.122900
H281	H28	0.760300	0.538100	0.353500
H291	H29	0.129100	0.431900	0.226700
H301	H30	0.039800	0.491700	0.328500
H311	H31	0.862500	0.535900	0.248100
H321	H32	0.960900	0.584400	0.165600
H331	H33	0.646600	0.423800	0.564200
H341	H34	0.429500	0.503900	0.930700
H351	H35	0.660500	0.573100	0.622900
H361	H36	0.298400	0.461900	0.853500
H371	H37	0.561000	0.568100	0.726700
H381	H38	0.531500	0.508300	0.828500
H391	H39	0.398400	0.464100	0.748100
H401	H40	0.545300	0.415600	0.665600
H411	H41	0.134600	0.076200	0.935800
H421	H42	0.364100	0.996100	0.569300
H431	H43	0.356500	0.926900	0.877100
H441	H44	0.113800	0.038100	0.646500
H451	H45	0.355800	0.931900	0.773300
H461	H46	0.368300	0.991700	0.671500
H471	H47	0.110600	0.035900	0.751900
H481	H48	0.126500	0.084400	0.834400
H491	H49	0.365400	0.064200	0.923800
H501	H50	0.135900	0.430700	0.003900
H511	H51	0.143500	0.122900	0.073100
H521	H52	0.386200	0.353500	0.961900
H531	H53	0.144200	0.226700	0.068100
H541	H54	0.131700	0.328500	0.008300
H551	H55	0.389400	0.248100	0.964100
H561	H56	0.373500	0.165600	0.915600
H571	H57	0.853400	0.435800	0.576200
H581	H58	0.070500	0.069300	0.496100
H591	H59	0.839500	0.377100	0.426900
H601	H60	0.201600	0.146500	0.538100
H611	H61	0.939000	0.273300	0.431900
H621	H62	0.968500	0.171500	0.491700
H631	H63	0.101600	0.251900	0.535900
H641	H64	0.954700	0.334400	0.584400
C11	C1	0.417700	0.902600	0.453200
C21	C2	0.536200	0.724030	0.486770
C31	C3	0.467800	0.791100	0.490100
C41	C4	0.580600	0.606600	0.496600
C51	C5	0.322100	0.868000	0.540600
C61	C6	0.682500	0.652000	0.471800
C71	C7	0.384400	0.805700	0.537900
C81	C8	0.516600	0.667700	0.498900
C91	C9	0.621600	0.715500	0.472700
C101	C10	0.483700	0.841600	0.447800
C111	C11	0.273500	0.597400	0.046800
C121	C12	0.247000	0.775970	0.013230
C131	C13	0.249000	0.708900	0.009900
C141	C14	0.183800	0.893400	0.003400
C151	C15	0.230700	0.632000	0.959400
C161	C16	0.306300	0.848000	0.028200
C171	C17	0.228000	0.694300	0.962100
C181	C18	0.183200	0.832300	0.001100
C191	C19	0.309800	0.784500	0.027300
C201	C20	0.273100	0.658400	0.052200
C211	C21	0.226500	0.953200	0.402600
C221	C22	0.253000	0.986770	0.224030
C231	C23	0.251000	0.990100	0.291100
C241	C24	0.316200	0.996600	0.106600
C251	C25	0.269300	0.040600	0.368000
C261	C26	0.193700	0.971800	0.152000
C271	C27	0.272000	0.037900	0.305700
C281	C28	0.316800	0.998900	0.167700
C291	C29	0.190200	0.972700	0.215500
C301	C30	0.226900	0.947800	0.341600
C311	C31	0.082300	0.546800	0.097400
C321	C32	0.963800	0.513230	0.275970
C331	C33	0.032200	0.509900	0.208900
C341	C34	0.919400	0.503400	0.393400
C351	C35	0.177900	0.459400	0.132000
C361	C36	0.817500	0.528200	0.348000
C371	C37	0.115600	0.462100	0.194300
C381	C38	0.983400	0.501100	0.332300
C391	C39	0.878400	0.527300	0.284500
C401	C40	0.016300	0.552200	0.158400
C411	C41	0.629100	0.453200	0.597400
C421	C42	0.477030	0.486770	0.775970
C431	C43	0.542100	0.490100	0.708900
C441	C44	0.422800	0.496600	0.893400
C451	C45	0.637300	0.540600	0.632000
C461	C46	0.345700	0.471800	0.848000
C471	C47	0.577700	0.537900	0.694300
C481	C48	0.484500	0.498900	0.832300
C491	C49	0.405700	0.472700	0.784500
C501	C50	0.568500	0.447800	0.658400
C511	C51	0.179700	0.046800	0.902600
C521	C52	0.239770	0.013230	0.724030
C531	C53	0.241100	0.009900	0.791100
C541	C54	0.312800	0.003400	0.606600
C551	C55	0.309900	0.959400	0.868000
C561	C56	0.165500	0.028200	0.652000
C571	C57	0.309900	0.962100	0.805700
C581	C58	0.315700	0.001100	0.667700
C591	C59	0.162900	0.027300	0.715500
C601	C60	0.174700	0.052200	0.841600
C611	C61	0.320300	0.097400	0.953200
C621	C62	0.260230	0.275970	0.986770
C631	C63	0.258900	0.208900	0.990100
C641	C64	0.187200	0.393400	0.996600
C651	C65	0.190100	0.132000	0.040600
C661	C66	0.334500	0.348000	0.971800
C671	C67	0.190100	0.194300	0.037900
C681	C68	0.184300	0.332300	0.998900
C691	C69	0.337100	0.284500	0.972700
C701	C70	0.325300	0.158400	0.947800
C711	C71	0.870900	0.402600	0.546800
C721	C72	0.022970	0.224030	0.513230
C731	C73	0.957900	0.291100	0.509900
C741	C74	0.077200	0.106600	0.503400
C751	C75	0.862700	0.368000	0.459400
C761	C76	0.154300	0.152000	0.528200
C771	C77	0.922300	0.305700	0.462100
C781	C78	0.015500	0.167700	0.501100
C791	C79	0.094300	0.215500	0.527300
C801	C80	0.931500	0.341600	0.552200
N11	N1	0.663050	0.598170	0.484530
N21	N2	0.337380	0.916160	0.498880
N31	N3	0.245750	0.901830	0.015470
N41	N4	0.252420	0.583840	0.001120
N51	N5	0.254250	0.984530	0.098170
N61	N6	0.247580	0.998880	0.416160
N71	N7	0.836950	0.515470	0.401830
N81	N8	0.162620	0.501120	0.083840
N91	N9	0.352420	0.484530	0.901830
N101	N10	0.663740	0.498880	0.583840
N111	N11	0.238780	0.015470	0.598170
N121	N12	0.246460	0.001120	0.916160
N131	N13	0.261220	0.401830	0.984530
N141	N14	0.253540	0.083840	0.998880
N151	N15	0.147580	0.098170	0.515470
N161	N16	0.836260	0.416160	0.501120
Cu51	Cu5	0.742430	0.507570	0.007570
Cu61	Cu6	0.757570	0.992430	0.492430
Cu71	Cu7	0.250000	0.492430	0.507570
Cu81	Cu8	0.750000	0.007570	0.992430
H651	H65	0.353400	0.576200	0.435800
H661	H66	0.570500	0.496100	0.069300
H671	H67	0.339500	0.426900	0.377100
H681	H68	0.701600	0.538100	0.146500
H691	H69	0.439000	0.431900	0.273300
H701	H70	0.468500	0.491700	0.171500
H711	H71	0.601600	0.535900	0.251900
H721	H72	0.454700	0.584400	0.334400
H731	H73	0.865400	0.923800	0.064200
H741	H74	0.635900	0.003900	0.430700
H751	H75	0.643500	0.073100	0.122900
H761	H76	0.886200	0.961900	0.353500
H771	H77	0.644200	0.068100	0.226700
H781	H78	0.631700	0.008300	0.328500
H791	H79	0.889400	0.964100	0.248100
H801	H80	0.873500	0.915600	0.165600
H811	H81	0.634600	0.935800	0.076200
H821	H82	0.864100	0.569300	0.996100
H831	H83	0.856500	0.877100	0.926900
H841	H84	0.613800	0.646500	0.038100
H851	H85	0.855800	0.773300	0.931900
H861	H86	0.868300	0.671500	0.991700
H871	H87	0.610600	0.751900	0.035900
H881	H88	0.626500	0.834400	0.084400
H891	H89	0.146600	0.564200	0.423800
H901	H90	0.929500	0.930700	0.503900
H911	H91	0.160500	0.622900	0.573100
H921	H92	0.798400	0.853500	0.461900
H931	H93	0.061000	0.726700	0.568100
H941	H94	0.031500	0.828500	0.508300
H951	H95	0.898400	0.748100	0.464100
H961	H96	0.045300	0.665600	0.415600
H971	H97	0.570400	0.064200	0.576200
H981	H98	0.433400	0.430700	0.496100
H991	H99	0.733600	0.122900	0.426900
H1001	H100	0.260300	0.353500	0.538100
H1011	H101	0.629100	0.226700	0.431900
H1021	H102	0.539800	0.328500	0.491700
H1031	H103	0.362500	0.248100	0.535900
H1041	H104	0.460900	0.165600	0.584400
H1051	H105	0.710800	0.435800	0.923800
H1061	H106	0.860200	0.069300	0.003900
H1071	H107	0.783400	0.377100	0.073100
H1081	H108	0.651900	0.146500	0.961900
H1091	H109	0.787700	0.273300	0.068100
H1101	H110	0.860000	0.171500	0.008300
H1111	H111	0.646500	0.251900	0.964100
H1121	H112	0.710900	0.334400	0.915600
H1131	H113	0.789200	0.076200	0.564200
H1141	H114	0.639800	0.996100	0.930700
H1151	H115	0.716600	0.926900	0.622900
H1161	H116	0.848100	0.038100	0.853500
H1171	H117	0.712300	0.931900	0.726700
H1181	H118	0.640000	0.991700	0.828500
H1191	H119	0.853500	0.035900	0.748100
H1201	H120	0.789100	0.084400	0.665600
H1211	H121	0.929600	0.423800	0.935800
H1221	H122	0.066600	0.503900	0.569300
H1231	H123	0.766400	0.573100	0.877100
H1241	H124	0.239700	0.461900	0.646500
H1251	H125	0.870900	0.568100	0.773300
H1261	H126	0.960200	0.508300	0.671500
H1271	H127	0.137500	0.464100	0.751900
H1281	H128	0.039100	0.415600	0.834400
C811	C81	0.370900	0.546800	0.402600
C821	C82	0.522970	0.513230	0.224030
C831	C83	0.457900	0.509900	0.291100
C841	C84	0.577200	0.503400	0.106600
C851	C85	0.362700	0.459400	0.368000
C861	C86	0.654300	0.528200	0.152000
C871	C87	0.422300	0.462100	0.305700
C881	C88	0.515500	0.501100	0.167700
C891	C89	0.594300	0.527300	0.215500
C901	C90	0.431500	0.552200	0.341600
C911	C91	0.820300	0.953200	0.097400
C921	C92	0.760230	0.986770	0.275970
C931	C93	0.758900	0.990100	0.208900
C941	C94	0.687200	0.996600	0.393400
C951	C95	0.690100	0.040600	0.132000
C961	C96	0.834500	0.971800	0.348000
C971	C97	0.690100	0.037900	0.194300
C981	C98	0.684300	0.998900	0.332300
C991	C99	0.837100	0.972700	0.284500
C1001	C100	0.825300	0.947800	0.158400
C1011	C101	0.679700	0.902600	0.046800
C1021	C102	0.739770	0.724030	0.013230
C1031	C103	0.741100	0.791100	0.009900
C1041	C104	0.812800	0.606600	0.003400
C1051	C105	0.809900	0.868000	0.959400
C1061	C106	0.665500	0.652000	0.028200
C1071	C107	0.809900	0.805700	0.962100
C1081	C108	0.815700	0.667700	0.001100
C1091	C109	0.662900	0.715500	0.027300
C1101	C110	0.674700	0.841600	0.052200
C1111	C111	0.129100	0.597400	0.453200
C1121	C112	0.977030	0.775970	0.486770
C1131	C113	0.042100	0.708900	0.490100
C1141	C114	0.922800	0.893400	0.496600
C1151	C115	0.137300	0.632000	0.540600
C1161	C116	0.845700	0.848000	0.471800
C1171	C117	0.077700	0.694300	0.537900
C1181	C118	0.984500	0.832300	0.498900
C1191	C119	0.905700	0.784500	0.472700
C1201	C120	0.068500	0.658400	0.447800
C1211	C121	0.582300	0.097400	0.546800
C1221	C122	0.463800	0.275970	0.513230
C1231	C123	0.532200	0.208900	0.509900
C1241	C124	0.419400	0.393400	0.503400
C1251	C125	0.677900	0.132000	0.459400
C1261	C126	0.317500	0.348000	0.528200
C1271	C127	0.615600	0.194300	0.462100
C1281	C128	0.483400	0.332300	0.501100
C1291	C129	0.378400	0.284500	0.527300
C1301	C130	0.516300	0.158400	0.552200
C1311	C131	0.726500	0.402600	0.953200
C1321	C132	0.753000	0.224030	0.986770
C1331	C133	0.751000	0.291100	0.990100
C1341	C134	0.816200	0.106600	0.996600
C1351	C135	0.769300	0.368000	0.040600
C1361	C136	0.693700	0.152000	0.971800
C1371	C137	0.772000	0.305700	0.037900
C1381	C138	0.816800	0.167700	0.998900
C1391	C139	0.690200	0.215500	0.972700
C1401	C140	0.726900	0.341600	0.947800
C1411	C141	0.773500	0.046800	0.597400
C1421	C142	0.747000	0.013230	0.775970
C1431	C143	0.749000	0.009900	0.708900
C1441	C144	0.683800	0.003400	0.893400
C1451	C145	0.730700	0.959400	0.632000
C1461	C146	0.806300	0.028200	0.848000
C1471	C147	0.728000	0.962100	0.694300
C1481	C148	0.683200	0.001100	0.832300
C1491	C149	0.809800	0.027300	0.784500
C1501	C150	0.773100	0.052200	0.658400
C1511	C151	0.917700	0.453200	0.902600
C1521	C152	0.036200	0.486770	0.724030
C1531	C153	0.967800	0.490100	0.791100
C1541	C154	0.080600	0.496600	0.606600
C1551	C155	0.822100	0.540600	0.868000
C1561	C156	0.182500	0.471800	0.652000
C1571	C157	0.884400	0.537900	0.805700
C1581	C158	0.016600	0.498900	0.667700
C1591	C159	0.121600	0.472700	0.715500
C1601	C160	0.983700	0.447800	0.841600
N171	N17	0.647580	0.515470	0.098170
N181	N18	0.336260	0.501120	0.416160
N191	N19	0.761220	0.984530	0.401830
N201	N20	0.753540	0.998880	0.083840
N211	N21	0.738780	0.598170	0.015470
N221	N22	0.746460	0.916160	0.001120
N231	N23	0.852420	0.901830	0.484530
N241	N24	0.163740	0.583840	0.498880
N251	N25	0.336950	0.401830	0.515470
N261	N26	0.662620	0.083840	0.501120
N271	N27	0.754250	0.098170	0.984530
N281	N28	0.747580	0.416160	0.998880
N291	N29	0.745750	0.015470	0.901830
N301	N30	0.752420	0.001120	0.583840
N311	N31	0.163050	0.484530	0.598170
N321	N32	0.837380	0.498880	0.916160
