data_UHADAI_freeONLY_PM
_symmetry_space_group_name_H-M	'P1'
_cell_length_a	9.675000
_cell_length_b	17.489000
_cell_length_c	14.354000
_cell_angle_alpha	75.416000
_cell_angle_beta	90.000000
_cell_angle_gamma	90.000000
_symmetry_Int_Tables_number 1

loop_
_symmetry_equiv_pos_as_xyz
'x,y,z'

loop_
_atom_site_label
_atom_site_type_symbol
_atom_site_fract_x
_atom_site_fract_y
_atom_site_fract_z
Cd11	Cd1	0.454970	0.678530	0.451420
Cd21	Cd2	0.962280	0.832390	0.547990
Cd31	Cd3	0.954970	0.321470	0.048580
Cd41	Cd4	0.462280	0.167610	0.952010
Cd51	Cd5	0.545030	0.321470	0.548580
Cd61	Cd6	0.037720	0.167610	0.452010
Cd71	Cd7	0.045030	0.678530	0.951420
Cd81	Cd8	0.537720	0.832390	0.047990
C11	C1	0.244100	0.721600	0.626900
C21	C2	0.147400	0.756800	0.398100
C31	C3	0.345800	0.482500	0.448900
C41	C4	0.630300	0.700300	0.242100
C51	C5	0.653800	0.842600	0.446200
C61	C6	0.924300	0.003600	0.603800
C71	C7	0.744100	0.278400	0.873100
C81	C8	0.647400	0.243200	0.101900
C91	C9	0.845800	0.517500	0.051100
C101	C10	0.130300	0.299700	0.257900
C111	C11	0.153800	0.157400	0.053800
C121	C12	0.424300	0.996400	0.896200
C131	C13	0.755900	0.278400	0.373100
C141	C14	0.852600	0.243200	0.601900
C151	C15	0.654200	0.517500	0.551100
C161	C16	0.369700	0.299700	0.757900
C171	C17	0.346200	0.157400	0.553800
C181	C18	0.075700	0.996400	0.396200
C191	C19	0.255900	0.721600	0.126900
C201	C20	0.352600	0.756800	0.898100
C211	C21	0.154200	0.482500	0.948900
C221	C22	0.869700	0.700300	0.742100
C231	C23	0.846200	0.842600	0.946200
C241	C24	0.575700	0.003600	0.103800
S11	S1	0.379410	0.663770	0.638750
S21	S2	0.977870	0.758080	0.403450
S31	S3	0.268300	0.568220	0.409840
S41	S4	0.721180	0.724780	0.141960
S51	S5	0.751150	0.919530	0.444690
S61	S6	0.957250	0.919020	0.680310
S71	S7	0.879410	0.336230	0.861250
S81	S8	0.477870	0.241920	0.096550
S91	S9	0.768300	0.431780	0.090160
S101	S10	0.221180	0.275220	0.358040
S111	S11	0.251150	0.080470	0.055310
S121	S12	0.457250	0.080980	0.819690
S131	S13	0.620590	0.336230	0.361250
S141	S14	0.022130	0.241920	0.596550
S151	S15	0.731700	0.431780	0.590160
S161	S16	0.278820	0.275220	0.858040
S171	S17	0.248850	0.080470	0.555310
S181	S18	0.042750	0.080980	0.319690
S191	S19	0.120590	0.663770	0.138750
S201	S20	0.522130	0.758080	0.903450
S211	S21	0.231700	0.568220	0.909840
S221	S22	0.778820	0.724780	0.641960
S231	S23	0.748850	0.919530	0.944690
S241	S24	0.542750	0.919020	0.180310
N11	N1	0.150000	0.762300	0.618200
N21	N2	0.267900	0.756300	0.393200
N31	N3	0.396500	0.421900	0.476400
N41	N4	0.568700	0.681100	0.312200
N51	N5	0.583700	0.788800	0.450400
N61	N6	0.899600	0.063100	0.549900
N71	N7	0.650000	0.237700	0.881800
N81	N8	0.767900	0.243700	0.106800
N91	N9	0.896500	0.578100	0.023600
N101	N10	0.068700	0.318900	0.187800
N111	N11	0.083700	0.211200	0.049600
N121	N12	0.399600	0.936900	0.950100
N131	N13	0.850000	0.237700	0.381800
N141	N14	0.732100	0.243700	0.606800
N151	N15	0.603500	0.578100	0.523600
N161	N16	0.431300	0.318900	0.687800
N171	N17	0.416300	0.211200	0.549600
N181	N18	0.100400	0.936900	0.450100
N191	N19	0.350000	0.762300	0.118200
N201	N20	0.232100	0.756300	0.893200
N211	N21	0.103500	0.421900	0.976400
N221	N22	0.931300	0.681100	0.812200
N231	N23	0.916300	0.788800	0.950400
N241	N24	0.600400	0.063100	0.049900
