data_UJEDIX_freeONLY_PM
_symmetry_space_group_name_H-M	'P1'
_cell_length_a	13.545100
_cell_length_b	13.545100
_cell_length_c	23.039400
_cell_angle_alpha	90.000000
_cell_angle_beta	90.000000
_cell_angle_gamma	120.000000
_symmetry_Int_Tables_number 1

loop_
_symmetry_equiv_pos_as_xyz
'x,y,z'

loop_
_atom_site_label
_atom_site_type_symbol
_atom_site_fract_x
_atom_site_fract_y
_atom_site_fract_z
Yb11	Yb1	0.602580	0.000000	0.000000
Yb21	Yb2	0.397420	0.397420	0.666670
Yb31	Yb3	0.000000	0.602580	0.333330
Co11	Co1	0.231850	0.900740	0.793040
Co21	Co2	0.668890	0.768150	0.459710
Co31	Co3	0.099260	0.331110	0.126370
Co41	Co4	0.331110	0.099260	0.206960
Co51	Co5	0.900740	0.231850	0.540290
Co61	Co6	0.768150	0.668890	0.873630
Co71	Co7	0.000000	0.796530	0.833330
Co81	Co8	0.796530	0.000000	0.500000
Co91	Co9	0.203470	0.203470	0.166670
H11	H1	0.382600	0.939900	0.863100
H21	H2	0.428300	0.035600	0.821100
H31	H3	0.316800	0.088600	0.749300
H41	H4	0.361700	0.023300	0.718400
H51	H5	0.261500	0.782200	0.720200
H61	H6	0.370400	0.848900	0.752600
H71	H7	0.218900	0.062000	0.933300
H81	H8	0.205800	0.937400	0.929200
H91	H9	0.376200	0.138200	0.869700
H101	H10	0.044300	0.926600	0.670900
H111	H11	0.086700	0.997000	0.730600
H121	H12	0.226000	0.950000	0.654400
H131	H13	0.122600	0.582200	0.837800
H141	H14	0.089100	0.628200	0.781000
H151	H15	0.316200	0.729200	0.826900
H161	H16	0.557300	0.617400	0.529770
H171	H17	0.607300	0.571700	0.487770
H181	H18	0.771800	0.683200	0.415970
H191	H19	0.661600	0.638300	0.385070
H201	H20	0.520700	0.738500	0.386870
H211	H21	0.478500	0.629600	0.419270
H221	H22	0.843100	0.781100	0.599970
H231	H23	0.731600	0.794200	0.595870
H241	H24	0.762000	0.623800	0.536370
H251	H25	0.882300	0.955700	0.337570
H261	H26	0.910300	0.913300	0.397270
H271	H27	0.724000	0.774000	0.321070
H281	H28	0.459600	0.877400	0.504470
H291	H29	0.539100	0.910900	0.447670
H301	H30	0.413000	0.683800	0.493570
H311	H31	0.060100	0.442700	0.196430
H321	H32	0.964400	0.392700	0.154430
H331	H33	0.911400	0.228200	0.082630
H341	H34	0.976700	0.338400	0.051730
H351	H35	0.217800	0.479300	0.053530
H361	H36	0.151100	0.521500	0.085930
H371	H37	0.938000	0.156900	0.266630
H381	H38	0.062600	0.268400	0.262530
H391	H39	0.861800	0.238000	0.203030
H401	H40	0.073400	0.117700	0.004230
H411	H41	0.003000	0.089700	0.063930
H421	H42	0.050000	0.276000	0.987730
H431	H43	0.417800	0.540400	0.171130
H441	H44	0.371800	0.460900	0.114330
H451	H45	0.270800	0.587000	0.160230
H461	H46	0.442700	0.060100	0.136900
H471	H47	0.392700	0.964400	0.178900
H481	H48	0.228200	0.911400	0.250700
H491	H49	0.338400	0.976700	0.281600
H501	H50	0.479300	0.217800	0.279800
H511	H51	0.521500	0.151100	0.247400
H521	H52	0.156900	0.938000	0.066700
H531	H53	0.268400	0.062600	0.070800
H541	H54	0.238000	0.861800	0.130300
H551	H55	0.117700	0.073400	0.329100
H561	H56	0.089700	0.003000	0.269400
H571	H57	0.276000	0.050000	0.345600
H581	H58	0.540400	0.417800	0.162200
H591	H59	0.460900	0.371800	0.219000
H601	H60	0.587000	0.270800	0.173100
H611	H61	0.939900	0.382600	0.470230
H621	H62	0.035600	0.428300	0.512230
H631	H63	0.088600	0.316800	0.584030
H641	H64	0.023300	0.361700	0.614930
H651	H65	0.782200	0.261500	0.613130
H661	H66	0.848900	0.370400	0.580730
H671	H67	0.062000	0.218900	0.400030
H681	H68	0.937400	0.205800	0.404130
H691	H69	0.138200	0.376200	0.463630
H701	H70	0.926600	0.044300	0.662430
H711	H71	0.997000	0.086700	0.602730
H721	H72	0.950000	0.226000	0.678930
H731	H73	0.582200	0.122600	0.495530
H741	H74	0.628200	0.089100	0.552330
H751	H75	0.729200	0.316200	0.506430
H761	H76	0.617400	0.557300	0.803570
H771	H77	0.571700	0.607300	0.845570
H781	H78	0.683200	0.771800	0.917370
H791	H79	0.638300	0.661600	0.948270
H801	H80	0.738500	0.520700	0.946470
H811	H81	0.629600	0.478500	0.914070
H821	H82	0.781100	0.843100	0.733370
H831	H83	0.794200	0.731600	0.737470
H841	H84	0.623800	0.762000	0.796970
H851	H85	0.955700	0.882300	0.995770
H861	H86	0.913300	0.910300	0.936070
H871	H87	0.774000	0.724000	0.012270
H881	H88	0.877400	0.459600	0.828870
H891	H89	0.910900	0.539100	0.885670
H901	H90	0.683800	0.413000	0.839770
C11	C1	0.229100	0.009000	0.907700
C21	C2	0.353600	0.062900	0.888000
C31	C3	0.432300	0.083700	0.940800
C41	C4	0.097200	0.945500	0.704000
C51	C5	0.219500	0.002300	0.682800
C61	C6	0.253300	0.114200	0.652000
C71	C7	0.143000	0.650500	0.813900
C81	C8	0.264700	0.703500	0.792400
C91	C9	0.279800	0.611800	0.760400
C101	C10	0.779900	0.770900	0.574370
C111	C11	0.709300	0.646400	0.554670
C121	C12	0.651400	0.567700	0.607470
C131	C13	0.848300	0.902800	0.370670
C141	C14	0.782800	0.780500	0.349470
C151	C15	0.860900	0.746700	0.318670
C161	C16	0.507500	0.857000	0.480570
C171	C17	0.438800	0.735300	0.459070
C181	C18	0.332000	0.720200	0.427070
C191	C19	0.991000	0.220100	0.241030
C201	C20	0.937100	0.290700	0.221330
C211	C21	0.916300	0.348600	0.274130
C221	C22	0.054500	0.151700	0.037330
C231	C23	0.997700	0.217200	0.016130
C241	C24	0.885800	0.139100	0.985330
C251	C25	0.349500	0.492500	0.147230
C261	C26	0.296500	0.561200	0.125730
C271	C27	0.388200	0.668000	0.093730
C281	C28	0.220100	0.991000	0.092300
C291	C29	0.290700	0.937100	0.112000
C301	C30	0.348600	0.916300	0.059200
C311	C31	0.151700	0.054500	0.296000
C321	C32	0.217200	0.997700	0.317200
C331	C33	0.139100	0.885800	0.348000
C341	C34	0.492500	0.349500	0.186100
C351	C35	0.561200	0.296500	0.207600
C361	C36	0.668000	0.388200	0.239600
C371	C37	0.009000	0.229100	0.425630
C381	C38	0.062900	0.353600	0.445330
C391	C39	0.083700	0.432300	0.392530
C401	C40	0.945500	0.097200	0.629330
C411	C41	0.002300	0.219500	0.650530
C421	C42	0.114200	0.253300	0.681330
C431	C43	0.650500	0.143000	0.519430
C441	C44	0.703500	0.264700	0.540930
C451	C45	0.611800	0.279800	0.572930
C461	C46	0.770900	0.779900	0.758970
C471	C47	0.646400	0.709300	0.778670
C481	C48	0.567700	0.651400	0.725870
C491	C49	0.902800	0.848300	0.962670
C501	C50	0.780500	0.782800	0.983870
C511	C51	0.746700	0.860900	0.014670
C521	C52	0.857000	0.507500	0.852770
C531	C53	0.735300	0.438800	0.874270
C541	C54	0.720200	0.332000	0.906270
S11	S1	0.144240	0.980190	0.841420
S21	S2	0.069540	0.815990	0.742070
S31	S3	0.139880	0.760400	0.856880
S41	S4	0.835950	0.855760	0.508090
S51	S5	0.746450	0.930460	0.408740
S61	S6	0.620520	0.860120	0.523550
S71	S7	0.019810	0.164050	0.174750
S81	S8	0.184010	0.253550	0.075400
S91	S9	0.239600	0.379480	0.190210
S101	S10	0.164050	0.019810	0.158580
S111	S11	0.253550	0.184010	0.257930
S121	S12	0.379480	0.239600	0.143120
S131	S13	0.980190	0.144240	0.491910
S141	S14	0.815990	0.069540	0.591260
S151	S15	0.760400	0.139880	0.476450
S161	S16	0.855760	0.835950	0.825250
S171	S17	0.930460	0.746450	0.924600
S181	S18	0.860120	0.620520	0.809790
N11	N1	0.366600	0.990000	0.844100
N21	N2	0.296300	0.019400	0.732500
N31	N3	0.292500	0.805200	0.756600
N41	N4	0.623400	0.633400	0.510770
N51	N5	0.723100	0.703700	0.399170
N61	N6	0.512700	0.707500	0.423270
N71	N7	0.010000	0.376600	0.177430
N81	N8	0.980600	0.276900	0.065830
N91	N9	0.194800	0.487300	0.089930
N101	N10	0.376600	0.010000	0.155900
N111	N11	0.276900	0.980600	0.267500
N121	N12	0.487300	0.194800	0.243400
N131	N13	0.990000	0.366600	0.489230
N141	N14	0.019400	0.296300	0.600830
N151	N15	0.805200	0.292500	0.576730
N161	N16	0.633400	0.623400	0.822570
N171	N17	0.703700	0.723100	0.934170
N181	N18	0.707500	0.512700	0.910070
O11	O1	0.483500	0.028900	0.940980
O21	O2	0.435900	0.150700	0.979150
O31	O3	0.322600	0.203300	0.678830
O41	O4	0.211700	0.110500	0.603080
O51	O5	0.323100	0.563400	0.788300
O61	O6	0.241800	0.589000	0.709600
O71	O7	0.678700	0.047700	0.905370
O81	O8	0.454900	0.820400	0.970410
O91	O9	0.545400	0.516500	0.607650
O101	O10	0.714800	0.564100	0.645820
O111	O11	0.880700	0.677400	0.345500
O121	O12	0.898800	0.788300	0.269750
O131	O13	0.240300	0.676900	0.454970
O141	O14	0.347200	0.758200	0.376270
O151	O15	0.369000	0.321300	0.572040
O161	O16	0.365500	0.545100	0.637080
O171	O17	0.971100	0.454600	0.274310
O181	O18	0.849300	0.285200	0.312480
O191	O19	0.796700	0.119300	0.012160
O201	O20	0.889500	0.101200	0.936410
O211	O21	0.436600	0.759700	0.121630
O221	O22	0.411000	0.652800	0.042930
O231	O23	0.952300	0.631000	0.238700
O241	O24	0.179600	0.634500	0.303740
O251	O25	0.454600	0.971100	0.059020
O261	O26	0.285200	0.849300	0.020850
O271	O27	0.119300	0.796700	0.321170
O281	O28	0.101200	0.889500	0.396920
O291	O29	0.759700	0.436600	0.211700
O301	O30	0.652800	0.411000	0.290400
O311	O31	0.631000	0.952300	0.094630
O321	O32	0.634500	0.179600	0.029590
O331	O33	0.028900	0.483500	0.392350
O341	O34	0.150700	0.435900	0.354180
O351	O35	0.203300	0.322600	0.654500
O361	O36	0.110500	0.211700	0.730250
O371	O37	0.563400	0.323100	0.545030
O381	O38	0.589000	0.241800	0.623730
O391	O39	0.047700	0.678700	0.427960
O401	O40	0.820400	0.454900	0.362920
O411	O41	0.516500	0.545400	0.725690
O421	O42	0.564100	0.714800	0.687520
O431	O43	0.677400	0.880700	0.987840
O441	O44	0.788300	0.898800	0.063590
O451	O45	0.676900	0.240300	0.878370
O461	O46	0.758200	0.347200	0.957070
O471	O47	0.321300	0.369000	0.761300
O481	O48	0.545100	0.365500	0.696260
