data_UJIZET_freeONLY_PM
_symmetry_space_group_name_H-M	'P1'
_cell_length_a	8.725310
_cell_length_b	12.780900
_cell_length_c	19.474600
_cell_angle_alpha	90.000000
_cell_angle_beta	90.000000
_cell_angle_gamma	109.959000
_symmetry_Int_Tables_number 1

loop_
_symmetry_equiv_pos_as_xyz
'x,y,z'

loop_
_atom_site_label
_atom_site_type_symbol
_atom_site_fract_x
_atom_site_fract_y
_atom_site_fract_z
Nd11	Nd1	0.258070	0.516140	0.500000
Nd21	Nd2	0.741930	0.483860	0.000000
Nd31	Nd3	0.741930	0.483860	0.500000
Nd41	Nd4	0.258070	0.516140	0.000000
H11	H1	0.239000	0.903200	0.541600
H21	H2	0.662800	0.666000	0.686800
H31	H3	0.660200	0.540400	0.684000
H41	H4	0.180900	0.291200	0.574600
H51	H5	0.337000	0.321000	0.553200
H61	H6	0.761000	0.096800	0.041600
H71	H7	0.337200	0.334000	0.186800
H81	H8	0.339800	0.459600	0.184000
H91	H9	0.819100	0.708800	0.074600
H101	H10	0.663000	0.679000	0.053200
H111	H11	0.335800	0.096800	0.958400
H121	H12	0.996800	0.334000	0.813200
H131	H13	0.119800	0.459600	0.816000
H141	H14	0.889700	0.708800	0.925400
H151	H15	0.016000	0.679000	0.946800
H161	H16	0.664200	0.903200	0.458400
H171	H17	0.003200	0.666000	0.313200
H181	H18	0.880200	0.540400	0.316000
H191	H19	0.110300	0.291200	0.425400
H201	H20	0.984000	0.321000	0.446800
H211	H21	0.761000	0.096800	0.458400
H221	H22	0.337200	0.334000	0.313200
H231	H23	0.339800	0.459600	0.316000
H241	H24	0.819100	0.708800	0.425400
H251	H25	0.663000	0.679000	0.446800
H261	H26	0.239000	0.903200	0.958400
H271	H27	0.662800	0.666000	0.813200
H281	H28	0.660200	0.540400	0.816000
H291	H29	0.180900	0.291200	0.925400
H301	H30	0.337000	0.321000	0.946800
H311	H31	0.664200	0.903200	0.041600
H321	H32	0.003200	0.666000	0.186800
H331	H33	0.880200	0.540400	0.184000
H341	H34	0.110300	0.291200	0.074600
H351	H35	0.984000	0.321000	0.053200
H361	H36	0.335800	0.096800	0.541600
H371	H37	0.996800	0.334000	0.686800
H381	H38	0.119800	0.459600	0.684000
H391	H39	0.889700	0.708800	0.574600
H401	H40	0.016000	0.679000	0.553200
H411	H41	0.412800	0.604200	0.750000
H421	H42	0.420300	0.481000	0.750000
H431	H43	0.587200	0.395800	0.250000
H441	H44	0.579700	0.519000	0.250000
H451	H45	0.808600	0.395800	0.750000
H461	H46	0.939300	0.519000	0.750000
H471	H47	0.191400	0.604200	0.250000
H481	H48	0.060700	0.481000	0.250000
C11	C1	0.345310	0.942420	0.524660
C21	C2	0.492280	0.568760	0.619740
C31	C3	0.590260	0.587320	0.685080
C41	C4	0.654690	0.057580	0.024660
C51	C5	0.507720	0.431240	0.119740
C61	C6	0.409740	0.412680	0.185080
C71	C7	0.402890	0.057580	0.975340
C81	C8	0.923520	0.431240	0.880260
C91	C9	0.002940	0.412680	0.814920
C101	C10	0.597110	0.942420	0.475340
C111	C11	0.076480	0.568760	0.380260
C121	C12	0.997060	0.587320	0.314920
C131	C13	0.654690	0.057580	0.475340
C141	C14	0.507720	0.431240	0.380260
C151	C15	0.409740	0.412680	0.314920
C161	C16	0.345310	0.942420	0.975340
C171	C17	0.492280	0.568760	0.880260
C181	C18	0.590260	0.587320	0.814920
C191	C19	0.597110	0.942420	0.024660
C201	C20	0.076480	0.568760	0.119740
C211	C21	0.997060	0.587320	0.185080
C221	C22	0.402890	0.057580	0.524660
C231	C23	0.923520	0.431240	0.619740
C241	C24	0.002940	0.412680	0.685080
C251	C25	0.379580	0.759160	0.500000
C261	C26	0.441750	0.883500	0.500000
C271	C27	0.620420	0.240840	0.000000
C281	C28	0.558250	0.116500	0.000000
C291	C29	0.620420	0.240840	0.500000
C301	C30	0.558250	0.116500	0.500000
C311	C31	0.379580	0.759160	0.000000
C321	C32	0.441750	0.883500	0.000000
C331	C33	0.487640	0.560880	0.750000
C341	C34	0.512360	0.439120	0.250000
C351	C35	0.926760	0.439120	0.750000
C361	C36	0.073240	0.560880	0.250000
O11	O1	0.235090	0.706980	0.519540
O21	O2	0.355860	0.582720	0.618860
O31	O3	0.546540	0.539080	0.565430
O41	O4	0.262830	0.346060	0.563790
O51	O5	0.764910	0.293020	0.019540
O61	O6	0.644140	0.417280	0.118860
O71	O7	0.453460	0.460920	0.065430
O81	O8	0.737170	0.653940	0.063790
O91	O9	0.528110	0.293020	0.980460
O101	O10	0.773140	0.417280	0.881140
O111	O11	0.007460	0.460920	0.934570
O121	O12	0.916770	0.653940	0.936210
O131	O13	0.471890	0.706980	0.480460
O141	O14	0.226860	0.582720	0.381140
O151	O15	0.992540	0.539080	0.434570
O161	O16	0.083230	0.346060	0.436210
O171	O17	0.764910	0.293020	0.480460
O181	O18	0.644140	0.417280	0.381140
O191	O19	0.453460	0.460920	0.434570
O201	O20	0.737170	0.653940	0.436210
O211	O21	0.235090	0.706980	0.980460
O221	O22	0.355860	0.582720	0.881140
O231	O23	0.546540	0.539080	0.934570
O241	O24	0.262830	0.346060	0.936210
O251	O25	0.471890	0.706980	0.019540
O261	O26	0.226860	0.582720	0.118860
O271	O27	0.992540	0.539080	0.065430
O281	O28	0.083230	0.346060	0.063790
O291	O29	0.528110	0.293020	0.519540
O301	O30	0.773140	0.417280	0.618860
O311	O31	0.007460	0.460920	0.565430
O321	O32	0.916770	0.653940	0.563790
