data_UJOWEW_freeONLY_PM
_symmetry_space_group_name_H-M	'P1'
_cell_length_a	12.547700
_cell_length_b	15.389300
_cell_length_c	15.389300
_cell_angle_alpha	80.433000
_cell_angle_beta	65.941000
_cell_angle_gamma	65.941000
_symmetry_Int_Tables_number 1

loop_
_symmetry_equiv_pos_as_xyz
'x,y,z'

loop_
_atom_site_label
_atom_site_type_symbol
_atom_site_fract_x
_atom_site_fract_y
_atom_site_fract_z
Cu11	Cu1	0.500000	0.000000	0.000000
Cu21	Cu2	0.000000	0.500000	0.500000
Cu31	Cu3	0.500000	0.000000	0.500000
Cu41	Cu4	0.500000	0.500000	0.000000
H11	H1	0.566500	0.046400	0.786800
H21	H2	0.321400	0.207600	0.012400
H31	H3	0.273800	0.338500	0.916100
H41	H4	0.371200	0.322300	0.752300
H51	H5	0.520700	0.172200	0.687000
H61	H6	0.899700	0.453600	0.713200
H71	H7	0.041400	0.292400	0.487600
H81	H8	0.028400	0.161500	0.583900
H91	H9	0.945800	0.177700	0.747700
H101	H10	0.879900	0.327800	0.813000
H111	H11	0.353300	0.213200	0.546400
H121	H12	0.333800	0.987600	0.707600
H131	H13	0.189900	0.083900	0.838500
H141	H14	0.123500	0.247700	0.822300
H151	H15	0.207700	0.313000	0.672200
H161	H16	0.612900	0.286800	0.953600
H171	H17	0.529000	0.512400	0.792400
H181	H18	0.612300	0.416100	0.661500
H191	H19	0.693500	0.252300	0.677700
H201	H20	0.692900	0.187000	0.827800
H211	H21	0.433500	0.953600	0.213200
H221	H22	0.678600	0.792400	0.987600
H231	H23	0.726200	0.661500	0.083900
H241	H24	0.628800	0.677700	0.247700
H251	H25	0.479300	0.827800	0.313000
H261	H26	0.100300	0.546400	0.286800
H271	H27	0.958600	0.707600	0.512400
H281	H28	0.971600	0.838500	0.416100
H291	H29	0.054200	0.822300	0.252300
H301	H30	0.120100	0.672200	0.187000
H311	H31	0.646700	0.786800	0.453600
H321	H32	0.666200	0.012400	0.292400
H331	H33	0.810100	0.916100	0.161500
H341	H34	0.876500	0.752300	0.177700
H351	H35	0.792300	0.687000	0.327800
H361	H36	0.387100	0.713200	0.046400
H371	H37	0.471000	0.487600	0.207600
H381	H38	0.387700	0.583900	0.338500
H391	H39	0.306500	0.747700	0.322300
H401	H40	0.307100	0.813000	0.172200
W11	W1	0.625000	0.750000	0.750000
W21	W2	0.375000	0.250000	0.250000
C11	C1	0.567600	0.855500	0.850100
C21	C2	0.505700	0.106400	0.814000
C31	C3	0.762000	0.690000	0.818000
C41	C4	0.363500	0.200300	0.945300
C51	C5	0.333900	0.278600	0.888200
C61	C6	0.391000	0.269300	0.792500
C71	C7	0.479300	0.180700	0.754100
C81	C8	0.773200	0.644500	0.649900
C91	C9	0.926100	0.393600	0.686000
C101	C10	0.770000	0.810000	0.682000
C111	C11	0.009100	0.299700	0.554700
C121	C12	0.000700	0.221400	0.611800
C131	C13	0.952800	0.230700	0.707500
C141	C14	0.914100	0.319300	0.745900
C151	C15	0.417700	0.149900	0.355500
C161	C16	0.319700	0.186000	0.606400
C171	C17	0.580000	0.182000	0.190000
C181	C18	0.308800	0.054700	0.700300
C191	C19	0.222100	0.111800	0.778600
C201	C20	0.183500	0.207500	0.769300
C211	C21	0.233400	0.245900	0.680700
C221	C22	0.423100	0.350100	0.144500
C231	C23	0.612100	0.314000	0.893600
C241	C24	0.452000	0.318000	0.310000
C251	C25	0.563800	0.445300	0.799700
C261	C26	0.612500	0.388200	0.721400
C271	C27	0.660300	0.292500	0.730700
C281	C28	0.660000	0.254100	0.819300
C291	C29	0.432400	0.144500	0.149900
C301	C30	0.494300	0.893600	0.186000
C311	C31	0.238000	0.310000	0.182000
C321	C32	0.636500	0.799700	0.054700
C331	C33	0.666100	0.721400	0.111800
C341	C34	0.609000	0.730700	0.207500
C351	C35	0.520700	0.819300	0.245900
C361	C36	0.226800	0.355500	0.350100
C371	C37	0.073900	0.606400	0.314000
C381	C38	0.230000	0.190000	0.318000
C391	C39	0.990900	0.700300	0.445300
C401	C40	0.999300	0.778600	0.388200
C411	C41	0.047200	0.769300	0.292500
C421	C42	0.085900	0.680700	0.254100
C431	C43	0.582300	0.850100	0.644500
C441	C44	0.680300	0.814000	0.393600
C451	C45	0.420000	0.818000	0.810000
C461	C46	0.691200	0.945300	0.299700
C471	C47	0.777900	0.888200	0.221400
C481	C48	0.816500	0.792500	0.230700
C491	C49	0.766600	0.754100	0.319300
C501	C50	0.576900	0.649900	0.855500
C511	C51	0.387900	0.686000	0.106400
C521	C52	0.548000	0.682000	0.690000
C531	C53	0.436200	0.554700	0.200300
C541	C54	0.387500	0.611800	0.278600
C551	C55	0.339700	0.707500	0.269300
C561	C56	0.340000	0.745900	0.180700
N11	N1	0.449900	0.113500	0.909700
N21	N2	0.537900	0.911100	0.905500
N31	N3	0.834100	0.660500	0.855300
N41	N4	0.973100	0.386500	0.590300
N51	N5	0.854500	0.588900	0.594500
N61	N6	0.849900	0.839500	0.644700
N71	N7	0.359600	0.090300	0.613500
N81	N8	0.443400	0.094500	0.411100
N91	N9	0.689400	0.144700	0.160500
N101	N10	0.563400	0.409700	0.886500
N111	N11	0.449000	0.405500	0.088900
N121	N12	0.494600	0.355300	0.339500
N131	N13	0.550100	0.886500	0.090300
N141	N14	0.462100	0.088900	0.094500
N151	N15	0.165900	0.339500	0.144700
N161	N16	0.026900	0.613500	0.409700
N171	N17	0.145500	0.411100	0.405500
N181	N18	0.150100	0.160500	0.355300
N191	N19	0.640400	0.909700	0.386500
N201	N20	0.556600	0.905500	0.588900
N211	N21	0.310600	0.855300	0.839500
N221	N22	0.436600	0.590300	0.113500
N231	N23	0.551000	0.594500	0.911100
N241	N24	0.505400	0.644700	0.660500
