data_UKUBIM_freeONLY_PM
_symmetry_space_group_name_H-M	'P1'
_cell_length_a	12.273100
_cell_length_b	12.273100
_cell_length_c	25.135000
_cell_angle_alpha	90.000000
_cell_angle_beta	90.000000
_cell_angle_gamma	90.000000
_symmetry_Int_Tables_number 1

loop_
_symmetry_equiv_pos_as_xyz
'x,y,z'

loop_
_atom_site_label
_atom_site_type_symbol
_atom_site_fract_x
_atom_site_fract_y
_atom_site_fract_z
Cd11	Cd1	0.750000	0.750000	0.923220
Cd21	Cd2	0.250000	0.250000	0.423220
H11	H1	0.919000	0.573000	0.869400
H21	H2	0.935200	0.435000	0.808100
H31	H3	0.633500	0.504600	0.759000
H41	H4	0.626000	0.637900	0.822900
H51	H5	0.647700	0.324700	0.727800
H61	H6	0.693200	0.407900	0.685600
H71	H7	0.601700	0.173500	0.660900
H81	H8	0.681500	0.157200	0.612400
H91	H9	0.419400	0.113700	0.497200
H101	H10	0.540300	0.121300	0.567300
H111	H11	0.499800	0.443600	0.566000
H121	H12	0.378300	0.423000	0.497700
H131	H13	0.508700	0.770800	0.947500
H141	H14	0.581000	0.927000	0.869400
H151	H15	0.564800	0.065000	0.808100
H161	H16	0.866500	0.995400	0.759000
H171	H17	0.874000	0.862100	0.822900
H181	H18	0.852300	0.175300	0.727800
H191	H19	0.806800	0.092100	0.685600
H201	H20	0.898300	0.326500	0.660900
H211	H21	0.818500	0.342800	0.612400
H221	H22	0.080600	0.386300	0.497200
H231	H23	0.959700	0.378700	0.567300
H241	H24	0.000200	0.056400	0.566000
H251	H25	0.121700	0.077000	0.497700
H261	H26	0.991300	0.729200	0.947500
H271	H27	0.427000	0.419000	0.369400
H281	H28	0.565000	0.435200	0.308100
H291	H29	0.495400	0.133500	0.259000
H301	H30	0.362100	0.126000	0.322900
H311	H31	0.675300	0.147700	0.227800
H321	H32	0.592100	0.193200	0.185600
H331	H33	0.826500	0.101700	0.160900
H341	H34	0.842800	0.181500	0.112400
H351	H35	0.886300	0.919400	0.997200
H361	H36	0.878700	0.040300	0.067300
H371	H37	0.556400	0.999800	0.066000
H381	H38	0.577000	0.878300	0.997700
H391	H39	0.229200	0.008700	0.447500
H401	H40	0.073000	0.081000	0.369400
H411	H41	0.935000	0.064800	0.308100
H421	H42	0.004600	0.366500	0.259000
H431	H43	0.137900	0.374000	0.322900
H441	H44	0.824700	0.352300	0.227800
H451	H45	0.907900	0.306800	0.185600
H461	H46	0.673500	0.398300	0.160900
H471	H47	0.657200	0.318500	0.112400
H481	H48	0.613700	0.580600	0.997200
H491	H49	0.621300	0.459700	0.067300
H501	H50	0.943600	0.500200	0.066000
H511	H51	0.923000	0.621700	0.997700
H521	H52	0.270800	0.491300	0.447500
C11	C1	0.859900	0.557900	0.847540
C21	C2	0.871100	0.475100	0.810300
C31	C3	0.785200	0.453900	0.776810
C41	C4	0.692600	0.516000	0.781400
C51	C5	0.689000	0.596200	0.820300
C61	C6	0.711700	0.345600	0.707530
C71	C7	0.655700	0.209100	0.638680
C81	C8	0.435600	0.181600	0.511600
C91	C9	0.510300	0.184700	0.553400
C101	C10	0.537300	0.283900	0.572720
C111	C11	0.485400	0.374600	0.552400
C121	C12	0.411800	0.361200	0.511500
C131	C13	0.640100	0.942100	0.847540
C141	C14	0.628900	0.024900	0.810300
C151	C15	0.714800	0.046100	0.776810
C161	C16	0.807400	0.984000	0.781400
C171	C17	0.811000	0.903800	0.820300
C181	C18	0.788300	0.154400	0.707530
C191	C19	0.844300	0.290900	0.638680
C201	C20	0.064400	0.318400	0.511600
C211	C21	0.989700	0.315300	0.553400
C221	C22	0.962700	0.216100	0.572720
C231	C23	0.014600	0.125400	0.552400
C241	C24	0.088200	0.138800	0.511500
C251	C25	0.442100	0.359900	0.347540
C261	C26	0.524900	0.371100	0.310300
C271	C27	0.546100	0.285200	0.276810
C281	C28	0.484000	0.192600	0.281400
C291	C29	0.403800	0.189000	0.320300
C301	C30	0.654400	0.211700	0.207530
C311	C31	0.790900	0.155700	0.138680
C321	C32	0.818400	0.935600	0.011600
C331	C33	0.815300	0.010300	0.053400
C341	C34	0.716100	0.037300	0.072720
C351	C35	0.625400	0.985400	0.052400
C361	C36	0.638800	0.911800	0.011500
C371	C37	0.057900	0.140100	0.347540
C381	C38	0.975100	0.128900	0.310300
C391	C39	0.953900	0.214800	0.276810
C401	C40	0.016000	0.307400	0.281400
C411	C41	0.096200	0.311000	0.320300
C421	C42	0.845600	0.288300	0.207530
C431	C43	0.709100	0.344300	0.138680
C441	C44	0.681600	0.564400	0.011600
C451	C45	0.684700	0.489700	0.053400
C461	C46	0.783900	0.462700	0.072720
C471	C47	0.874600	0.514600	0.052400
C481	C48	0.861200	0.588200	0.011500
C491	C49	0.750000	0.250000	0.672500
C501	C50	0.750000	0.250000	0.172500
S11	S1	0.541780	0.723860	0.921540
S21	S2	0.958220	0.776140	0.921540
S31	S3	0.276140	0.041780	0.421540
S41	S4	0.223860	0.458220	0.421540
N11	N1	0.769800	0.617200	0.853940
N21	N2	0.386200	0.266800	0.490860
N31	N3	0.730200	0.882800	0.853940
N41	N4	0.113800	0.233200	0.490860
N51	N5	0.382800	0.269800	0.353940
N61	N6	0.733200	0.886200	0.990860
N71	N7	0.117200	0.230200	0.353940
N81	N8	0.766800	0.613800	0.990860
O11	O1	0.799300	0.372300	0.742580
O21	O2	0.609200	0.302500	0.612900
O31	O3	0.700700	0.127700	0.742580
O41	O4	0.890800	0.197500	0.612900
O51	O5	0.627700	0.299300	0.242580
O61	O6	0.697500	0.109200	0.112900
O71	O7	0.872300	0.200700	0.242580
O81	O8	0.802500	0.390800	0.112900
Cd31	Cd3	0.250000	0.250000	0.076780
Cd41	Cd4	0.750000	0.750000	0.576780
H531	H53	0.081000	0.427000	0.130600
H541	H54	0.064800	0.565000	0.191900
H551	H55	0.366500	0.495400	0.241000
H561	H56	0.374000	0.362100	0.177100
H571	H57	0.352300	0.675300	0.272200
H581	H58	0.306800	0.592100	0.314400
H591	H59	0.398300	0.826500	0.339100
H601	H60	0.318500	0.842800	0.387600
H611	H61	0.580600	0.886300	0.502800
H621	H62	0.459700	0.878700	0.432700
H631	H63	0.500200	0.556400	0.434000
H641	H64	0.621700	0.577000	0.502300
H651	H65	0.491300	0.229200	0.052500
H661	H66	0.419000	0.073000	0.130600
H671	H67	0.435200	0.935000	0.191900
H681	H68	0.133500	0.004600	0.241000
H691	H69	0.126000	0.137900	0.177100
H701	H70	0.147700	0.824700	0.272200
H711	H71	0.193200	0.907900	0.314400
H721	H72	0.101700	0.673500	0.339100
H731	H73	0.181500	0.657200	0.387600
H741	H74	0.919400	0.613700	0.502800
H751	H75	0.040300	0.621300	0.432700
H761	H76	0.999800	0.943600	0.434000
H771	H77	0.878300	0.923000	0.502300
H781	H78	0.008700	0.270800	0.052500
H791	H79	0.573000	0.581000	0.630600
H801	H80	0.435000	0.564800	0.691900
H811	H81	0.504600	0.866500	0.741000
H821	H82	0.637900	0.874000	0.677100
H831	H83	0.324700	0.852300	0.772200
H841	H84	0.407900	0.806800	0.814400
H851	H85	0.173500	0.898300	0.839100
H861	H86	0.157200	0.818500	0.887600
H871	H87	0.113700	0.080600	0.002800
H881	H88	0.121300	0.959700	0.932700
H891	H89	0.443600	0.000200	0.934000
H901	H90	0.423000	0.121700	0.002300
H911	H91	0.770800	0.991300	0.552500
H921	H92	0.927000	0.919000	0.630600
H931	H93	0.065000	0.935200	0.691900
H941	H94	0.995400	0.633500	0.741000
H951	H95	0.862100	0.626000	0.677100
H961	H96	0.175300	0.647700	0.772200
H971	H97	0.092100	0.693200	0.814400
H981	H98	0.326500	0.601700	0.839100
H991	H99	0.342800	0.681500	0.887600
H1001	H100	0.386300	0.419400	0.002800
H1011	H101	0.378700	0.540300	0.932700
H1021	H102	0.056400	0.499800	0.934000
H1031	H103	0.077000	0.378300	0.002300
H1041	H104	0.729200	0.508700	0.552500
C511	C51	0.140100	0.442100	0.152460
C521	C52	0.128900	0.524900	0.189700
C531	C53	0.214800	0.546100	0.223190
C541	C54	0.307400	0.484000	0.218600
C551	C55	0.311000	0.403800	0.179700
C561	C56	0.288300	0.654400	0.292470
C571	C57	0.344300	0.790900	0.361320
C581	C58	0.564400	0.818400	0.488400
C591	C59	0.489700	0.815300	0.446600
C601	C60	0.462700	0.716100	0.427280
C611	C61	0.514600	0.625400	0.447600
C621	C62	0.588200	0.638800	0.488500
C631	C63	0.359900	0.057900	0.152460
C641	C64	0.371100	0.975100	0.189700
C651	C65	0.285200	0.953900	0.223190
C661	C66	0.192600	0.016000	0.218600
C671	C67	0.189000	0.096200	0.179700
C681	C68	0.211700	0.845600	0.292470
C691	C69	0.155700	0.709100	0.361320
C701	C70	0.935600	0.681600	0.488400
C711	C71	0.010300	0.684700	0.446600
C721	C72	0.037300	0.783900	0.427280
C731	C73	0.985400	0.874600	0.447600
C741	C74	0.911800	0.861200	0.488500
C751	C75	0.557900	0.640100	0.652460
C761	C76	0.475100	0.628900	0.689700
C771	C77	0.453900	0.714800	0.723190
C781	C78	0.516000	0.807400	0.718600
C791	C79	0.596200	0.811000	0.679700
C801	C80	0.345600	0.788300	0.792470
C811	C81	0.209100	0.844300	0.861320
C821	C82	0.181600	0.064400	0.988400
C831	C83	0.184700	0.989700	0.946600
C841	C84	0.283900	0.962700	0.927280
C851	C85	0.374600	0.014600	0.947600
C861	C86	0.361200	0.088200	0.988500
C871	C87	0.942100	0.859900	0.652460
C881	C88	0.024900	0.871100	0.689700
C891	C89	0.046100	0.785200	0.723190
C901	C90	0.984000	0.692600	0.718600
C911	C91	0.903800	0.689000	0.679700
C921	C92	0.154400	0.711700	0.792470
C931	C93	0.290900	0.655700	0.861320
C941	C94	0.318400	0.435600	0.988400
C951	C95	0.315300	0.510300	0.946600
C961	C96	0.216100	0.537300	0.927280
C971	C97	0.125400	0.485400	0.947600
C981	C98	0.138800	0.411800	0.988500
C991	C99	0.250000	0.750000	0.327500
C1001	C100	0.250000	0.750000	0.827500
S51	S5	0.458220	0.276140	0.078460
S61	S6	0.041780	0.223860	0.078460
S71	S7	0.723860	0.958220	0.578460
S81	S8	0.776140	0.541780	0.578460
N91	N9	0.230200	0.382800	0.146060
N101	N10	0.613800	0.733200	0.509140
N111	N11	0.269800	0.117200	0.146060
N121	N12	0.886200	0.766800	0.509140
N131	N13	0.617200	0.730200	0.646060
N141	N14	0.266800	0.113800	0.009140
N151	N15	0.882800	0.769800	0.646060
N161	N16	0.233200	0.386200	0.009140
O91	O9	0.200700	0.627700	0.257420
O101	O10	0.390800	0.697500	0.387100
O111	O11	0.299300	0.872300	0.257420
O121	O12	0.109200	0.802500	0.387100
O131	O13	0.372300	0.700700	0.757420
O141	O14	0.302500	0.890800	0.887100
O151	O15	0.127700	0.799300	0.757420
O161	O16	0.197500	0.609200	0.887100
