data_ULUVUT_freeONLY_PM
_symmetry_space_group_name_H-M	'P1'
_cell_length_a	8.779600
_cell_length_b	10.029700
_cell_length_c	10.156100
_cell_angle_alpha	119.587000
_cell_angle_beta	115.607000
_cell_angle_gamma	90.004500
_symmetry_Int_Tables_number 1

loop_
_symmetry_equiv_pos_as_xyz
'x,y,z'

loop_
_atom_site_label
_atom_site_type_symbol
_atom_site_fract_x
_atom_site_fract_y
_atom_site_fract_z
Zn11	Zn1	0.704190	0.887720	0.724580
Zn21	Zn2	0.479610	0.163140	0.275420
H11	H1	0.603000	0.606600	0.754000
H21	H2	0.534500	0.427900	0.659200
H31	H3	0.124600	0.305900	0.122000
H41	H4	0.987500	0.219400	0.943800
H51	H5	0.349000	0.852600	0.246000
H61	H6	0.375300	0.768700	0.340800
H71	H7	0.502600	0.183900	0.878000
H81	H8	0.543700	0.275600	0.056200
C11	C1	0.573600	0.524900	0.544000
C21	C2	0.092200	0.075500	0.996200
C31	C3	0.529600	0.980900	0.456000
C41	C4	0.596000	0.079300	0.003800
N11	N1	0.611200	0.657000	0.547200
N21	N2	0.590700	0.604400	0.387200
N31	N3	0.570100	0.522100	0.672600
N41	N4	0.532500	0.396900	0.389400
N51	N5	0.543800	0.453400	0.294400
N61	N6	0.029200	0.824400	0.893600
N71	N7	0.182800	0.888000	0.025600
N81	N8	0.964200	0.940100	0.868800
N91	N9	0.228400	0.047800	0.095000
N101	N10	0.080400	0.217600	0.017800
N111	N11	0.564000	0.109800	0.452800
N121	N12	0.703500	0.217200	0.612800
N131	N13	0.397500	0.849500	0.327400
N141	N14	0.643100	0.007500	0.610600
N151	N15	0.749400	0.159000	0.705600
N161	N16	0.635600	0.930800	0.106400
N171	N17	0.657200	0.862400	0.974400
N181	N18	0.595400	0.071300	0.131200
N191	N19	0.633400	0.952800	0.905000
N201	N20	0.562600	0.199800	0.982200
