data_UNABUH_freeONLY_PM
_symmetry_space_group_name_H-M	'P1'
_cell_length_a	8.405000
_cell_length_b	10.293000
_cell_length_c	17.678500
_cell_angle_alpha	90.000000
_cell_angle_beta	102.813000
_cell_angle_gamma	90.000000
_symmetry_Int_Tables_number 1

loop_
_symmetry_equiv_pos_as_xyz
'x,y,z'

loop_
_atom_site_label
_atom_site_type_symbol
_atom_site_fract_x
_atom_site_fract_y
_atom_site_fract_z
Cu11	Cu1	0.326340	0.442450	0.931980
Cu21	Cu2	0.826340	0.057550	0.431980
H11	H1	0.360000	0.662900	0.594600
H21	H2	0.313300	0.550000	0.700000
H31	H3	0.036300	0.227700	0.669200
H41	H4	0.143800	0.410500	0.484500
H51	H5	0.735300	0.935500	0.564500
H61	H6	0.568700	0.772400	0.591700
H71	H7	0.392300	0.728400	0.363100
H81	H8	0.563900	0.891100	0.341300
H91	H9	0.860000	0.837100	0.094600
H101	H10	0.813300	0.950000	0.200000
H111	H11	0.536300	0.272300	0.169200
H121	H12	0.643800	0.089500	0.984500
H131	H13	0.235300	0.564500	0.064500
H141	H14	0.068700	0.727600	0.091700
H151	H15	0.892300	0.771600	0.863100
H161	H16	0.063900	0.608900	0.841300
C11	C1	0.244160	0.497100	0.587860
C21	C2	0.254100	0.488100	0.667000
C31	C3	0.177080	0.388000	0.697880
C41	C4	0.087880	0.295200	0.649080
C51	C5	0.077160	0.305100	0.569460
C61	C6	0.153180	0.405000	0.537780
C71	C7	0.359470	0.615200	0.490970
C81	C8	0.666200	0.892700	0.523800
C91	C9	0.566350	0.794900	0.540550
C101	C10	0.463160	0.731000	0.480260
C111	C11	0.461780	0.768700	0.404680
C121	C12	0.564760	0.866600	0.392060
C131	C13	0.194620	0.379200	0.784220
C141	C14	0.985480	0.206900	0.516480
C151	C15	0.744160	0.002900	0.087860
C161	C16	0.754100	0.011900	0.167000
C171	C17	0.677080	0.112000	0.197880
C181	C18	0.587880	0.204800	0.149080
C191	C19	0.577160	0.194900	0.069460
C201	C20	0.653180	0.095000	0.037780
C211	C21	0.859470	0.884800	0.990970
C221	C22	0.166200	0.607300	0.023800
C231	C23	0.066350	0.705100	0.040550
C241	C24	0.963160	0.769000	0.980260
C251	C25	0.961780	0.731300	0.904680
C261	C26	0.064760	0.633400	0.892060
C271	C27	0.694620	0.120800	0.284220
C281	C28	0.485480	0.293100	0.016480
N11	N1	0.326920	0.601600	0.561820
N21	N2	0.666380	0.927800	0.450680
N31	N3	0.826920	0.898400	0.061820
N41	N4	0.166380	0.572200	0.950680
O11	O1	0.312340	0.540900	0.436740
O21	O2	0.292850	0.462500	0.823750
O31	O3	0.119320	0.297400	0.812920
O41	O4	0.919780	0.109200	0.541780
O51	O5	0.970950	0.215300	0.443850
O61	O6	0.812340	0.959100	0.936740
O71	O7	0.792850	0.037500	0.323750
O81	O8	0.619320	0.202600	0.312920
O91	O9	0.419780	0.390800	0.041780
O101	O10	0.470950	0.284700	0.943850
Cu31	Cu3	0.173660	0.942450	0.568020
Cu41	Cu4	0.673660	0.557550	0.068020
H171	H17	0.140000	0.162900	0.905400
H181	H18	0.186700	0.050000	0.800000
H191	H19	0.463700	0.727700	0.830800
H201	H20	0.356200	0.910500	0.015500
H211	H21	0.764700	0.435500	0.935500
H221	H22	0.931300	0.272400	0.908300
H231	H23	0.107700	0.228400	0.136900
H241	H24	0.936100	0.391100	0.158700
H251	H25	0.640000	0.337100	0.405400
H261	H26	0.686700	0.450000	0.300000
H271	H27	0.963700	0.772300	0.330800
H281	H28	0.856200	0.589500	0.515500
H291	H29	0.264700	0.064500	0.435500
H301	H30	0.431300	0.227600	0.408300
H311	H31	0.607700	0.271600	0.636900
H321	H32	0.436100	0.108900	0.658700
C291	C29	0.255840	0.997100	0.912140
C301	C30	0.245900	0.988100	0.833000
C311	C31	0.322920	0.888000	0.802120
C321	C32	0.412120	0.795200	0.850920
C331	C33	0.422840	0.805100	0.930540
C341	C34	0.346820	0.905000	0.962220
C351	C35	0.140530	0.115200	0.009030
C361	C36	0.833800	0.392700	0.976200
C371	C37	0.933650	0.294900	0.959450
C381	C38	0.036840	0.231000	0.019740
C391	C39	0.038220	0.268700	0.095320
C401	C40	0.935240	0.366600	0.107940
C411	C41	0.305380	0.879200	0.715780
C421	C42	0.514520	0.706900	0.983520
C431	C43	0.755840	0.502900	0.412140
C441	C44	0.745900	0.511900	0.333000
C451	C45	0.822920	0.612000	0.302120
C461	C46	0.912120	0.704800	0.350920
C471	C47	0.922840	0.694900	0.430540
C481	C48	0.846820	0.595000	0.462220
C491	C49	0.640530	0.384800	0.509030
C501	C50	0.333800	0.107300	0.476200
C511	C51	0.433650	0.205100	0.459450
C521	C52	0.536840	0.269000	0.519740
C531	C53	0.538220	0.231300	0.595320
C541	C54	0.435240	0.133400	0.607940
C551	C55	0.805380	0.620800	0.215780
C561	C56	0.014520	0.793100	0.483520
N51	N5	0.173080	0.101600	0.938180
N61	N6	0.833620	0.427800	0.049320
N71	N7	0.673080	0.398400	0.438180
N81	N8	0.333620	0.072200	0.549320
O111	O11	0.187660	0.040900	0.063260
O121	O12	0.207150	0.962500	0.676250
O131	O13	0.380680	0.797400	0.687080
O141	O14	0.580220	0.609200	0.958220
O151	O15	0.529050	0.715300	0.056150
O161	O16	0.687660	0.459100	0.563260
O171	O17	0.707150	0.537500	0.176250
O181	O18	0.880680	0.702600	0.187080
O191	O19	0.080220	0.890800	0.458220
O201	O20	0.029050	0.784700	0.556150
