data_UNAZIT_freeONLY_PM
_symmetry_space_group_name_H-M	'P1'
_cell_length_a	18.153500
_cell_length_b	18.303300
_cell_length_c	25.235400
_cell_angle_alpha	90.000000
_cell_angle_beta	90.000000
_cell_angle_gamma	90.000000
_symmetry_Int_Tables_number 1

loop_
_symmetry_equiv_pos_as_xyz
'x,y,z'

loop_
_atom_site_label
_atom_site_type_symbol
_atom_site_fract_x
_atom_site_fract_y
_atom_site_fract_z
Cd11	Cd1	0.214580	0.218500	0.570520
Cd21	Cd2	0.285420	0.781500	0.070520
H11	H1	0.366900	0.317000	0.581300
H21	H2	0.393200	0.443800	0.545900
H31	H3	0.186100	0.389000	0.522900
H41	H4	0.120300	0.812700	0.131300
H51	H5	0.085000	0.798600	0.224700
H61	H6	0.300600	0.759800	0.204900
H71	H7	0.133600	0.090400	0.659300
H81	H8	0.145000	0.956800	0.647800
H91	H9	0.208000	0.052000	0.517900
H101	H10	0.342200	0.567100	0.556800
H111	H11	0.316600	0.683900	0.525600
H121	H12	0.158500	0.608000	0.430400
H131	H13	0.189000	0.486800	0.456700
H141	H14	0.136300	0.812200	0.404300
H151	H15	0.127300	0.836500	0.315600
H161	H16	0.283000	0.685100	0.285600
H171	H17	0.300900	0.672300	0.378900
H181	H18	0.154900	0.743400	0.545800
H191	H19	0.132900	0.848700	0.591300
H201	H20	0.272300	0.958000	0.496300
H211	H21	0.275200	0.857700	0.440900
H221	H22	0.133100	0.683000	0.081300
H231	H23	0.106800	0.556200	0.045900
H241	H24	0.313900	0.611000	0.022900
H251	H25	0.379700	0.187300	0.631300
H261	H26	0.415000	0.201400	0.724700
H271	H27	0.199400	0.240200	0.704900
H281	H28	0.366400	0.909600	0.159300
H291	H29	0.355000	0.043200	0.147800
H301	H30	0.292000	0.948000	0.017900
H311	H31	0.157800	0.432900	0.056800
H321	H32	0.183400	0.316100	0.025600
H331	H33	0.341500	0.392000	0.930400
H341	H34	0.311000	0.513200	0.956700
H351	H35	0.363700	0.187800	0.904300
H361	H36	0.372700	0.163500	0.815600
H371	H37	0.217000	0.314900	0.785600
H381	H38	0.199100	0.327700	0.878900
H391	H39	0.345100	0.256600	0.045800
H401	H40	0.367100	0.151300	0.091300
H411	H41	0.227700	0.042000	0.996300
H421	H42	0.224800	0.142300	0.940900
H431	H43	0.002600	0.821100	0.831100
H441	H44	0.206600	0.836100	0.889700
H451	H45	0.038100	0.787400	0.985500
H461	H46	0.186700	0.859300	0.803900
H471	H47	0.497400	0.178900	0.331100
H481	H48	0.293400	0.163900	0.389700
H491	H49	0.461900	0.212600	0.485500
H501	H50	0.313300	0.140700	0.303900
C11	C1	0.333700	0.347600	0.564200
C21	C2	0.348200	0.419500	0.546300
C31	C3	0.235200	0.388000	0.533410
C41	C4	0.152400	0.799800	0.158490
C51	C5	0.131600	0.792700	0.210000
C61	C6	0.251400	0.771100	0.198440
C71	C7	0.152200	0.067500	0.629300
C81	C8	0.157100	0.992400	0.622970
C91	C9	0.192600	0.045900	0.552750
C101	C10	0.266700	0.518200	0.511430
C111	C11	0.306000	0.574600	0.531300
C121	C12	0.290500	0.644100	0.512380
C131	C13	0.237400	0.655300	0.474650
C141	C14	0.196200	0.599200	0.454480
C151	C15	0.212800	0.526900	0.471400
C161	C16	0.216700	0.738500	0.400500
C171	C17	0.167100	0.787600	0.380820
C181	C18	0.161100	0.802100	0.327530
C191	C19	0.206900	0.764400	0.290340
C201	C20	0.255600	0.713100	0.309200
C211	C21	0.264100	0.702700	0.365900
C221	C22	0.217200	0.788800	0.489130
C231	C23	0.175300	0.787200	0.534190
C241	C24	0.163700	0.849700	0.561840
C251	C25	0.196600	0.915300	0.547230
C261	C26	0.244700	0.916600	0.503860
C271	C27	0.249900	0.855400	0.472900
C281	C28	0.166300	0.652400	0.064200
C291	C29	0.151800	0.580500	0.046300
C301	C30	0.264800	0.612000	0.033410
C311	C31	0.347600	0.200200	0.658490
C321	C32	0.368400	0.207300	0.710000
C331	C33	0.248600	0.228900	0.698440
C341	C34	0.347800	0.932500	0.129300
C351	C35	0.342900	0.007600	0.122970
C361	C36	0.307400	0.954100	0.052750
C371	C37	0.233300	0.481800	0.011430
C381	C38	0.194000	0.425400	0.031300
C391	C39	0.209500	0.355900	0.012380
C401	C40	0.262600	0.344700	0.974650
C411	C41	0.303800	0.400800	0.954480
C421	C42	0.287200	0.473100	0.971400
C431	C43	0.283300	0.261500	0.900500
C441	C44	0.332900	0.212400	0.880820
C451	C45	0.338900	0.197900	0.827530
C461	C46	0.293100	0.235600	0.790340
C471	C47	0.244400	0.286900	0.809200
C481	C48	0.235900	0.297300	0.865900
C491	C49	0.282800	0.211200	0.989130
C501	C50	0.324700	0.212800	0.034190
C511	C51	0.336300	0.150300	0.061840
C521	C52	0.303400	0.084700	0.047230
C531	C53	0.255300	0.083400	0.003860
C541	C54	0.250100	0.144600	0.972900
C551	C55	0.929700	0.773700	0.915280
C561	C56	0.008400	0.794900	0.908470
C571	C57	0.034500	0.817700	0.859790
C581	C58	0.105000	0.834600	0.853950
C591	C59	0.156500	0.829600	0.895680
C601	C60	0.130000	0.815000	0.945240
C611	C61	0.056000	0.797500	0.951800
C621	C62	0.181100	0.817700	0.991830
C631	C63	0.570300	0.226300	0.415280
C641	C64	0.491600	0.205100	0.408470
C651	C65	0.465500	0.182300	0.359790
C661	C66	0.395000	0.165400	0.353950
C671	C67	0.343500	0.170400	0.395680
C681	C68	0.370000	0.185000	0.445240
C691	C69	0.444000	0.202500	0.451800
C701	C70	0.318900	0.182300	0.491830
N11	N1	0.267100	0.332300	0.552770
N21	N2	0.281200	0.445100	0.529900
N31	N3	0.222200	0.731100	0.455000
N41	N4	0.223700	0.786400	0.151470
N51	N5	0.198400	0.774100	0.235730
N61	N6	0.177900	0.103200	0.586370
N71	N7	0.182500	0.981670	0.574840
N81	N8	0.232900	0.667700	0.052770
N91	N9	0.218800	0.554900	0.029900
N101	N10	0.277800	0.268900	0.955000
N111	N11	0.276300	0.213600	0.651470
N121	N12	0.301600	0.225900	0.735730
N131	N13	0.322100	0.896800	0.086370
N141	N14	0.317500	0.018330	0.074840
O11	O1	0.891450	0.762900	0.875750
O21	O2	0.903310	0.762680	0.959980
O31	O3	0.154540	0.820410	0.036460
O41	O4	0.250540	0.808420	0.981030
O51	O5	0.135100	0.848400	0.801360
O61	O6	0.608550	0.237100	0.375750
O71	O7	0.596690	0.237320	0.459980
O81	O8	0.345460	0.179590	0.536460
O91	O9	0.249460	0.191580	0.481030
O101	O10	0.364900	0.151600	0.301360
Cd31	Cd3	0.785420	0.718500	0.929480
Cd41	Cd4	0.714580	0.281500	0.429480
H511	H51	0.997400	0.321100	0.668900
H521	H52	0.793400	0.336100	0.610300
H531	H53	0.961900	0.287400	0.514500
H541	H54	0.813300	0.359300	0.696100
H551	H55	0.502600	0.678900	0.168900
H561	H56	0.706600	0.663900	0.110300
H571	H57	0.538100	0.712600	0.014500
H581	H58	0.686700	0.640700	0.196100
H591	H59	0.633100	0.817000	0.918700
H601	H60	0.606800	0.943800	0.954100
H611	H61	0.813900	0.889000	0.977100
H621	H62	0.879700	0.312700	0.368700
H631	H63	0.915000	0.298600	0.275300
H641	H64	0.699400	0.259800	0.295100
H651	H65	0.866400	0.590400	0.840700
H661	H66	0.855000	0.456800	0.852200
H671	H67	0.792000	0.552000	0.982100
H681	H68	0.657800	0.067100	0.943200
H691	H69	0.683400	0.183900	0.974400
H701	H70	0.841500	0.108000	0.069600
H711	H71	0.811000	0.986800	0.043300
H721	H72	0.863700	0.312200	0.095700
H731	H73	0.872700	0.336500	0.184400
H741	H74	0.717000	0.185100	0.214400
H751	H75	0.699100	0.172300	0.121100
H761	H76	0.845100	0.243400	0.954200
H771	H77	0.867100	0.348700	0.908700
H781	H78	0.727700	0.458000	0.003700
H791	H79	0.724800	0.357700	0.059100
H801	H80	0.866900	0.183000	0.418700
H811	H81	0.893200	0.056200	0.454100
H821	H82	0.686100	0.111000	0.477100
H831	H83	0.620300	0.687300	0.868700
H841	H84	0.585000	0.701400	0.775300
H851	H85	0.800600	0.740200	0.795100
H861	H86	0.633600	0.409600	0.340700
H871	H87	0.645000	0.543200	0.352200
H881	H88	0.708000	0.448000	0.482100
H891	H89	0.842200	0.932900	0.443200
H901	H90	0.816600	0.816100	0.474400
H911	H91	0.658500	0.892000	0.569600
H921	H92	0.689000	0.013200	0.543300
H931	H93	0.636300	0.687800	0.595700
H941	H94	0.627300	0.663500	0.684400
H951	H95	0.783000	0.814900	0.714400
H961	H96	0.800900	0.827700	0.621100
H971	H97	0.654900	0.756600	0.454200
H981	H98	0.632900	0.651300	0.408700
H991	H99	0.772300	0.542000	0.503700
H1001	H100	0.775200	0.642300	0.559100
C711	C71	0.070300	0.273700	0.584720
C721	C72	0.991600	0.294900	0.591530
C731	C73	0.965500	0.317700	0.640210
C741	C74	0.895000	0.334600	0.646050
C751	C75	0.843500	0.329600	0.604320
C761	C76	0.870000	0.315000	0.554760
C771	C77	0.944000	0.297500	0.548200
C781	C78	0.818900	0.317700	0.508170
C791	C79	0.429700	0.726300	0.084720
C801	C80	0.508400	0.705100	0.091530
C811	C81	0.534500	0.682300	0.140210
C821	C82	0.605000	0.665400	0.146050
C831	C83	0.656500	0.670400	0.104320
C841	C84	0.630000	0.685000	0.054760
C851	C85	0.556000	0.702500	0.048200
C861	C86	0.681100	0.682300	0.008170
C871	C87	0.666300	0.847600	0.935800
C881	C88	0.651800	0.919500	0.953700
C891	C89	0.764800	0.888000	0.966590
C901	C90	0.847600	0.299800	0.341510
C911	C91	0.868400	0.292700	0.290000
C921	C92	0.748600	0.271100	0.301560
C931	C93	0.847800	0.567500	0.870700
C941	C94	0.842900	0.492400	0.877030
C951	C95	0.807400	0.545900	0.947250
C961	C96	0.733300	0.018200	0.988570
C971	C97	0.694000	0.074600	0.968700
C981	C98	0.709500	0.144100	0.987620
C991	C99	0.762600	0.155300	0.025350
C1001	C100	0.803800	0.099200	0.045520
C1011	C101	0.787200	0.026900	0.028600
C1021	C102	0.783300	0.238500	0.099500
C1031	C103	0.832900	0.287600	0.119180
C1041	C104	0.838900	0.302100	0.172470
C1051	C105	0.793100	0.264400	0.209660
C1061	C106	0.744400	0.213100	0.190800
C1071	C107	0.735900	0.202700	0.134100
C1081	C108	0.782800	0.288800	0.010870
C1091	C109	0.824700	0.287200	0.965810
C1101	C110	0.836300	0.349700	0.938160
C1111	C111	0.803400	0.415300	0.952770
C1121	C112	0.755300	0.416600	0.996140
C1131	C113	0.750100	0.355400	0.027100
C1141	C114	0.833700	0.152400	0.435800
C1151	C115	0.848200	0.080500	0.453700
C1161	C116	0.735200	0.112000	0.466590
C1171	C117	0.652400	0.700200	0.841510
C1181	C118	0.631600	0.707300	0.790000
C1191	C119	0.751400	0.728900	0.801560
C1201	C120	0.652200	0.432500	0.370700
C1211	C121	0.657100	0.507600	0.377030
C1221	C122	0.692600	0.454100	0.447250
C1231	C123	0.766700	0.981800	0.488570
C1241	C124	0.806000	0.925400	0.468700
C1251	C125	0.790500	0.855900	0.487620
C1261	C126	0.737400	0.844700	0.525350
C1271	C127	0.696200	0.900800	0.545520
C1281	C128	0.712800	0.973100	0.528600
C1291	C129	0.716700	0.761500	0.599500
C1301	C130	0.667100	0.712400	0.619180
C1311	C131	0.661100	0.697900	0.672470
C1321	C132	0.706900	0.735600	0.709660
C1331	C133	0.755600	0.786900	0.690800
C1341	C134	0.764100	0.797300	0.634100
C1351	C135	0.717200	0.711200	0.510870
C1361	C136	0.675300	0.712800	0.465810
C1371	C137	0.663700	0.650300	0.438160
C1381	C138	0.696600	0.584700	0.452770
C1391	C139	0.744700	0.583400	0.496140
C1401	C140	0.749900	0.644600	0.527100
N151	N15	0.732900	0.832300	0.947230
N161	N16	0.718800	0.945100	0.970100
N171	N17	0.777800	0.231100	0.045000
N181	N18	0.776300	0.286400	0.348530
N191	N19	0.801600	0.274100	0.264270
N201	N20	0.822100	0.603200	0.913630
N211	N21	0.817500	0.481670	0.925160
N221	N22	0.767100	0.167700	0.447230
N231	N23	0.781200	0.054900	0.470100
N241	N24	0.722200	0.768900	0.545000
N251	N25	0.723700	0.713600	0.848530
N261	N26	0.698400	0.725900	0.764270
N271	N27	0.677900	0.396800	0.413630
N281	N28	0.682500	0.518330	0.425160
O111	O11	0.108550	0.262900	0.624250
O121	O12	0.096690	0.262680	0.540020
O131	O13	0.845460	0.320410	0.463540
O141	O14	0.749460	0.308420	0.518970
O151	O15	0.864900	0.348400	0.698640
O161	O16	0.391450	0.737100	0.124250
O171	O17	0.403310	0.737320	0.040020
O181	O18	0.654540	0.679590	0.963540
O191	O19	0.750540	0.691580	0.018970
O201	O20	0.635100	0.651600	0.198640
Cd51	Cd5	0.488680	0.497080	0.688250
Cd61	Cd6	0.988680	0.002920	0.311750
H1011	H101	0.324800	0.563400	0.652600
H1021	H102	0.355700	0.364900	0.705900
H1031	H103	0.221800	0.377000	0.682600
H1041	H104	0.029500	0.015700	0.441800
H1051	H105	0.030800	0.925300	0.516200
H1061	H106	0.969000	0.832300	0.381300
H1071	H107	0.655200	0.517100	0.636300
H1081	H108	0.619600	0.528100	0.788900
H1091	H109	0.753100	0.543400	0.775500
H1101	H110	0.129200	0.417900	0.635600
H1111	H111	0.021400	0.463100	0.602200
H1121	H112	0.106800	0.662900	0.601200
H1131	H113	0.213600	0.619500	0.638600
H1141	H114	0.947300	0.637700	0.670700
H1151	H115	0.842400	0.611100	0.723800
H1161	H116	0.768700	0.485700	0.602400
H1171	H117	0.877800	0.507500	0.557300
H1181	H118	0.032400	0.615300	0.487000
H1191	H119	0.033600	0.716400	0.427600
H1201	H120	0.935400	0.829900	0.547100
H1211	H121	0.935800	0.726900	0.600600
H1221	H122	0.824800	0.936600	0.347400
H1231	H123	0.855700	0.135100	0.294100
H1241	H124	0.721800	0.123000	0.317400
H1251	H125	0.529500	0.484300	0.558200
H1261	H126	0.530800	0.574700	0.483800
H1271	H127	0.469000	0.667700	0.618700
H1281	H128	0.155200	0.982900	0.363700
H1291	H129	0.119600	0.971900	0.211100
H1301	H130	0.253100	0.956600	0.224500
H1311	H131	0.629200	0.082100	0.364400
H1321	H132	0.521400	0.036900	0.397800
H1331	H133	0.606800	0.837100	0.398800
H1341	H134	0.713600	0.880500	0.361400
H1351	H135	0.447300	0.862300	0.329300
H1361	H136	0.342400	0.888900	0.276200
H1371	H137	0.268700	0.014300	0.397600
H1381	H138	0.377800	0.992500	0.442700
H1391	H139	0.532400	0.884700	0.513000
H1401	H140	0.533600	0.783600	0.572400
H1411	H141	0.435400	0.670100	0.452900
H1421	H142	0.435800	0.773100	0.399400
C1411	C141	0.316000	0.515600	0.663460
C1421	C142	0.332400	0.406400	0.692700
C1431	C143	0.258000	0.412700	0.679500
C1441	C144	0.017600	0.966500	0.438740
C1451	C145	0.017900	0.917500	0.481020
C1461	C146	0.984200	0.867300	0.405650
C1471	C147	0.662600	0.519600	0.672730
C1481	C148	0.643800	0.526000	0.756500
C1491	C149	0.717900	0.535500	0.749390
C1501	C150	0.183600	0.512400	0.642140
C1511	C151	0.125100	0.467800	0.629670
C1521	C152	0.060300	0.495000	0.608600
C1531	C153	0.052100	0.566800	0.597100
C1541	C154	0.111100	0.613300	0.608600
C1551	C155	0.175400	0.587300	0.630930
C1561	C156	0.918500	0.576900	0.609830
C1571	C157	0.911000	0.606600	0.658000
C1581	C158	0.847900	0.591400	0.690100
C1591	C159	0.796700	0.546500	0.668530
C1601	C160	0.805200	0.515100	0.616960
C1611	C161	0.869000	0.530000	0.589690
C1621	C162	0.983200	0.660400	0.549040
C1631	C163	0.012600	0.659400	0.498510
C1641	C164	0.015600	0.719400	0.462000
C1651	C165	0.986900	0.785300	0.486190
C1661	C166	0.956300	0.786800	0.534670
C1671	C167	0.955600	0.724300	0.566600
C1681	C168	0.816000	0.984400	0.336540
C1691	C169	0.832400	0.093600	0.307300
C1701	C170	0.758000	0.087300	0.320500
C1711	C171	0.517600	0.533500	0.561260
C1721	C172	0.517900	0.582500	0.518980
C1731	C173	0.484200	0.632700	0.594350
C1741	C174	0.162600	0.980400	0.327270
C1751	C175	0.143800	0.974000	0.243500
C1761	C176	0.217900	0.964500	0.250610
C1771	C177	0.683600	0.987600	0.357860
C1781	C178	0.625100	0.032200	0.370330
C1791	C179	0.560300	0.005000	0.391400
C1801	C180	0.552100	0.933200	0.402900
C1811	C181	0.611100	0.886700	0.391400
C1821	C182	0.675400	0.912700	0.369070
C1831	C183	0.418500	0.923100	0.390170
C1841	C184	0.411000	0.893400	0.342000
C1851	C185	0.347900	0.908600	0.309900
C1861	C186	0.296700	0.953500	0.331470
C1871	C187	0.305200	0.984900	0.383040
C1881	C188	0.369000	0.970000	0.410310
C1891	C189	0.483200	0.839600	0.450960
C1901	C190	0.512600	0.840600	0.501490
C1911	C191	0.515600	0.780600	0.538000
C1921	C192	0.486900	0.714700	0.513810
C1931	C193	0.456300	0.713200	0.465330
C1941	C194	0.455600	0.775700	0.433400
N291	N29	0.365400	0.473400	0.682430
N301	N30	0.249300	0.482700	0.661050
N311	N31	0.984200	0.596300	0.579020
N321	N32	0.998600	0.935100	0.394200
N331	N33	0.994400	0.855300	0.457110
N341	N34	0.609800	0.512600	0.707890
N351	N35	0.729400	0.530800	0.695690
N361	N36	0.865400	0.026600	0.317570
N371	N37	0.749300	0.017300	0.338950
N381	N38	0.484200	0.903700	0.420980
N391	N39	0.498600	0.564900	0.605800
N401	N40	0.494400	0.644700	0.542890
N411	N41	0.109800	0.987400	0.292110
N421	N42	0.229400	0.969200	0.304310
Cd71	Cd7	0.011320	0.502920	0.188250
Cd81	Cd8	0.511320	0.997080	0.811750
H1431	H143	0.175200	0.436600	0.152600
H1441	H144	0.144300	0.635100	0.205900
H1451	H145	0.278200	0.623000	0.182600
H1461	H146	0.470500	0.984300	0.941800
H1471	H147	0.469200	0.074700	0.016200
H1481	H148	0.531000	0.167700	0.881300
H1491	H149	0.844800	0.482900	0.136300
H1501	H150	0.880400	0.471900	0.288900
H1511	H151	0.746900	0.456600	0.275500
H1521	H152	0.370800	0.582100	0.135600
H1531	H153	0.478600	0.536900	0.102200
H1541	H154	0.393200	0.337100	0.101200
H1551	H155	0.286400	0.380500	0.138600
H1561	H156	0.552700	0.362300	0.170700
H1571	H157	0.657600	0.388900	0.223800
H1581	H158	0.731300	0.514300	0.102400
H1591	H159	0.622200	0.492500	0.057300
H1601	H160	0.467600	0.384700	0.987000
H1611	H161	0.466400	0.283600	0.927600
H1621	H162	0.564600	0.170100	0.047100
H1631	H163	0.564200	0.273100	0.100600
H1641	H164	0.675200	0.063400	0.847400
H1651	H165	0.644300	0.864900	0.794100
H1661	H166	0.778200	0.877000	0.817400
H1671	H167	0.970500	0.515700	0.058200
H1681	H168	0.969200	0.425300	0.983800
H1691	H169	0.031000	0.332300	0.118700
H1701	H170	0.344800	0.017100	0.863700
H1711	H171	0.380400	0.028100	0.711100
H1721	H172	0.246900	0.043400	0.724500
H1731	H173	0.870800	0.917900	0.864400
H1741	H174	0.978600	0.963100	0.897800
H1751	H175	0.893200	0.162900	0.898800
H1761	H176	0.786400	0.119500	0.861400
H1771	H177	0.052700	0.137700	0.829300
H1781	H178	0.157600	0.111100	0.776200
H1791	H179	0.231300	0.985700	0.897600
H1801	H180	0.122200	0.007500	0.942700
H1811	H181	0.967600	0.115300	0.013000
H1821	H182	0.966400	0.216400	0.072400
H1831	H183	0.064600	0.329900	0.952900
H1841	H184	0.064200	0.226900	0.899400
C1951	C195	0.184000	0.484400	0.163460
C1961	C196	0.167600	0.593600	0.192700
C1971	C197	0.242000	0.587300	0.179500
C1981	C198	0.482400	0.033500	0.938740
C1991	C199	0.482100	0.082500	0.981020
C2001	C200	0.515800	0.132700	0.905650
C2011	C201	0.837400	0.480400	0.172730
C2021	C202	0.856200	0.474000	0.256500
C2031	C203	0.782100	0.464500	0.249390
C2041	C204	0.316400	0.487600	0.142140
C2051	C205	0.374900	0.532200	0.129670
C2061	C206	0.439700	0.505000	0.108600
C2071	C207	0.447900	0.433200	0.097100
C2081	C208	0.388900	0.386700	0.108600
C2091	C209	0.324600	0.412700	0.130930
C2101	C210	0.581500	0.423100	0.109830
C2111	C211	0.589000	0.393400	0.158000
C2121	C212	0.652100	0.408600	0.190100
C2131	C213	0.703300	0.453500	0.168530
C2141	C214	0.694800	0.484900	0.116960
C2151	C215	0.631000	0.470000	0.089690
C2161	C216	0.516800	0.339600	0.049040
C2171	C217	0.487400	0.340600	0.998510
C2181	C218	0.484400	0.280600	0.962000
C2191	C219	0.513100	0.214700	0.986190
C2201	C220	0.543700	0.213200	0.034670
C2211	C221	0.544400	0.275700	0.066600
C2221	C222	0.684000	0.015600	0.836540
C2231	C223	0.667600	0.906400	0.807300
C2241	C224	0.742000	0.912700	0.820500
C2251	C225	0.982400	0.466500	0.061260
C2261	C226	0.982100	0.417500	0.018980
C2271	C227	0.015800	0.367300	0.094350
C2281	C228	0.337400	0.019600	0.827270
C2291	C229	0.356200	0.026000	0.743500
C2301	C230	0.282100	0.035500	0.750610
C2311	C231	0.816400	0.012400	0.857860
C2321	C232	0.874900	0.967800	0.870330
C2331	C233	0.939700	0.995000	0.891400
C2341	C234	0.947900	0.066800	0.902900
C2351	C235	0.888900	0.113300	0.891400
C2361	C236	0.824600	0.087300	0.869070
C2371	C237	0.081500	0.076900	0.890170
C2381	C238	0.089000	0.106600	0.842000
C2391	C239	0.152100	0.091400	0.809900
C2401	C240	0.203300	0.046500	0.831470
C2411	C241	0.194800	0.015100	0.883040
C2421	C242	0.131000	0.030000	0.910310
C2431	C243	0.016800	0.160400	0.950960
C2441	C244	0.987400	0.159400	0.001490
C2451	C245	0.984400	0.219400	0.038000
C2461	C246	0.013100	0.285300	0.013810
C2471	C247	0.043700	0.286800	0.965330
C2481	C248	0.044400	0.224300	0.933400
N431	N43	0.134600	0.526600	0.182430
N441	N44	0.250700	0.517300	0.161050
N451	N45	0.515800	0.403700	0.079020
N461	N46	0.501400	0.064900	0.894200
N471	N47	0.505600	0.144700	0.957110
N481	N48	0.890200	0.487400	0.207890
N491	N49	0.770600	0.469200	0.195690
N501	N50	0.634600	0.973400	0.817570
N511	N51	0.750700	0.982700	0.838950
N521	N52	0.015800	0.096300	0.920980
N531	N53	0.001400	0.435100	0.105800
N541	N54	0.005600	0.355300	0.042890
N551	N55	0.390200	0.012600	0.792110
N561	N56	0.270600	0.030800	0.804310
