data_UPOVOL_freeONLY_PM
_symmetry_space_group_name_H-M	'P1'
_cell_length_a	7.852900
_cell_length_b	12.186000
_cell_length_c	13.221700
_cell_angle_alpha	112.156000
_cell_angle_beta	105.457000
_cell_angle_gamma	91.541000
_symmetry_Int_Tables_number 1

loop_
_symmetry_equiv_pos_as_xyz
'x,y,z'

loop_
_atom_site_label
_atom_site_type_symbol
_atom_site_fract_x
_atom_site_fract_y
_atom_site_fract_z
Er11	Er1	0.749700	0.981450	0.010740
Er21	Er2	0.250300	0.018550	0.989260
H11	H1	0.076800	0.153700	0.415300
H21	H2	0.068000	0.275000	0.400000
H31	H3	0.261900	0.228700	0.292500
H41	H4	0.297700	0.114200	0.318200
H51	H5	0.593900	0.115500	0.681900
H61	H6	0.694800	0.232200	0.788000
H71	H7	0.448100	0.242100	0.858400
H81	H8	0.351200	0.123400	0.753500
H91	H9	0.619900	0.605100	0.778400
H101	H10	0.511300	0.612500	0.663300
H111	H11	0.346400	0.595900	0.823200
H121	H12	0.250900	0.618500	0.714100
H131	H13	0.818400	0.742700	0.986200
H141	H14	0.916100	0.819400	0.106000
H151	H15	0.923200	0.846300	0.584700
H161	H16	0.932000	0.725000	0.600000
H171	H17	0.738100	0.771300	0.707500
H181	H18	0.702300	0.885800	0.681800
H191	H19	0.406100	0.884500	0.318100
H201	H20	0.305200	0.767800	0.212000
H211	H21	0.551900	0.757900	0.141600
H221	H22	0.648800	0.876600	0.246500
H231	H23	0.380100	0.394900	0.221600
H241	H24	0.488700	0.387500	0.336700
H251	H25	0.653600	0.404100	0.176800
H261	H26	0.749100	0.381500	0.285900
H271	H27	0.181600	0.257300	0.013800
H281	H28	0.083900	0.180600	0.894000
C11	C1	0.339600	0.398700	0.558700
C21	C2	0.366200	0.205200	0.572500
C31	C3	0.537000	0.387100	0.730000
C41	C4	0.146100	0.217000	0.409600
C51	C5	0.208100	0.164800	0.305900
C61	C6	0.053500	0.092400	0.203100
C71	C7	0.577800	0.190900	0.737000
C81	C8	0.467000	0.166600	0.804900
C91	C9	0.554000	0.094700	0.870100
C101	C10	0.504700	0.581900	0.720200
C111	C11	0.362900	0.635000	0.774100
C121	C12	0.406100	0.768400	0.843600
C131	C13	0.660400	0.601300	0.441300
C141	C14	0.633800	0.794800	0.427500
C151	C15	0.463000	0.612900	0.270000
C161	C16	0.853900	0.783000	0.590400
C171	C17	0.791900	0.835200	0.694100
C181	C18	0.946500	0.907600	0.796900
C191	C19	0.422200	0.809100	0.263000
C201	C20	0.533000	0.833400	0.195100
C211	C21	0.446000	0.905300	0.129900
C221	C22	0.495300	0.418100	0.279800
C231	C23	0.637100	0.365000	0.225900
C241	C24	0.593900	0.231600	0.156400
N11	N1	0.463100	0.450300	0.665900
N21	N2	0.291800	0.275800	0.516800
N31	N3	0.493900	0.264100	0.675900
N41	N4	0.536900	0.549700	0.334100
N51	N5	0.708200	0.724200	0.483200
N61	N6	0.506100	0.735900	0.324100
O11	O1	0.923700	0.042500	0.214300
O21	O2	0.055400	0.086400	0.104000
O31	O3	0.557700	0.819000	0.860700
O41	O4	0.282400	0.818600	0.880400
O51	O5	0.464500	0.050000	0.914800
O61	O6	0.714100	0.080900	0.881100
O71	O7	0.637500	0.436400	0.826500
O81	O8	0.275200	0.457200	0.505700
O91	O9	0.322800	0.097800	0.531000
O101	O10	0.849300	0.811600	0.040700
O111	O11	0.076300	0.957500	0.785700
O121	O12	0.944600	0.913600	0.896000
O131	O13	0.442300	0.181000	0.139300
O141	O14	0.717600	0.181400	0.119600
O151	O15	0.535500	0.950000	0.085200
O161	O16	0.285900	0.919100	0.118900
O171	O17	0.362500	0.563600	0.173500
O181	O18	0.724800	0.542800	0.494300
O191	O19	0.677200	0.902200	0.469000
O201	O20	0.150700	0.188400	0.959300
