data_UTEXIB_freeONLY_PM
_symmetry_space_group_name_H-M	'P1'
_cell_length_a	15.462500
_cell_length_b	15.462500
_cell_length_c	20.047400
_cell_angle_alpha	90.000000
_cell_angle_beta	90.000000
_cell_angle_gamma	90.000000
_symmetry_Int_Tables_number 1

loop_
_symmetry_equiv_pos_as_xyz
'x,y,z'

loop_
_atom_site_label
_atom_site_type_symbol
_atom_site_fract_x
_atom_site_fract_y
_atom_site_fract_z
Co11	Co1	0.085750	0.914250	0.000000
Co21	Co2	0.414250	0.585750	0.000000
Co31	Co3	0.585750	0.085750	0.500000
Co41	Co4	0.914250	0.414250	0.500000
Co51	Co5	0.914250	0.085750	0.000000
Co61	Co6	0.585750	0.414250	0.000000
Co71	Co7	0.414250	0.914250	0.500000
Co81	Co8	0.085750	0.585750	0.500000
Co91	Co9	0.250000	0.750000	0.500000
Co101	Co10	0.750000	0.250000	0.000000
Co111	Co11	0.750000	0.250000	0.500000
Co121	Co12	0.250000	0.750000	0.000000
H11	H1	0.153070	0.967770	0.741020
H21	H2	0.137120	0.953990	0.848330
H31	H3	0.279400	0.053420	0.576820
H41	H4	0.144910	0.840750	0.624740
H51	H5	0.346930	0.532230	0.741020
H61	H6	0.362880	0.546010	0.848330
H71	H7	0.220600	0.446580	0.576820
H81	H8	0.355090	0.659250	0.624740
H91	H9	0.532230	0.153070	0.241020
H101	H10	0.546010	0.137120	0.348330
H111	H11	0.446580	0.279400	0.076820
H121	H12	0.659250	0.144910	0.124740
H131	H13	0.967770	0.346930	0.241020
H141	H14	0.953990	0.362880	0.348330
H151	H15	0.053420	0.220600	0.076820
H161	H16	0.840750	0.355090	0.124740
H171	H17	0.846930	0.467770	0.758980
H181	H18	0.862880	0.453990	0.651670
H191	H19	0.720600	0.553420	0.923180
H201	H20	0.855090	0.340750	0.875260
H211	H21	0.653070	0.032230	0.758980
H221	H22	0.637120	0.046010	0.651670
H231	H23	0.779400	0.946580	0.923180
H241	H24	0.644910	0.159250	0.875260
H251	H25	0.467770	0.653070	0.258980
H261	H26	0.453990	0.637120	0.151670
H271	H27	0.553420	0.779400	0.423180
H281	H28	0.340750	0.644910	0.375260
H291	H29	0.032230	0.846930	0.258980
H301	H30	0.046010	0.862880	0.151670
H311	H31	0.946580	0.720600	0.423180
H321	H32	0.159250	0.855090	0.375260
H331	H33	0.846930	0.032230	0.258980
H341	H34	0.862880	0.046010	0.151670
H351	H35	0.720600	0.946580	0.423180
H361	H36	0.855090	0.159250	0.375260
H371	H37	0.653070	0.467770	0.258980
H381	H38	0.637120	0.453990	0.151670
H391	H39	0.779400	0.553420	0.423180
H401	H40	0.644910	0.340750	0.375260
H411	H41	0.467770	0.846930	0.758980
H421	H42	0.453990	0.862880	0.651670
H431	H43	0.553420	0.720600	0.923180
H441	H44	0.340750	0.855090	0.875260
H451	H45	0.032230	0.653070	0.758980
H461	H46	0.046010	0.637120	0.651670
H471	H47	0.946580	0.779400	0.923180
H481	H48	0.159250	0.644910	0.875260
H491	H49	0.153070	0.532230	0.241020
H501	H50	0.137120	0.546010	0.348330
H511	H51	0.279400	0.446580	0.076820
H521	H52	0.144910	0.659250	0.124740
H531	H53	0.346930	0.967770	0.241020
H541	H54	0.362880	0.953990	0.348330
H551	H55	0.220600	0.053420	0.076820
H561	H56	0.355090	0.840750	0.124740
H571	H57	0.532230	0.346930	0.741020
H581	H58	0.546010	0.362880	0.848330
H591	H59	0.446580	0.220600	0.576820
H601	H60	0.659250	0.355090	0.624740
H611	H61	0.967770	0.153070	0.741020
H621	H62	0.953990	0.137120	0.848330
H631	H63	0.053420	0.279400	0.576820
H641	H64	0.840750	0.144910	0.624740
H651	H65	0.084920	0.084920	0.567940
H661	H66	0.415080	0.415080	0.567940
H671	H67	0.415080	0.084920	0.067940
H681	H68	0.084920	0.415080	0.067940
H691	H69	0.915080	0.584920	0.932060
H701	H70	0.584920	0.915080	0.932060
H711	H71	0.584920	0.584920	0.432060
H721	H72	0.915080	0.915080	0.432060
C11	C1	0.118910	0.008840	0.717610
C21	C2	0.128430	0.018310	0.649050
C31	C3	0.094020	0.993540	0.862830
C41	C4	0.190500	0.965500	0.613260
C51	C5	0.261650	0.994780	0.580380
C61	C6	0.187800	0.878010	0.606690
C71	C7	0.381090	0.491160	0.717610
C81	C8	0.371570	0.481690	0.649050
C91	C9	0.405980	0.506460	0.862830
C101	C10	0.309500	0.534500	0.613260
C111	C11	0.238350	0.505220	0.580380
C121	C12	0.312200	0.621990	0.606690
C131	C13	0.491160	0.118910	0.217610
C141	C14	0.481690	0.128430	0.149050
C151	C15	0.506460	0.094020	0.362830
C161	C16	0.534500	0.190500	0.113260
C171	C17	0.505220	0.261650	0.080380
C181	C18	0.621990	0.187800	0.106690
C191	C19	0.008840	0.381090	0.217610
C201	C20	0.018310	0.371570	0.149050
C211	C21	0.993540	0.405980	0.362830
C221	C22	0.965500	0.309500	0.113260
C231	C23	0.994780	0.238350	0.080380
C241	C24	0.878010	0.312200	0.106690
C251	C25	0.881090	0.508840	0.782390
C261	C26	0.871570	0.518310	0.850950
C271	C27	0.905980	0.493540	0.637170
C281	C28	0.809500	0.465500	0.886740
C291	C29	0.738350	0.494780	0.919620
C301	C30	0.812200	0.378010	0.893310
C311	C31	0.618910	0.991160	0.782390
C321	C32	0.628430	0.981690	0.850950
C331	C33	0.594020	0.006460	0.637170
C341	C34	0.690500	0.034500	0.886740
C351	C35	0.761650	0.005220	0.919620
C361	C36	0.687800	0.121990	0.893310
C371	C37	0.508840	0.618910	0.282390
C381	C38	0.518310	0.628430	0.350950
C391	C39	0.493540	0.594020	0.137170
C401	C40	0.465500	0.690500	0.386740
C411	C41	0.494780	0.761650	0.419620
C421	C42	0.378010	0.687800	0.393310
C431	C43	0.991160	0.881090	0.282390
C441	C44	0.981690	0.871570	0.350950
C451	C45	0.006460	0.905980	0.137170
C461	C46	0.034500	0.809500	0.386740
C471	C47	0.005220	0.738350	0.419620
C481	C48	0.121990	0.812200	0.393310
C491	C49	0.881090	0.991160	0.282390
C501	C50	0.871570	0.981690	0.350950
C511	C51	0.905980	0.006460	0.137170
C521	C52	0.809500	0.034500	0.386740
C531	C53	0.738350	0.005220	0.419620
C541	C54	0.812200	0.121990	0.393310
C551	C55	0.618910	0.508840	0.282390
C561	C56	0.628430	0.518310	0.350950
C571	C57	0.594020	0.493540	0.137170
C581	C58	0.690500	0.465500	0.386740
C591	C59	0.761650	0.494780	0.419620
C601	C60	0.687800	0.378010	0.393310
C611	C61	0.508840	0.881090	0.782390
C621	C62	0.518310	0.871570	0.850950
C631	C63	0.493540	0.905980	0.637170
C641	C64	0.465500	0.809500	0.886740
C651	C65	0.494780	0.738350	0.919620
C661	C66	0.378010	0.812200	0.893310
C671	C67	0.991160	0.618910	0.782390
C681	C68	0.981690	0.628430	0.850950
C691	C69	0.006460	0.594020	0.637170
C701	C70	0.034500	0.690500	0.886740
C711	C71	0.005220	0.761650	0.919620
C721	C72	0.121990	0.687800	0.893310
C731	C73	0.118910	0.491160	0.217610
C741	C74	0.128430	0.481690	0.149050
C751	C75	0.094020	0.506460	0.362830
C761	C76	0.190500	0.534500	0.113260
C771	C77	0.261650	0.505220	0.080380
C781	C78	0.187800	0.621990	0.106690
C791	C79	0.381090	0.008840	0.217610
C801	C80	0.371570	0.018310	0.149050
C811	C81	0.405980	0.993540	0.362830
C821	C82	0.309500	0.965500	0.113260
C831	C83	0.238350	0.994780	0.080380
C841	C84	0.312200	0.878010	0.106690
C851	C85	0.491160	0.381090	0.717610
C861	C86	0.481690	0.371570	0.649050
C871	C87	0.506460	0.405980	0.862830
C881	C88	0.534500	0.309500	0.613260
C891	C89	0.505220	0.238350	0.580380
C901	C90	0.621990	0.312200	0.606690
C911	C91	0.008840	0.118910	0.717610
C921	C92	0.018310	0.128430	0.649050
C931	C93	0.993540	0.094020	0.862830
C941	C94	0.965500	0.190500	0.613260
C951	C95	0.994780	0.261650	0.580380
C961	C96	0.878010	0.187800	0.606690
C971	C97	0.059430	0.059430	0.751910
C981	C98	0.078430	0.078430	0.614800
C991	C99	0.049530	0.049530	0.823430
C1001	C100	0.440570	0.440570	0.751910
C1011	C101	0.421570	0.421570	0.614800
C1021	C102	0.450480	0.450470	0.823430
C1031	C103	0.440570	0.059430	0.251910
C1041	C104	0.421570	0.078430	0.114800
C1051	C105	0.450470	0.049530	0.323430
C1061	C106	0.059430	0.440570	0.251910
C1071	C107	0.078430	0.421570	0.114800
C1081	C108	0.049530	0.450480	0.323430
C1091	C109	0.940570	0.559430	0.748090
C1101	C110	0.921570	0.578430	0.885200
C1111	C111	0.950470	0.549520	0.676570
C1121	C112	0.559430	0.940570	0.748090
C1131	C113	0.578430	0.921570	0.885200
C1141	C114	0.549530	0.950480	0.676570
C1151	C115	0.559430	0.559430	0.248090
C1161	C116	0.578430	0.578430	0.385200
C1171	C117	0.549520	0.549530	0.176570
C1181	C118	0.940570	0.940570	0.248090
C1191	C119	0.921570	0.921570	0.385200
C1201	C120	0.950480	0.950470	0.176570
N11	N1	0.066050	0.004050	0.926630
N21	N2	0.302910	0.925370	0.553480
N31	N3	0.257270	0.853200	0.569750
N41	N4	0.433950	0.495950	0.926630
N51	N5	0.197090	0.574630	0.553480
N61	N6	0.242730	0.646800	0.569750
N71	N7	0.495950	0.066050	0.426630
N81	N8	0.574630	0.302910	0.053480
N91	N9	0.646800	0.257270	0.069750
N101	N10	0.004050	0.433950	0.426630
N111	N11	0.925370	0.197090	0.053480
N121	N12	0.853200	0.242730	0.069750
N131	N13	0.933950	0.504050	0.573370
N141	N14	0.697090	0.425370	0.946520
N151	N15	0.742730	0.353200	0.930250
N161	N16	0.566050	0.995950	0.573370
N171	N17	0.802910	0.074630	0.946520
N181	N18	0.757270	0.146800	0.930250
N191	N19	0.504050	0.566050	0.073370
N201	N20	0.425370	0.802910	0.446520
N211	N21	0.353200	0.757270	0.430250
N221	N22	0.995950	0.933950	0.073370
N231	N23	0.074630	0.697090	0.446520
N241	N24	0.146800	0.742730	0.430250
N251	N25	0.933950	0.995950	0.073370
N261	N26	0.697090	0.074630	0.446520
N271	N27	0.742730	0.146800	0.430250
N281	N28	0.566050	0.504050	0.073370
N291	N29	0.802910	0.425370	0.446520
N301	N30	0.757270	0.353200	0.430250
N311	N31	0.504050	0.933950	0.573370
N321	N32	0.425370	0.697090	0.946520
N331	N33	0.353200	0.742730	0.930250
N341	N34	0.995950	0.566050	0.573370
N351	N35	0.074630	0.802910	0.946520
N361	N36	0.146800	0.757270	0.930250
N371	N37	0.066050	0.495950	0.426630
N381	N38	0.302910	0.574630	0.053480
N391	N39	0.257270	0.646800	0.069750
N401	N40	0.433950	0.004050	0.426630
N411	N41	0.197090	0.925370	0.053480
N421	N42	0.242730	0.853200	0.069750
N431	N43	0.495950	0.433950	0.926630
N441	N44	0.574630	0.197090	0.553480
N451	N45	0.646800	0.242730	0.569750
N461	N46	0.004050	0.066050	0.926630
N471	N47	0.925370	0.302910	0.553480
N481	N48	0.853200	0.257270	0.569750
