data_UVASAM01_freeONLY_PM
_symmetry_space_group_name_H-M	'P1'
_cell_length_a	8.398500
_cell_length_b	13.483600
_cell_length_c	14.186300
_cell_angle_alpha	61.625500
_cell_angle_beta	85.794000
_cell_angle_gamma	81.122000
_symmetry_Int_Tables_number 1

loop_
_symmetry_equiv_pos_as_xyz
'x,y,z'

loop_
_atom_site_label
_atom_site_type_symbol
_atom_site_fract_x
_atom_site_fract_y
_atom_site_fract_z
Zn11	Zn1	0.696430	0.608920	0.182340
Zn21	Zn2	0.196430	0.791260	0.817660
H11	H1	0.295800	0.218000	0.527000
H21	H2	0.891000	0.119500	0.109000
H31	H3	0.494200	0.144700	0.163200
H41	H4	0.694300	0.264300	0.405800
H51	H5	0.696000	0.793500	0.232800
H61	H6	0.272300	0.141400	0.828800
H71	H7	0.569900	0.519100	0.921600
H81	H8	0.894400	0.971700	0.889200
H91	H9	0.792100	0.690500	0.805000
H101	H10	0.070300	0.331100	0.479600
H111	H11	0.329900	0.845400	0.598400
H121	H12	0.817900	0.791400	0.961400
H131	H13	0.795800	0.745000	0.473000
H141	H14	0.044400	0.600300	0.125000
H151	H15	0.188400	0.685000	0.259600
H161	H16	0.930800	0.139000	0.906600
H171	H17	0.394400	0.860900	0.110800
H181	H18	0.582600	0.258500	0.224200
H191	H19	0.317900	0.752800	0.038600
H201	H20	0.292100	0.495500	0.195000
H211	H21	0.194300	0.670100	0.594200
H221	H22	0.473300	0.404200	0.861000
H231	H23	0.082600	0.482700	0.775800
H241	H24	0.688400	0.944600	0.740400
H251	H25	0.570300	0.810700	0.520400
H261	H26	0.461400	0.361300	0.349600
H271	H27	0.994200	0.307900	0.836800
H281	H28	0.544400	0.725300	0.875000
H291	H29	0.448900	0.057500	0.662000
H301	H30	0.961400	0.710900	0.650400
H311	H31	0.391000	0.228500	0.891000
H321	H32	0.430800	0.045600	0.093400
H331	H33	0.432000	0.629100	0.520000
H341	H34	0.069900	0.440700	0.078400
H351	H35	0.973300	0.265200	0.139000
H361	H36	0.196000	0.026300	0.767200
H371	H37	0.932000	0.149100	0.480000
H381	H38	0.772300	0.970200	0.171200
H391	H39	0.829900	0.443800	0.401600
H401	H40	0.948900	0.719500	0.338000
C11	C1	0.509300	0.220600	0.113800
C21	C2	0.068200	0.387100	0.406400
C31	C3	0.356700	0.897300	0.039000
C41	C4	0.009300	0.334400	0.886200
C51	C5	0.708500	0.749000	0.653600
C61	C6	0.581700	0.399700	0.079600
C71	C7	0.856700	0.936300	0.961000
C81	C8	0.739400	0.829300	0.162600
C91	C9	0.424900	0.812800	0.640800
C101	C10	0.239400	0.991900	0.837400
C111	C11	0.478500	0.262200	0.004400
C121	C12	0.903800	0.102100	0.980600
C131	C13	0.809700	0.828200	0.004800
C141	C14	0.848400	0.991600	0.022000
C151	C15	0.403800	0.082700	0.019400
C161	C16	0.836700	0.036200	0.619200
C171	C17	0.888500	0.726600	0.515800
C181	C18	0.868100	0.726400	0.609000
C191	C19	0.309700	0.833000	0.995200
C201	C20	0.784300	0.935000	0.126400
C211	C21	0.284300	0.061400	0.873600
C221	C22	0.920200	0.156100	0.035400
C231	C23	0.699000	0.722300	0.760800
C241	C24	0.133300	0.593500	0.877600
C251	C25	0.192600	0.672700	0.526200
C261	C26	0.047800	0.702800	0.374400
C271	C27	0.388500	0.242400	0.484200
C281	C28	0.334000	0.649500	0.481600
C291	C29	0.052800	0.414300	0.029200
C301	C30	0.690000	0.009700	0.672000
C311	C31	0.552800	0.443500	0.970800
C321	C32	0.420200	0.191500	0.964600
C331	C33	0.061000	0.438500	0.850000
C341	C34	0.491800	0.631200	0.331600
C351	C35	0.199000	0.483100	0.239200
C361	C36	0.368100	0.335400	0.391000
C371	C37	0.834000	0.131100	0.518400
C381	C38	0.190000	0.681700	0.328000
C391	C39	0.561000	0.288500	0.150000
C401	C40	0.336700	0.655400	0.380800
C411	C41	0.633300	0.471100	0.122400
C421	C42	0.978500	0.266600	0.995600
C431	C43	0.497700	0.373700	0.934800
C441	C44	0.924900	0.453600	0.359200
C451	C45	0.046500	0.700000	0.473600
C461	C46	0.692600	0.198900	0.473800
C471	C47	0.546500	0.173600	0.526400
C481	C48	0.208500	0.402600	0.346400
C491	C49	0.550300	0.743200	0.801600
C501	C50	0.050300	0.544800	0.198400
C511	C51	0.348400	0.013600	0.978000
C521	C52	0.991800	0.962800	0.668400
C531	C53	0.568200	0.793500	0.593600
C541	C54	0.081700	0.479300	0.920400
C551	C55	0.547800	0.077200	0.625600
C561	C56	0.997700	0.308500	0.065200
N11	N1	0.253300	0.878600	0.895000
N21	N2	0.753300	0.773600	0.105000
N31	N3	0.916100	0.531400	0.255200
N41	N4	0.416100	0.786600	0.744800
O11	O1	0.485400	0.642600	0.238200
O21	O2	0.152800	0.635310	0.940380
O31	O3	0.985400	0.880800	0.761800
O41	O4	0.621200	0.604700	0.382200
O51	O5	0.657200	0.430850	0.220900
O61	O6	0.652800	0.575690	0.059620
O71	O7	0.157200	0.651750	0.779100
O81	O8	0.121200	0.986900	0.617800
