data_UVINAP_freeONLY_PM
_symmetry_space_group_name_H-M	'P1'
_cell_length_a	6.287200
_cell_length_b	14.314000
_cell_length_c	14.314000
_cell_angle_alpha	90.000000
_cell_angle_beta	90.000000
_cell_angle_gamma	90.000000
_symmetry_Int_Tables_number 1

loop_
_symmetry_equiv_pos_as_xyz
'x,y,z'

loop_
_atom_site_label
_atom_site_type_symbol
_atom_site_fract_x
_atom_site_fract_y
_atom_site_fract_z
Co11	Co1	0.750000	0.750000	0.750000
Co21	Co2	0.250000	0.250000	0.250000
H11	H1	0.235700	0.047900	0.885300
H21	H2	0.041300	0.852700	0.062800
H31	H3	0.382900	0.905300	0.798200
H41	H4	0.675700	0.724700	0.965800
H51	H5	0.414600	0.810400	0.048000
H61	H6	0.235700	0.452100	0.614700
H71	H7	0.041300	0.647300	0.437200
H81	H8	0.382900	0.594700	0.701800
H91	H9	0.675700	0.775300	0.534200
H101	H10	0.414600	0.689600	0.452000
H111	H11	0.735700	0.114700	0.547900
H121	H12	0.541300	0.937200	0.352700
H131	H13	0.882900	0.201800	0.405300
H141	H14	0.175700	0.034200	0.224700
H151	H15	0.914600	0.952000	0.310400
H161	H16	0.735700	0.385300	0.952100
H171	H17	0.541300	0.562800	0.147300
H181	H18	0.882900	0.298200	0.094700
H191	H19	0.175700	0.465800	0.275300
H201	H20	0.914600	0.548000	0.189600
H211	H21	0.764300	0.952100	0.114700
H221	H22	0.958700	0.147300	0.937200
H231	H23	0.617100	0.094700	0.201800
H241	H24	0.324300	0.275300	0.034200
H251	H25	0.585400	0.189600	0.952000
H261	H26	0.764300	0.547900	0.385300
H271	H27	0.958700	0.352700	0.562800
H281	H28	0.617100	0.405300	0.298200
H291	H29	0.324300	0.224700	0.465800
H301	H30	0.585400	0.310400	0.548000
H311	H31	0.264300	0.885300	0.452100
H321	H32	0.458700	0.062800	0.647300
H331	H33	0.117100	0.798200	0.594700
H341	H34	0.824300	0.965800	0.775300
H351	H35	0.085400	0.048000	0.689600
H361	H36	0.264300	0.614700	0.047900
H371	H37	0.458700	0.437200	0.852700
H381	H38	0.117100	0.701800	0.905300
H391	H39	0.824300	0.534200	0.724700
H401	H40	0.085400	0.452000	0.810400
C11	C1	0.160900	0.942200	0.971000
C21	C2	0.141800	0.028390	0.931490
C31	C3	0.025600	0.912100	0.037400
C41	C4	0.422000	0.871800	0.851200
C51	C5	0.586400	0.770600	0.941800
C61	C6	0.337200	0.883800	0.938000
C71	C7	0.160900	0.557800	0.529000
C81	C8	0.141800	0.471610	0.568510
C91	C9	0.025600	0.587900	0.462600
C101	C10	0.422000	0.628200	0.648800
C111	C11	0.586400	0.729400	0.558200
C121	C12	0.337200	0.616200	0.562000
C131	C13	0.660900	0.029000	0.442200
C141	C14	0.641800	0.068510	0.528390
C151	C15	0.525600	0.962600	0.412100
C161	C16	0.922000	0.148800	0.371800
C171	C17	0.086400	0.058200	0.270600
C181	C18	0.837200	0.062000	0.383800
C191	C19	0.660900	0.471000	0.057800
C201	C20	0.641800	0.431490	0.971610
C211	C21	0.525600	0.537400	0.087900
C221	C22	0.922000	0.351200	0.128200
C231	C23	0.086400	0.441800	0.229400
C241	C24	0.837200	0.438000	0.116200
C251	C25	0.839100	0.057800	0.029000
C261	C26	0.858200	0.971610	0.068510
C271	C27	0.974400	0.087900	0.962600
C281	C28	0.578000	0.128200	0.148800
C291	C29	0.413600	0.229400	0.058200
C301	C30	0.662800	0.116200	0.062000
C311	C31	0.839100	0.442200	0.471000
C321	C32	0.858200	0.528390	0.431490
C331	C33	0.974400	0.412100	0.537400
C341	C34	0.578000	0.371800	0.351200
C351	C35	0.413600	0.270600	0.441800
C361	C36	0.662800	0.383800	0.438000
C371	C37	0.339100	0.971000	0.557800
C381	C38	0.358200	0.931490	0.471610
C391	C39	0.474400	0.037400	0.587900
C401	C40	0.078000	0.851200	0.628200
C411	C41	0.913600	0.941800	0.729400
C421	C42	0.162800	0.938000	0.616200
C431	C43	0.339100	0.529000	0.942200
C441	C44	0.358200	0.568510	0.028390
C451	C45	0.474400	0.462600	0.912100
C461	C46	0.078000	0.648800	0.871800
C471	C47	0.913600	0.558200	0.770600
C481	C48	0.162800	0.562000	0.883800
N11	N1	0.580000	0.800070	0.853980
N21	N2	0.440100	0.819440	0.989710
N31	N3	0.580000	0.699930	0.646020
N41	N4	0.440100	0.680560	0.510290
N51	N5	0.080000	0.146020	0.300070
N61	N6	0.940100	0.010290	0.319440
N71	N7	0.080000	0.353980	0.199930
N81	N8	0.940100	0.489710	0.180560
N91	N9	0.420000	0.199930	0.146020
N101	N10	0.559900	0.180560	0.010290
N111	N11	0.420000	0.300070	0.353980
N121	N12	0.559900	0.319440	0.489710
N131	N13	0.920000	0.853980	0.699930
N141	N14	0.059900	0.989710	0.680560
N151	N15	0.920000	0.646020	0.800070
N161	N16	0.059900	0.510290	0.819440
