data_UXUNUX_freeONLY_PM
_symmetry_space_group_name_H-M	'P1'
_cell_length_a	18.064000
_cell_length_b	22.113700
_cell_length_c	22.113700
_cell_angle_alpha	80.397000
_cell_angle_beta	65.893400
_cell_angle_gamma	65.893300
_symmetry_Int_Tables_number 1

loop_
_symmetry_equiv_pos_as_xyz
'x,y,z'

loop_
_atom_site_label
_atom_site_type_symbol
_atom_site_fract_x
_atom_site_fract_y
_atom_site_fract_z
Cu11	Cu1	0.759960	0.990040	0.490040
Cu21	Cu2	0.740040	0.509960	0.009960
Cu31	Cu3	0.250000	0.490040	0.509960
Cu41	Cu4	0.750000	0.009960	0.990040
H11	H1	0.724000	0.922300	0.620100
H21	H2	0.716000	0.930300	0.724900
H31	H3	0.789400	0.085300	0.663300
H41	H4	0.786700	0.076800	0.562200
H51	H5	0.637600	0.999200	0.928400
H61	H6	0.640300	0.992400	0.825800
H71	H7	0.853500	0.039600	0.745800
H81	H8	0.848300	0.041100	0.851900
H91	H9	0.766400	0.577700	0.879900
H101	H10	0.871200	0.569700	0.775100
H111	H11	0.038000	0.414700	0.836700
H121	H12	0.925700	0.423200	0.937800
H131	H13	0.065200	0.500800	0.571600
H141	H14	0.958500	0.507600	0.674200
H151	H15	0.138900	0.460400	0.754200
H161	H16	0.241300	0.458900	0.648100
H171	H17	0.733600	0.120100	0.422300
H181	H18	0.628800	0.224900	0.430300
H191	H19	0.462000	0.163300	0.585300
H201	H20	0.574300	0.062200	0.576800
H211	H21	0.434800	0.428400	0.499200
H221	H22	0.541500	0.325800	0.492400
H231	H23	0.361100	0.245800	0.539600
H241	H24	0.258700	0.351900	0.541100
H251	H25	0.776000	0.379900	0.077700
H261	H26	0.784000	0.275100	0.069700
H271	H27	0.710600	0.336700	0.914700
H281	H28	0.713300	0.437800	0.923200
H291	H29	0.862400	0.071600	0.000800
H301	H30	0.859700	0.174200	0.007600
H311	H31	0.646500	0.254200	0.960400
H321	H32	0.651700	0.148100	0.958900
H331	H33	0.155900	0.620100	0.577700
H341	H34	0.059100	0.724900	0.569700
H351	H35	0.047300	0.663300	0.414700
H361	H36	0.151100	0.562200	0.423200
H371	H37	0.934000	0.928400	0.500800
H381	H38	0.033900	0.825800	0.507600
H391	H39	0.900700	0.745800	0.460400
H401	H40	0.799800	0.851900	0.458900
H411	H41	0.853700	0.879900	0.922300
H421	H42	0.853700	0.775100	0.930300
H431	H43	0.625300	0.836700	0.085300
H441	H44	0.636500	0.937800	0.076800
H451	H45	0.863200	0.571600	0.999200
H461	H46	0.867300	0.674200	0.992400
H471	H47	0.606900	0.754200	0.039600
H481	H48	0.610600	0.648100	0.041100
H491	H49	0.646300	0.077700	0.120100
H501	H50	0.646300	0.069700	0.224900
H511	H51	0.874700	0.914700	0.163300
H521	H52	0.863500	0.923200	0.062200
H531	H53	0.636800	0.000800	0.428400
H541	H54	0.632700	0.007600	0.325800
H551	H55	0.893100	0.960400	0.245800
H561	H56	0.889400	0.958900	0.351900
H571	H57	0.344100	0.422300	0.379900
H581	H58	0.440900	0.430300	0.275100
H591	H59	0.452700	0.585300	0.336700
H601	H60	0.348900	0.576800	0.437800
H611	H61	0.566000	0.499200	0.071600
H621	H62	0.466100	0.492400	0.174200
H631	H63	0.599300	0.539600	0.254200
H641	H64	0.700200	0.541100	0.148100
C11	C1	0.735600	0.956200	0.629600
C21	C2	0.731400	0.960400	0.692400
C31	C3	0.750200	0.010300	0.706900
C41	C4	0.773700	0.052700	0.656300
C51	C5	0.773600	0.046390	0.595210
C61	C6	0.682600	0.005700	0.891300
C71	C7	0.683100	0.002600	0.830000
C81	C8	0.747600	0.014400	0.774000
C91	C9	0.810300	0.030100	0.782100
C101	C10	0.806400	0.031000	0.846200
C111	C11	0.821400	0.543800	0.870400
C121	C12	0.884200	0.539600	0.807600
C131	C13	0.967400	0.489700	0.793100
C141	C14	0.982700	0.447300	0.843700
C151	C15	0.915200	0.453610	0.904790
C161	C16	0.079600	0.494300	0.608700
C171	C17	0.015700	0.497400	0.670000
C181	C18	0.036000	0.485600	0.726000
C191	C19	0.122500	0.469900	0.717900
C201	C20	0.183600	0.469000	0.653800
C211	C21	0.678600	0.129600	0.456200
C221	C22	0.615800	0.192400	0.460400
C231	C23	0.532600	0.206900	0.510300
C241	C24	0.517300	0.156300	0.552700
C251	C25	0.584800	0.095210	0.546390
C261	C26	0.420400	0.391300	0.505700
C271	C27	0.484300	0.330000	0.502600
C281	C28	0.464000	0.274000	0.514400
C291	C29	0.377500	0.282100	0.530100
C301	C30	0.316400	0.346200	0.531000
C311	C31	0.764400	0.370400	0.043800
C321	C32	0.768600	0.307600	0.039600
C331	C33	0.749800	0.293100	0.989700
C341	C34	0.726300	0.343700	0.947300
C351	C35	0.726400	0.404790	0.953610
C361	C36	0.817400	0.108700	0.994300
C371	C37	0.816900	0.170000	0.997400
C381	C38	0.752400	0.226000	0.985600
C391	C39	0.689700	0.217900	0.969900
C401	C40	0.693600	0.153800	0.969000
C411	C41	0.134800	0.629600	0.543800
C421	C42	0.076200	0.692400	0.539600
C431	C43	0.042900	0.706900	0.489700
C441	C44	0.070000	0.656300	0.447300
C451	C45	0.131190	0.595210	0.453610
C461	C46	0.926100	0.891300	0.494300
C471	C47	0.986900	0.830000	0.497400
C481	C48	0.978400	0.774000	0.485600
C491	C49	0.907600	0.782100	0.469900
C501	C50	0.847400	0.846200	0.469000
C511	C51	0.808200	0.870400	0.956200
C521	C52	0.808200	0.807600	0.960400
C531	C53	0.739500	0.793100	0.010300
C541	C54	0.673600	0.843700	0.052700
C551	C55	0.680010	0.904790	0.046390
C561	C56	0.811700	0.608700	0.005700
C571	C57	0.814300	0.670000	0.002600
C581	C58	0.738000	0.726000	0.014400
C591	C59	0.659600	0.717900	0.030100
C601	C60	0.662600	0.653800	0.031000
C611	C61	0.691800	0.043800	0.129600
C621	C62	0.691800	0.039600	0.192400
C631	C63	0.760500	0.989700	0.206900
C641	C64	0.826400	0.947300	0.156300
C651	C65	0.819990	0.953610	0.095210
C661	C66	0.688300	0.994300	0.391300
C671	C67	0.685700	0.997400	0.330000
C681	C68	0.762000	0.985600	0.274000
C691	C69	0.840400	0.969900	0.282100
C701	C70	0.837400	0.969000	0.346200
C711	C71	0.365200	0.456200	0.370400
C721	C72	0.423800	0.460400	0.307600
C731	C73	0.457100	0.510300	0.293100
C741	C74	0.430000	0.552700	0.343700
C751	C75	0.368810	0.546390	0.404790
C761	C76	0.573900	0.505700	0.108700
C771	C77	0.513100	0.502600	0.170000
C781	C78	0.521600	0.514400	0.226000
C791	C79	0.592400	0.530100	0.217900
C801	C80	0.652600	0.531000	0.153800
N11	N1	0.755960	0.999220	0.581260
N21	N2	0.744810	0.017860	0.899920
N31	N3	0.836440	0.500780	0.918740
N41	N4	0.162590	0.482140	0.600080
N51	N5	0.663560	0.081260	0.499220
N61	N6	0.337410	0.399920	0.517860
N71	N7	0.744040	0.418740	0.000780
N81	N8	0.755190	0.100080	0.982140
N91	N9	0.162780	0.581260	0.500780
N101	N10	0.855270	0.899920	0.482140
N111	N11	0.744820	0.918740	0.999220
N121	N12	0.737330	0.600080	0.017860
N131	N13	0.755180	0.000780	0.081260
N141	N14	0.762670	0.982140	0.399920
N151	N15	0.337220	0.499220	0.418740
N161	N16	0.644730	0.517860	0.100080
Cu51	Cu5	0.750000	0.509960	0.490040
Cu61	Cu6	0.250000	0.990040	0.009960
Cu71	Cu7	0.240040	0.009960	0.509960
Cu81	Cu8	0.259960	0.490040	0.990040
H651	H65	0.844100	0.379900	0.422300
H661	H66	0.940900	0.275100	0.430300
H671	H67	0.952700	0.336700	0.585300
H681	H68	0.848900	0.437800	0.576800
H691	H69	0.066000	0.071600	0.499200
H701	H70	0.966100	0.174200	0.492400
H711	H71	0.099300	0.254200	0.539600
H721	H72	0.200200	0.148100	0.541100
H731	H73	0.146300	0.120100	0.077700
H741	H74	0.146300	0.224900	0.069700
H751	H75	0.374700	0.163300	0.914700
H761	H76	0.363500	0.062200	0.923200
H771	H77	0.136800	0.428400	0.000800
H781	H78	0.132700	0.325800	0.007600
H791	H79	0.393100	0.245800	0.960400
H801	H80	0.389400	0.351900	0.958900
H811	H81	0.353700	0.922300	0.879900
H821	H82	0.353700	0.930300	0.775100
H831	H83	0.125300	0.085300	0.836700
H841	H84	0.136500	0.076800	0.937800
H851	H85	0.363200	0.999200	0.571600
H861	H86	0.367300	0.992400	0.674200
H871	H87	0.106900	0.039600	0.754200
H881	H88	0.110600	0.041100	0.648100
H891	H89	0.655900	0.577700	0.620100
H901	H90	0.559100	0.569700	0.724900
H911	H91	0.547300	0.414700	0.663300
H921	H92	0.651100	0.423200	0.562200
H931	H93	0.434000	0.500800	0.928400
H941	H94	0.533900	0.507600	0.825800
H951	H95	0.400700	0.460400	0.745800
H961	H96	0.299800	0.458900	0.851900
H971	H97	0.276000	0.077700	0.379900
H981	H98	0.284000	0.069700	0.275100
H991	H99	0.210600	0.914700	0.336700
H1001	H100	0.213300	0.923200	0.437800
H1011	H101	0.362400	0.000800	0.071600
H1021	H102	0.359700	0.007600	0.174200
H1031	H103	0.146500	0.960400	0.254200
H1041	H104	0.151700	0.958900	0.148100
H1051	H105	0.233600	0.422300	0.120100
H1061	H106	0.128800	0.430300	0.224900
H1071	H107	0.962000	0.585300	0.163300
H1081	H108	0.074300	0.576800	0.062200
H1091	H109	0.934800	0.499200	0.428400
H1101	H110	0.041500	0.492400	0.325800
H1111	H111	0.861100	0.539600	0.245800
H1121	H112	0.758700	0.541100	0.351900
H1131	H113	0.266400	0.879900	0.577700
H1141	H114	0.371200	0.775100	0.569700
H1151	H115	0.538000	0.836700	0.414700
H1161	H116	0.425700	0.937800	0.423200
H1171	H117	0.565200	0.571600	0.500800
H1181	H118	0.458500	0.674200	0.507600
H1191	H119	0.638900	0.754200	0.460400
H1201	H120	0.741300	0.648100	0.458900
H1211	H121	0.224000	0.620100	0.922300
H1221	H122	0.216000	0.724900	0.930300
H1231	H123	0.289400	0.663300	0.085300
H1241	H124	0.286700	0.562200	0.076800
H1251	H125	0.137600	0.928400	0.999200
H1261	H126	0.140300	0.825800	0.992400
H1271	H127	0.353500	0.745800	0.039600
H1281	H128	0.348300	0.851900	0.041100
C811	C81	0.865200	0.370400	0.456200
C821	C82	0.923800	0.307600	0.460400
C831	C83	0.957100	0.293100	0.510300
C841	C84	0.930000	0.343700	0.552700
C851	C85	0.868810	0.404790	0.546390
C861	C86	0.073900	0.108700	0.505700
C871	C87	0.013100	0.170000	0.502600
C881	C88	0.021600	0.226000	0.514400
C891	C89	0.092400	0.217900	0.530100
C901	C90	0.152600	0.153800	0.531000
C911	C91	0.191800	0.129600	0.043800
C921	C92	0.191800	0.192400	0.039600
C931	C93	0.260500	0.206900	0.989700
C941	C94	0.326400	0.156300	0.947300
C951	C95	0.319990	0.095210	0.953610
C961	C96	0.188300	0.391300	0.994300
C971	C97	0.185700	0.330000	0.997400
C981	C98	0.262000	0.274000	0.985600
C991	C99	0.340400	0.282100	0.969900
C1001	C100	0.337400	0.346200	0.969000
C1011	C101	0.308200	0.956200	0.870400
C1021	C102	0.308200	0.960400	0.807600
C1031	C103	0.239500	0.010300	0.793100
C1041	C104	0.173600	0.052700	0.843700
C1051	C105	0.180010	0.046390	0.904790
C1061	C106	0.311700	0.005700	0.608700
C1071	C107	0.314300	0.002600	0.670000
C1081	C108	0.238000	0.014400	0.726000
C1091	C109	0.159600	0.030100	0.717900
C1101	C110	0.162600	0.031000	0.653800
C1111	C111	0.634800	0.543800	0.629600
C1121	C112	0.576200	0.539600	0.692400
C1131	C113	0.542900	0.489700	0.706900
C1141	C114	0.570000	0.447300	0.656300
C1151	C115	0.631190	0.453610	0.595210
C1161	C116	0.426100	0.494300	0.891300
C1171	C117	0.486900	0.497400	0.830000
C1181	C118	0.478400	0.485600	0.774000
C1191	C119	0.407600	0.469900	0.782100
C1201	C120	0.347400	0.469000	0.846200
C1211	C121	0.264400	0.043800	0.370400
C1221	C122	0.268600	0.039600	0.307600
C1231	C123	0.249800	0.989700	0.293100
C1241	C124	0.226300	0.947300	0.343700
C1251	C125	0.226400	0.953610	0.404790
C1261	C126	0.317400	0.994300	0.108700
C1271	C127	0.316900	0.997400	0.170000
C1281	C128	0.252400	0.985600	0.226000
C1291	C129	0.189700	0.969900	0.217900
C1301	C130	0.193600	0.969000	0.153800
C1311	C131	0.178600	0.456200	0.129600
C1321	C132	0.115800	0.460400	0.192400
C1331	C133	0.032600	0.510300	0.206900
C1341	C134	0.017300	0.552700	0.156300
C1351	C135	0.084800	0.546390	0.095210
C1361	C136	0.920400	0.505700	0.391300
C1371	C137	0.984300	0.502600	0.330000
C1381	C138	0.964000	0.514400	0.274000
C1391	C139	0.877500	0.530100	0.282100
C1401	C140	0.816400	0.531000	0.346200
C1411	C141	0.321400	0.870400	0.543800
C1421	C142	0.384200	0.807600	0.539600
C1431	C143	0.467400	0.793100	0.489700
C1441	C144	0.482700	0.843700	0.447300
C1451	C145	0.415200	0.904790	0.453610
C1461	C146	0.579600	0.608700	0.494300
C1471	C147	0.515700	0.670000	0.497400
C1481	C148	0.536000	0.726000	0.485600
C1491	C149	0.622500	0.717900	0.469900
C1501	C150	0.683600	0.653800	0.469000
C1511	C151	0.235600	0.629600	0.956200
C1521	C152	0.231400	0.692400	0.960400
C1531	C153	0.250200	0.706900	0.010300
C1541	C154	0.273700	0.656300	0.052700
C1551	C155	0.273600	0.595210	0.046390
C1561	C156	0.182600	0.891300	0.005700
C1571	C157	0.183100	0.830000	0.002600
C1581	C158	0.247600	0.774000	0.014400
C1591	C159	0.310300	0.782100	0.030100
C1601	C160	0.306400	0.846200	0.031000
N171	N17	0.837220	0.418740	0.499220
N181	N18	0.144730	0.100080	0.517860
N191	N19	0.255180	0.081260	0.000780
N201	N20	0.262670	0.399920	0.982140
N211	N21	0.244820	0.999220	0.918740
N221	N22	0.237330	0.017860	0.600080
N231	N23	0.662780	0.500780	0.581260
N241	N24	0.355270	0.482140	0.899920
N251	N25	0.244040	0.000780	0.418740
N261	N26	0.255190	0.982140	0.100080
N271	N27	0.163560	0.499220	0.081260
N281	N28	0.837410	0.517860	0.399920
N291	N29	0.336440	0.918740	0.500780
N301	N30	0.662590	0.600080	0.482140
N311	N31	0.255960	0.581260	0.999220
N321	N32	0.244810	0.899920	0.017860
