data_UXUPEJ_freeONLY_PM
_symmetry_space_group_name_H-M	'P1'
_cell_length_a	18.078200
_cell_length_b	22.148500
_cell_length_c	22.148500
_cell_angle_alpha	80.412400
_cell_angle_beta	65.913700
_cell_angle_gamma	65.913700
_symmetry_Int_Tables_number 1

loop_
_symmetry_equiv_pos_as_xyz
'x,y,z'

loop_
_atom_site_label
_atom_site_type_symbol
_atom_site_fract_x
_atom_site_fract_y
_atom_site_fract_z
Cu11	Cu1	0.739920	0.510080	0.010080
Cu21	Cu2	0.760080	0.989920	0.489920
Cu31	Cu3	0.750000	0.010080	0.989920
Cu41	Cu4	0.250000	0.489920	0.510080
H11	H1	0.569500	0.494600	0.072000
H21	H2	0.469100	0.487500	0.174500
H31	H3	0.595700	0.541500	0.254100
H41	H4	0.697200	0.543500	0.148700
H51	H5	0.350500	0.576700	0.436900
H61	H6	0.450200	0.585800	0.335000
H71	H7	0.439700	0.429600	0.276200
H81	H8	0.342800	0.422200	0.379600
H91	H9	0.636100	0.005400	0.428000
H101	H10	0.631100	0.012500	0.325500
H111	H11	0.891300	0.958500	0.245900
H121	H12	0.889400	0.956500	0.351300
H131	H13	0.864100	0.923300	0.063100
H141	H14	0.871000	0.914200	0.165000
H151	H15	0.645500	0.070400	0.223800
H161	H16	0.644600	0.077800	0.120400
H171	H17	0.863900	0.572000	0.994600
H181	H18	0.868900	0.674500	0.987500
H191	H19	0.608700	0.754100	0.041500
H201	H20	0.610600	0.648700	0.043500
H211	H21	0.635900	0.936900	0.076700
H221	H22	0.629000	0.835000	0.085800
H231	H23	0.854500	0.776200	0.929600
H241	H24	0.855400	0.879600	0.922200
H251	H25	0.930500	0.928000	0.505400
H261	H26	0.030900	0.825500	0.512500
H271	H27	0.904300	0.745900	0.458500
H281	H28	0.802800	0.851300	0.456500
H291	H29	0.149500	0.563100	0.423300
H301	H30	0.049800	0.665000	0.414200
H311	H31	0.060300	0.723800	0.570400
H321	H32	0.157200	0.620400	0.577800
H331	H33	0.858500	0.072000	0.005400
H341	H34	0.856400	0.174500	0.012500
H351	H35	0.650200	0.254100	0.958500
H361	H36	0.654100	0.148700	0.956500
H371	H37	0.712600	0.436900	0.923300
H381	H38	0.714800	0.335000	0.914200
H391	H39	0.784100	0.276200	0.070400
H401	H40	0.777600	0.379600	0.077800
H411	H41	0.435900	0.428000	0.494600
H421	H42	0.543400	0.325500	0.487500
H431	H43	0.362800	0.245900	0.541500
H441	H44	0.259300	0.351300	0.543500
H451	H45	0.572800	0.063100	0.576700
H461	H46	0.464000	0.165000	0.585800
H471	H47	0.630700	0.223800	0.429600
H481	H48	0.735000	0.120400	0.422200
H491	H49	0.064100	0.505400	0.572000
H501	H50	0.956600	0.512500	0.674500
H511	H51	0.137200	0.458500	0.754100
H521	H52	0.240700	0.456500	0.648700
H531	H53	0.927200	0.423300	0.936900
H541	H54	0.036000	0.414200	0.835000
H551	H55	0.869300	0.570400	0.776200
H561	H56	0.765000	0.577800	0.879600
H571	H57	0.641500	0.994600	0.928000
H581	H58	0.643600	0.987500	0.825500
H591	H59	0.849800	0.041500	0.745900
H601	H60	0.845900	0.043500	0.851300
H611	H61	0.787400	0.076700	0.563100
H621	H62	0.785200	0.085800	0.665000
H631	H63	0.715900	0.929600	0.723800
H641	H64	0.722400	0.922200	0.620400
C11	C1	0.575890	0.502830	0.108990
C21	C2	0.514670	0.499360	0.170500
C31	C3	0.520690	0.513380	0.225840
C41	C4	0.590100	0.530900	0.217700
C51	C5	0.650630	0.532160	0.154180
C61	C6	0.368810	0.546770	0.404010
C71	C7	0.428510	0.552520	0.342860
C81	C8	0.456510	0.509070	0.293110
C91	C9	0.422470	0.459950	0.308310
C101	C10	0.363810	0.456050	0.370330
C111	C11	0.687710	0.997170	0.391010
C121	C12	0.684530	0.000640	0.329500
C131	C13	0.759910	0.986620	0.274160
C141	C14	0.838700	0.969100	0.282300
C151	C15	0.836970	0.967840	0.345820
C161	C16	0.819590	0.953230	0.095990
C171	C17	0.823890	0.947480	0.157140
C181	C18	0.758690	0.990930	0.206890
C191	C19	0.690730	0.040050	0.191690
C201	C20	0.690190	0.043950	0.129670
C211	C21	0.812290	0.608990	0.002830
C221	C22	0.815470	0.670500	0.999360
C231	C23	0.740090	0.725840	0.013380
C241	C24	0.661300	0.717700	0.030900
C251	C25	0.663030	0.654180	0.032160
C261	C26	0.680410	0.904010	0.046770
C271	C27	0.676110	0.842860	0.052520
C281	C28	0.741310	0.793110	0.009070
C291	C29	0.809270	0.808310	0.959950
C301	C30	0.809810	0.870330	0.956050
C311	C31	0.924110	0.891010	0.497170
C321	C32	0.985330	0.829500	0.500640
C331	C33	0.979310	0.774160	0.486620
C341	C34	0.909900	0.782300	0.469100
C351	C35	0.849370	0.845820	0.467840
C361	C36	0.131190	0.595990	0.453230
C371	C37	0.071490	0.657140	0.447480
C381	C38	0.043490	0.706890	0.490930
C391	C39	0.077530	0.691690	0.540050
C401	C40	0.136190	0.629670	0.543950
C411	C41	0.815120	0.108990	0.997170
C421	C42	0.814830	0.170500	0.000640
C431	C43	0.753470	0.225840	0.986620
C441	C44	0.692200	0.217700	0.969100
C451	C45	0.695190	0.154180	0.967840
C461	C46	0.727180	0.404010	0.953230
C471	C47	0.728630	0.342860	0.947480
C481	C48	0.750380	0.293110	0.990930
C491	C49	0.769220	0.308310	0.040050
C501	C50	0.765860	0.370330	0.043950
C511	C51	0.421280	0.391010	0.502830
C521	C52	0.485970	0.329500	0.499360
C531	C53	0.465930	0.274160	0.513380
C541	C54	0.379000	0.282300	0.530900
C551	C55	0.317210	0.345820	0.532160
C561	C56	0.584420	0.095990	0.546770
C571	C57	0.518970	0.157140	0.552520
C581	C58	0.534420	0.206890	0.509070
C591	C59	0.617580	0.191690	0.459950
C601	C60	0.680140	0.129670	0.456050
C611	C61	0.078720	0.497170	0.608990
C621	C62	0.014030	0.500640	0.670500
C631	C63	0.034070	0.486620	0.725840
C641	C64	0.121000	0.469100	0.717700
C651	C65	0.182790	0.467840	0.654180
C661	C66	0.915580	0.453230	0.904010
C671	C67	0.981030	0.447480	0.842860
C681	C68	0.965580	0.490930	0.793110
C691	C69	0.882420	0.540050	0.808310
C701	C70	0.819860	0.543950	0.870330
C711	C71	0.684880	0.002830	0.891010
C721	C72	0.685170	0.999360	0.829500
C731	C73	0.746530	0.013380	0.774160
C741	C74	0.807800	0.030900	0.782300
C751	C75	0.804810	0.032160	0.845820
C761	C76	0.772820	0.046770	0.595990
C771	C77	0.771370	0.052520	0.657140
C781	C78	0.749620	0.009070	0.706890
C791	C79	0.730780	0.959950	0.691690
C801	C80	0.734140	0.956050	0.629670
N11	N1	0.644240	0.517640	0.100480
N21	N2	0.335400	0.499230	0.418370
N31	N3	0.762360	0.982360	0.399520
N41	N4	0.753000	0.000770	0.081630
N51	N5	0.737640	0.600480	0.017640
N61	N6	0.747000	0.918370	0.999230
N71	N7	0.855760	0.899520	0.482360
N81	N8	0.164600	0.581630	0.500770
N91	N9	0.755280	0.100480	0.982360
N101	N10	0.746230	0.418370	0.000770
N111	N11	0.338120	0.399520	0.517640
N121	N12	0.665370	0.081630	0.499230
N131	N13	0.161880	0.482360	0.600480
N141	N14	0.834630	0.500770	0.918370
N151	N15	0.744720	0.017640	0.899520
N161	N16	0.753770	0.999230	0.581630
Cu51	Cu5	0.250000	0.989920	0.010080
Cu61	Cu6	0.750000	0.510080	0.489920
Cu71	Cu7	0.260080	0.489920	0.989920
Cu81	Cu8	0.239920	0.010080	0.510080
H651	H65	0.141500	0.928000	0.994600
H661	H66	0.143600	0.825500	0.987500
H671	H67	0.349800	0.745900	0.041500
H681	H68	0.345900	0.851300	0.043500
H691	H69	0.287400	0.563100	0.076700
H701	H70	0.285200	0.665000	0.085800
H711	H71	0.215900	0.723800	0.929600
H721	H72	0.222400	0.620400	0.922200
H731	H73	0.564100	0.572000	0.505400
H741	H74	0.456600	0.674500	0.512500
H751	H75	0.637200	0.754100	0.458500
H761	H76	0.740700	0.648700	0.456500
H771	H77	0.427200	0.936900	0.423300
H781	H78	0.536000	0.835000	0.414200
H791	H79	0.369300	0.776200	0.570400
H801	H80	0.265000	0.879600	0.577800
H811	H81	0.935900	0.494600	0.428000
H821	H82	0.043400	0.487500	0.325500
H831	H83	0.862800	0.541500	0.245900
H841	H84	0.759300	0.543500	0.351300
H851	H85	0.072800	0.576700	0.063100
H861	H86	0.964000	0.585800	0.165000
H871	H87	0.130700	0.429600	0.223800
H881	H88	0.235000	0.422200	0.120400
H891	H89	0.358500	0.005400	0.072000
H901	H90	0.356400	0.012500	0.174500
H911	H91	0.150200	0.958500	0.254100
H921	H92	0.154100	0.956500	0.148700
H931	H93	0.212600	0.923300	0.436900
H941	H94	0.214800	0.914200	0.335000
H951	H95	0.284100	0.070400	0.276200
H961	H96	0.277600	0.077800	0.379600
H971	H97	0.430500	0.505400	0.928000
H981	H98	0.530900	0.512500	0.825500
H991	H99	0.404300	0.458500	0.745900
H1001	H100	0.302800	0.456500	0.851300
H1011	H101	0.649500	0.423300	0.563100
H1021	H102	0.549800	0.414200	0.665000
H1031	H103	0.560300	0.570400	0.723800
H1041	H104	0.657200	0.577800	0.620400
H1051	H105	0.363900	0.994600	0.572000
H1061	H106	0.368900	0.987500	0.674500
H1071	H107	0.108700	0.041500	0.754100
H1081	H108	0.110600	0.043500	0.648700
H1091	H109	0.135900	0.076700	0.936900
H1101	H110	0.129000	0.085800	0.835000
H1111	H111	0.354500	0.929600	0.776200
H1121	H112	0.355400	0.922200	0.879600
H1131	H113	0.136100	0.428000	0.005400
H1141	H114	0.131100	0.325500	0.012500
H1151	H115	0.391300	0.245900	0.958500
H1161	H116	0.389400	0.351300	0.956500
H1171	H117	0.364100	0.063100	0.923300
H1181	H118	0.371000	0.165000	0.914200
H1191	H119	0.145500	0.223800	0.070400
H1201	H120	0.144600	0.120400	0.077800
H1211	H121	0.069500	0.072000	0.494600
H1221	H122	0.969100	0.174500	0.487500
H1231	H123	0.095700	0.254100	0.541500
H1241	H124	0.197200	0.148700	0.543500
H1251	H125	0.850500	0.436900	0.576700
H1261	H126	0.950200	0.335000	0.585800
H1271	H127	0.939700	0.276200	0.429600
H1281	H128	0.842800	0.379600	0.422200
C811	C81	0.184880	0.891010	0.002830
C821	C82	0.185170	0.829500	0.999360
C831	C83	0.246530	0.774160	0.013380
C841	C84	0.307800	0.782300	0.030900
C851	C85	0.304810	0.845820	0.032160
C861	C86	0.272820	0.595990	0.046770
C871	C87	0.271370	0.657140	0.052520
C881	C88	0.249620	0.706890	0.009070
C891	C89	0.230780	0.691690	0.959950
C901	C90	0.234140	0.629670	0.956050
C911	C91	0.578720	0.608990	0.497170
C921	C92	0.514030	0.670500	0.500640
C931	C93	0.534070	0.725840	0.486620
C941	C94	0.621000	0.717700	0.469100
C951	C95	0.682790	0.654180	0.467840
C961	C96	0.415580	0.904010	0.453230
C971	C97	0.481030	0.842860	0.447480
C981	C98	0.465580	0.793110	0.490930
C991	C99	0.382420	0.808310	0.540050
C1001	C100	0.319860	0.870330	0.543950
C1011	C101	0.921280	0.502830	0.391010
C1021	C102	0.985970	0.499360	0.329500
C1031	C103	0.965930	0.513380	0.274160
C1041	C104	0.879000	0.530900	0.282300
C1051	C105	0.817210	0.532160	0.345820
C1061	C106	0.084420	0.546770	0.095990
C1071	C107	0.018970	0.552520	0.157140
C1081	C108	0.034420	0.509070	0.206890
C1091	C109	0.117580	0.459950	0.191690
C1101	C110	0.180140	0.456050	0.129670
C1111	C111	0.315120	0.997170	0.108990
C1121	C112	0.314830	0.000640	0.170500
C1131	C113	0.253470	0.986620	0.225840
C1141	C114	0.192200	0.969100	0.217700
C1151	C115	0.195190	0.967840	0.154180
C1161	C116	0.227180	0.953230	0.404010
C1171	C117	0.228630	0.947480	0.342860
C1181	C118	0.250380	0.990930	0.293110
C1191	C119	0.269220	0.040050	0.308310
C1201	C120	0.265860	0.043950	0.370330
C1211	C121	0.424110	0.497170	0.891010
C1221	C122	0.485330	0.500640	0.829500
C1231	C123	0.479310	0.486620	0.774160
C1241	C124	0.409900	0.469100	0.782300
C1251	C125	0.349370	0.467840	0.845820
C1261	C126	0.631190	0.453230	0.595990
C1271	C127	0.571490	0.447480	0.657140
C1281	C128	0.543490	0.490930	0.706890
C1291	C129	0.577530	0.540050	0.691690
C1301	C130	0.636190	0.543950	0.629670
C1311	C131	0.312290	0.002830	0.608990
C1321	C132	0.315470	0.999360	0.670500
C1331	C133	0.240090	0.013380	0.725840
C1341	C134	0.161300	0.030900	0.717700
C1351	C135	0.163030	0.032160	0.654180
C1361	C136	0.180410	0.046770	0.904010
C1371	C137	0.176110	0.052520	0.842860
C1381	C138	0.241310	0.009070	0.793110
C1391	C139	0.309270	0.959950	0.808310
C1401	C140	0.309810	0.956050	0.870330
C1411	C141	0.187710	0.391010	0.997170
C1421	C142	0.184530	0.329500	0.000640
C1431	C143	0.259910	0.274160	0.986620
C1441	C144	0.338700	0.282300	0.969100
C1451	C145	0.336970	0.345820	0.967840
C1461	C146	0.319590	0.095990	0.953230
C1471	C147	0.323890	0.157140	0.947480
C1481	C148	0.258690	0.206890	0.990930
C1491	C149	0.190730	0.191690	0.040050
C1501	C150	0.190190	0.129670	0.043950
C1511	C151	0.075890	0.108990	0.502830
C1521	C152	0.014670	0.170500	0.499360
C1531	C153	0.020690	0.225840	0.513380
C1541	C154	0.090100	0.217700	0.530900
C1551	C155	0.150630	0.154180	0.532160
C1561	C156	0.868810	0.404010	0.546770
C1571	C157	0.928510	0.342860	0.552520
C1581	C158	0.956510	0.293110	0.509070
C1591	C159	0.922470	0.308310	0.459950
C1601	C160	0.863810	0.370330	0.456050
N171	N17	0.244720	0.899520	0.017640
N181	N18	0.253770	0.581630	0.999230
N191	N19	0.661880	0.600480	0.482360
N201	N20	0.334630	0.918370	0.500770
N211	N21	0.838120	0.517640	0.399520
N221	N22	0.165370	0.499230	0.081630
N231	N23	0.255280	0.982360	0.100480
N241	N24	0.246230	0.000770	0.418370
N251	N25	0.355760	0.482360	0.899520
N261	N26	0.664600	0.500770	0.581630
N271	N27	0.237640	0.017640	0.600480
N281	N28	0.247000	0.999230	0.918370
N291	N29	0.262360	0.399520	0.982360
N301	N30	0.253000	0.081630	0.000770
N311	N31	0.144240	0.100480	0.517640
N321	N32	0.835400	0.418370	0.499230
