data_UXUZAP_freeONLY_PM
_symmetry_space_group_name_H-M	'P1'
_cell_length_a	9.054100
_cell_length_b	10.444300
_cell_length_c	18.200600
_cell_angle_alpha	90.000000
_cell_angle_beta	90.000000
_cell_angle_gamma	90.000000
_symmetry_Int_Tables_number 1

loop_
_symmetry_equiv_pos_as_xyz
'x,y,z'

loop_
_atom_site_label
_atom_site_type_symbol
_atom_site_fract_x
_atom_site_fract_y
_atom_site_fract_z
Zn11	Zn1	0.132110	0.018840	0.599690
Zn21	Zn2	0.632110	0.981160	0.400310
Zn31	Zn3	0.132110	0.481160	0.099690
Zn41	Zn4	0.632110	0.518840	0.900310
H11	H1	0.327800	0.038400	0.470200
H21	H2	0.727400	0.635500	0.607900
H31	H3	0.326600	0.696800	0.733600
H41	H4	0.239800	0.797400	0.694800
H51	H5	0.966600	0.684500	0.710900
H61	H6	0.852300	0.538500	0.786400
H71	H7	0.603900	0.803600	0.871200
H81	H8	0.707300	0.957100	0.795900
H91	H9	0.827800	0.961600	0.529800
H101	H10	0.227400	0.364500	0.392100
H111	H11	0.826600	0.303200	0.266400
H121	H12	0.739800	0.202600	0.305200
H131	H13	0.466600	0.315500	0.289100
H141	H14	0.352300	0.461500	0.213600
H151	H15	0.103900	0.196400	0.128800
H161	H16	0.207300	0.042900	0.204100
H171	H17	0.327800	0.461600	0.970200
H181	H18	0.727400	0.864500	0.107900
H191	H19	0.326600	0.803200	0.233600
H201	H20	0.239800	0.702600	0.194800
H211	H21	0.966600	0.815500	0.210900
H221	H22	0.852300	0.961500	0.286400
H231	H23	0.603900	0.696400	0.371200
H241	H24	0.707300	0.542900	0.295900
H251	H25	0.827800	0.538400	0.029800
H261	H26	0.227400	0.135500	0.892100
H271	H27	0.826600	0.196800	0.766400
H281	H28	0.739800	0.297400	0.805200
H291	H29	0.466600	0.184500	0.789100
H301	H30	0.352300	0.038500	0.713600
H311	H31	0.103900	0.303600	0.628800
H321	H32	0.207300	0.457100	0.704100
C11	C1	0.373300	0.975900	0.498800
C21	C2	0.646900	0.689400	0.601000
C31	C3	0.421500	0.757100	0.646100
C41	C4	0.414300	0.841300	0.584310
C51	C5	0.531000	0.838200	0.536350
C61	C6	0.920400	0.934300	0.695600
C71	C7	0.892800	0.710800	0.743100
C81	C8	0.849500	0.837400	0.745900
C91	C9	0.824200	0.624000	0.788900
C101	C10	0.677700	0.779800	0.838500
C111	C11	0.739600	0.872700	0.793700
C121	C12	0.873300	0.024100	0.501200
C131	C13	0.146900	0.310600	0.399000
C141	C14	0.921500	0.242900	0.353900
C151	C15	0.914300	0.158700	0.415690
C161	C16	0.031000	0.161800	0.463650
C171	C17	0.420400	0.065700	0.304400
C181	C18	0.392800	0.289200	0.256900
C191	C19	0.349500	0.162600	0.254100
C201	C20	0.324200	0.376000	0.211100
C211	C21	0.177700	0.220200	0.161500
C221	C22	0.239600	0.127300	0.206300
C231	C23	0.373300	0.524100	0.998800
C241	C24	0.646900	0.810600	0.101000
C251	C25	0.421500	0.742900	0.146100
C261	C26	0.414300	0.658700	0.084310
C271	C27	0.531000	0.661800	0.036350
C281	C28	0.920400	0.565700	0.195600
C291	C29	0.892800	0.789200	0.243100
C301	C30	0.849500	0.662600	0.245900
C311	C31	0.824200	0.876000	0.288900
C321	C32	0.677700	0.720200	0.338500
C331	C33	0.739600	0.627300	0.293700
C341	C34	0.873300	0.475900	0.001200
C351	C35	0.146900	0.189400	0.899000
C361	C36	0.921500	0.257100	0.853900
C371	C37	0.914300	0.341300	0.915690
C381	C38	0.031000	0.338200	0.963650
C391	C39	0.420400	0.434300	0.804400
C401	C40	0.392800	0.210800	0.756900
C411	C41	0.349500	0.337400	0.754100
C421	C42	0.324200	0.124000	0.711100
C431	C43	0.177700	0.279800	0.661500
C441	C44	0.239600	0.372700	0.706300
N11	N1	0.505000	0.926000	0.481010
N21	N2	0.653200	0.763400	0.542240
N31	N3	0.311700	0.930100	0.560100
N41	N4	0.541100	0.681400	0.651650
N51	N5	0.316900	0.749500	0.697600
N61	N6	0.720200	0.657100	0.836340
N71	N7	0.005000	0.074000	0.518990
N81	N8	0.153200	0.236600	0.457760
N91	N9	0.811700	0.069900	0.439900
N101	N10	0.041100	0.318600	0.348350
N111	N11	0.816900	0.250500	0.302400
N121	N12	0.220200	0.342900	0.163660
N131	N13	0.505000	0.574000	0.981010
N141	N14	0.653200	0.736600	0.042240
N151	N15	0.311700	0.569900	0.060100
N161	N16	0.541100	0.818600	0.151650
N171	N17	0.316900	0.750500	0.197600
N181	N18	0.720200	0.842900	0.336340
N191	N19	0.005000	0.426000	0.018990
N201	N20	0.153200	0.263400	0.957760
N211	N21	0.811700	0.430100	0.939900
N221	N22	0.041100	0.181400	0.848350
N231	N23	0.816900	0.249500	0.802400
N241	N24	0.220200	0.157100	0.663660
O11	O1	0.037900	0.893700	0.662840
O21	O2	0.866700	0.040200	0.687350
O31	O3	0.537900	0.106300	0.337160
O41	O4	0.366700	0.959800	0.312650
O51	O5	0.037900	0.606300	0.162840
O61	O6	0.866700	0.459800	0.187350
O71	O7	0.537900	0.393700	0.837160
O81	O8	0.366700	0.540200	0.812650
