data_UYAQAN_freeONLY_PM
_symmetry_space_group_name_H-M	'P1'
_cell_length_a	10.329000
_cell_length_b	16.012100
_cell_length_c	16.012100
_cell_angle_alpha	64.491400
_cell_angle_beta	77.583000
_cell_angle_gamma	102.417000
_symmetry_Int_Tables_number 1

loop_
_symmetry_equiv_pos_as_xyz
'x,y,z'

loop_
_atom_site_label
_atom_site_type_symbol
_atom_site_fract_x
_atom_site_fract_y
_atom_site_fract_z
Mg11	Mg1	0.000000	0.500000	0.000000
Mg21	Mg2	0.000000	0.000000	0.500000
Mg31	Mg3	0.500000	0.500000	0.500000
H11	H1	0.118900	0.739400	0.861200
H21	H2	0.033100	0.865500	0.810300
H31	H3	0.797600	0.836300	0.881300
H41	H4	0.489300	0.178100	0.229000
H51	H5	0.281500	0.053200	0.337200
H61	H6	0.110900	0.237800	0.366400
H71	H7	0.309800	0.367200	0.253400
H81	H8	0.538200	0.600900	0.059300
H91	H9	0.546500	0.688900	0.961000
H101	H10	0.574400	0.707300	0.045100
H111	H11	0.980100	0.861200	0.399400
H121	H12	0.843400	0.810300	0.324200
H131	H13	0.678900	0.881300	0.282400
H141	H14	0.718300	0.229000	0.592900
H151	H15	0.618700	0.337200	0.609600
H161	H16	0.477300	0.366400	0.395800
H171	H17	0.563200	0.253400	0.379400
H181	H18	0.597500	0.059300	0.339800
H191	H19	0.507500	0.961000	0.350100
H201	H20	0.619500	0.045100	0.247600
H211	H21	0.379500	0.399400	0.739400
H221	H22	0.167600	0.324200	0.865500
H231	H23	0.961300	0.282400	0.836300
H241	H24	0.311200	0.592900	0.178100
H251	H25	0.228300	0.609600	0.053200
H261	H26	0.873100	0.395800	0.237800
H271	H27	0.942600	0.379400	0.367200
H281	H28	0.937300	0.339800	0.600900
H291	H29	0.857600	0.350100	0.688900
H301	H30	0.867100	0.247600	0.707300
H311	H31	0.881100	0.260600	0.138800
H321	H32	0.966900	0.134500	0.189700
H331	H33	0.202400	0.163700	0.118700
H341	H34	0.510700	0.821900	0.771000
H351	H35	0.718500	0.946800	0.662800
H361	H36	0.889100	0.762200	0.633600
H371	H37	0.690200	0.632800	0.746600
H381	H38	0.461800	0.399100	0.940700
H391	H39	0.453500	0.311100	0.039000
H401	H40	0.425600	0.292700	0.954900
H411	H41	0.019900	0.138800	0.600600
H421	H42	0.156600	0.189700	0.675800
H431	H43	0.321100	0.118700	0.717600
H441	H44	0.281700	0.771000	0.407100
H451	H45	0.381300	0.662800	0.390400
H461	H46	0.522700	0.633600	0.604200
H471	H47	0.436800	0.746600	0.620600
H481	H48	0.402500	0.940700	0.660200
H491	H49	0.492500	0.039000	0.649900
H501	H50	0.380500	0.954900	0.752400
H511	H51	0.620500	0.600600	0.260600
H521	H52	0.832400	0.675800	0.134500
H531	H53	0.038700	0.717600	0.163700
H541	H54	0.688800	0.407100	0.821900
H551	H55	0.771700	0.390400	0.946800
H561	H56	0.126900	0.604200	0.762200
H571	H57	0.057400	0.620600	0.632800
H581	H58	0.062700	0.660200	0.399100
H591	H59	0.142400	0.649900	0.311100
H601	H60	0.132900	0.752400	0.292700
C11	C1	0.022600	0.726000	0.888000
C21	C2	0.972300	0.802000	0.858400
C31	C3	0.832000	0.784400	0.899600
C41	C4	0.741000	0.689200	0.968800
C51	C5	0.797000	0.615200	0.995300
C61	C6	0.714200	0.507700	0.066900
C71	C7	0.562800	0.369000	0.164300
C81	C8	0.427100	0.288100	0.231300
C91	C9	0.413800	0.192200	0.256300
C101	C10	0.288300	0.117300	0.322100
C111	C11	0.187900	0.225400	0.338400
C121	C12	0.307800	0.303200	0.271900
C131	C13	0.586000	0.669900	0.012500
C141	C14	0.910600	0.888000	0.386000
C151	C15	0.830700	0.858400	0.339600
C161	C16	0.731600	0.899600	0.316000
C171	C17	0.709800	0.968800	0.342000
C181	C18	0.792300	0.995300	0.389500
C191	C19	0.781100	0.066900	0.425400
C201	C20	0.727100	0.164300	0.466700
C211	C21	0.658400	0.231300	0.480600
C221	C22	0.670100	0.256300	0.551500
C231	C23	0.610400	0.322100	0.560600
C241	C24	0.526300	0.338400	0.436200
C251	C25	0.579700	0.271900	0.424900
C261	C26	0.598500	0.012500	0.317600
C271	C27	0.296600	0.386000	0.726000
C281	C28	0.170300	0.339600	0.802000
C291	C29	0.047600	0.316000	0.784400
C301	C30	0.051800	0.342000	0.689200
C311	C31	0.181800	0.389500	0.615200
C321	C32	0.206500	0.425400	0.507700
C331	C33	0.193800	0.466700	0.369000
C341	C34	0.139000	0.480600	0.288100
C351	C35	0.221600	0.551500	0.192200
C361	C36	0.171000	0.560600	0.117300
C371	C37	0.962500	0.436200	0.225400
C381	C38	0.004600	0.424900	0.303200
C391	C39	0.916100	0.317600	0.669900
C401	C40	0.977400	0.274000	0.112000
C411	C41	0.027700	0.198000	0.141600
C421	C42	0.168000	0.215600	0.100400
C431	C43	0.259000	0.310800	0.031200
C441	C44	0.203000	0.384800	0.004700
C451	C45	0.285800	0.492300	0.933100
C461	C46	0.437200	0.631000	0.835700
C471	C47	0.572900	0.711900	0.768700
C481	C48	0.586200	0.807800	0.743700
C491	C49	0.711700	0.882700	0.677900
C501	C50	0.812100	0.774600	0.661600
C511	C51	0.692200	0.696800	0.728100
C521	C52	0.414000	0.330100	0.987500
C531	C53	0.089400	0.112000	0.614000
C541	C54	0.169300	0.141600	0.660400
C551	C55	0.268400	0.100400	0.684000
C561	C56	0.290200	0.031200	0.658000
C571	C57	0.207700	0.004700	0.610500
C581	C58	0.218900	0.933100	0.574600
C591	C59	0.272900	0.835700	0.533300
C601	C60	0.341600	0.768700	0.519400
C611	C61	0.329900	0.743700	0.448500
C621	C62	0.389600	0.677900	0.439400
C631	C63	0.473700	0.661600	0.563800
C641	C64	0.420300	0.728100	0.575100
C651	C65	0.401500	0.987500	0.682400
C661	C66	0.703400	0.614000	0.274000
C671	C67	0.829700	0.660400	0.198000
C681	C68	0.952400	0.684000	0.215600
C691	C69	0.948200	0.658000	0.310800
C701	C70	0.818200	0.610500	0.384800
C711	C71	0.793500	0.574600	0.492300
C721	C72	0.806200	0.533300	0.631000
C731	C73	0.861000	0.519400	0.711900
C741	C74	0.778400	0.448500	0.807800
C751	C75	0.829000	0.439400	0.882700
C761	C76	0.037500	0.563800	0.774600
C771	C77	0.995400	0.575100	0.696800
C781	C78	0.083900	0.682400	0.330100
N11	N1	0.937140	0.631320	0.955500
N21	N2	0.782220	0.441320	0.080260
N31	N3	0.682580	0.349880	0.142840
N41	N4	0.574970	0.465290	0.119380
N51	N5	0.175320	0.130820	0.365860
N61	N6	0.892640	0.955500	0.413180
N71	N7	0.862480	0.080260	0.478420
N81	N8	0.825420	0.142840	0.507280
N91	N9	0.694350	0.119380	0.415330
N101	N10	0.541180	0.365860	0.503320
N111	N11	0.305820	0.413180	0.631320
N121	N12	0.340900	0.478420	0.441320
N131	N13	0.332700	0.507280	0.349880
N141	N14	0.109680	0.415330	0.465290
N151	N15	0.044500	0.503320	0.130820
N161	N16	0.062860	0.368680	0.044500
N171	N17	0.217780	0.558680	0.919740
N181	N18	0.317420	0.650120	0.857160
N191	N19	0.425030	0.534710	0.880620
N201	N20	0.824680	0.869180	0.634140
N211	N21	0.107360	0.044500	0.586820
N221	N22	0.137520	0.919740	0.521580
N231	N23	0.174580	0.857160	0.492720
N241	N24	0.305650	0.880620	0.584670
N251	N25	0.458820	0.634140	0.496680
N261	N26	0.694180	0.586820	0.368680
N271	N27	0.659100	0.521580	0.558680
N281	N28	0.667300	0.492720	0.650120
N291	N29	0.890320	0.584670	0.534710
N301	N30	0.955500	0.496680	0.869180
