data_VACFUB01_freeONLY_PM
_symmetry_space_group_name_H-M	'P1'
_cell_length_a	6.262000
_cell_length_b	15.512000
_cell_length_c	15.512000
_cell_angle_alpha	120.000000
_cell_angle_beta	90.000000
_cell_angle_gamma	90.000000
_symmetry_Int_Tables_number 1

loop_
_symmetry_equiv_pos_as_xyz
'x,y,z'

loop_
_atom_site_label
_atom_site_type_symbol
_atom_site_fract_x
_atom_site_fract_y
_atom_site_fract_z
Zn11	Zn1	0.850400	0.500000	0.500000
Zn21	Zn2	0.183730	0.000000	0.500000
Zn31	Zn3	0.517070	0.500000	0.000000
H11	H1	0.215400	0.723600	0.601900
H21	H2	0.426100	0.597100	0.589000
H31	H3	0.878000	0.665800	0.461900
H41	H4	0.684000	0.797800	0.476700
H51	H5	0.548730	0.878300	0.276400
H61	H6	0.759430	0.991900	0.402900
H71	H7	0.211330	0.796100	0.334200
H81	H8	0.017330	0.678900	0.202200
H91	H9	0.882070	0.398100	0.121700
H101	H10	0.092770	0.411000	0.008100
H111	H11	0.544670	0.538100	0.203900
H121	H12	0.350670	0.523300	0.321100
H131	H13	0.215400	0.276400	0.398100
H141	H14	0.426100	0.402900	0.411000
H151	H15	0.878000	0.334200	0.538100
H161	H16	0.684000	0.202200	0.523300
H171	H17	0.548730	0.121700	0.723600
H181	H18	0.759430	0.008100	0.597100
H191	H19	0.211330	0.203900	0.665800
H201	H20	0.017330	0.321100	0.797800
H211	H21	0.882070	0.601900	0.878300
H221	H22	0.092770	0.589000	0.991900
H231	H23	0.544670	0.461900	0.796100
H241	H24	0.350670	0.476700	0.678900
C11	C1	0.287200	0.856100	0.542300
C21	C2	0.426100	0.773700	0.537900
C31	C3	0.350200	0.713000	0.573100
C41	C4	0.477200	0.637100	0.564700
C51	C5	0.743200	0.678000	0.490800
C61	C6	0.626600	0.756600	0.498400
C71	C7	0.620530	0.686200	0.143900
C81	C8	0.759430	0.764200	0.226300
C91	C9	0.683530	0.860100	0.287000
C101	C10	0.810530	0.927600	0.362900
C111	C11	0.076530	0.812800	0.322000
C121	C12	0.959930	0.741800	0.243400
C131	C13	0.953870	0.457700	0.313800
C141	C14	0.092770	0.462100	0.235800
C151	C15	0.016870	0.426900	0.139900
C161	C16	0.143870	0.435300	0.072400
C171	C17	0.409870	0.509200	0.187200
C181	C18	0.293270	0.501600	0.258200
C191	C19	0.287200	0.143900	0.457700
C201	C20	0.426100	0.226300	0.462100
C211	C21	0.350200	0.287000	0.426900
C221	C22	0.477200	0.362900	0.435300
C231	C23	0.743200	0.322000	0.509200
C241	C24	0.626600	0.243400	0.501600
C251	C25	0.620530	0.313800	0.856100
C261	C26	0.759430	0.235800	0.773700
C271	C27	0.683530	0.139900	0.713000
C281	C28	0.810530	0.072400	0.637100
C291	C29	0.076530	0.187200	0.678000
C301	C30	0.959930	0.258200	0.756600
C311	C31	0.953870	0.542300	0.686200
C321	C32	0.092770	0.537900	0.764200
C331	C33	0.016870	0.573100	0.860100
C341	C34	0.143870	0.564700	0.927600
C351	C35	0.409870	0.490800	0.812800
C361	C36	0.293270	0.498400	0.741800
N11	N1	0.670400	0.618310	0.523410
N21	N2	0.003730	0.905100	0.381690
N31	N3	0.337070	0.476590	0.094900
N41	N4	0.670400	0.381690	0.476590
N51	N5	0.003730	0.094900	0.618310
N61	N6	0.337070	0.523410	0.905100
O11	O1	0.383400	0.914580	0.519390
O21	O2	0.097100	0.858500	0.559600
O31	O3	0.716730	0.604810	0.085420
O41	O4	0.430430	0.701100	0.141500
O51	O5	0.050070	0.480610	0.395190
O61	O6	0.763770	0.440400	0.298900
O71	O7	0.383400	0.085420	0.480610
O81	O8	0.097100	0.141500	0.440400
O91	O9	0.716730	0.395190	0.914580
O101	O10	0.430430	0.298900	0.858500
O111	O11	0.050070	0.519390	0.604810
O121	O12	0.763770	0.559600	0.701100
