data_VATXEU_freeONLY_PM
_symmetry_space_group_name_H-M	'P1'
_cell_length_a	12.728000
_cell_length_b	19.177000
_cell_length_c	19.177000
_cell_angle_alpha	120.000000
_cell_angle_beta	90.000000
_cell_angle_gamma	90.000000
_symmetry_Int_Tables_number 1

loop_
_symmetry_equiv_pos_as_xyz
'x,y,z'

loop_
_atom_site_label
_atom_site_type_symbol
_atom_site_fract_x
_atom_site_fract_y
_atom_site_fract_z
U11	U1	0.500000	0.666950	0.000000
U21	U2	0.500000	0.333050	0.333050
U31	U3	0.500000	0.000000	0.666950
U41	U4	0.000000	0.333050	0.000000
U51	U5	0.000000	0.666950	0.666950
U61	U6	0.000000	0.000000	0.333050
U71	U7	0.500000	0.333050	0.000000
U81	U8	0.500000	0.666950	0.666950
U91	U9	0.500000	0.000000	0.333050
U101	U10	0.000000	0.666950	0.000000
U111	U11	0.000000	0.333050	0.333050
U121	U12	0.000000	0.000000	0.666950
C11	C1	0.250000	0.672500	0.044900
C21	C2	0.250000	0.686800	0.975000
C31	C3	0.250000	0.372400	0.327500
C41	C4	0.250000	0.288200	0.313200
C51	C5	0.250000	0.955100	0.627600
C61	C6	0.250000	0.025000	0.711800
C71	C7	0.750000	0.327500	0.955100
C81	C8	0.750000	0.313200	0.025000
C91	C9	0.750000	0.627600	0.672500
C101	C10	0.750000	0.711800	0.686800
C111	C11	0.750000	0.044900	0.372400
C121	C12	0.750000	0.975000	0.288200
C131	C13	0.750000	0.627600	0.955100
C141	C14	0.750000	0.711800	0.025000
C151	C15	0.750000	0.044900	0.672500
C161	C16	0.750000	0.975000	0.686800
C171	C17	0.750000	0.327500	0.372400
C181	C18	0.750000	0.313200	0.288200
C191	C19	0.250000	0.372400	0.044900
C201	C20	0.250000	0.288200	0.975000
C211	C21	0.250000	0.955100	0.327500
C221	C22	0.250000	0.025000	0.313200
C231	C23	0.250000	0.672500	0.627600
C241	C24	0.250000	0.686800	0.711800
C251	C25	0.470000	0.852300	0.147700
C261	C26	0.506000	0.808650	0.191350
C271	C27	0.470000	0.295400	0.147700
C281	C28	0.506000	0.382700	0.191350
C291	C29	0.470000	0.852300	0.704600
C301	C30	0.506000	0.808650	0.617300
C311	C31	0.970000	0.147700	0.852300
C321	C32	0.006000	0.191350	0.808650
C331	C33	0.970000	0.704600	0.852300
C341	C34	0.006000	0.617300	0.808650
C351	C35	0.970000	0.147700	0.295400
C361	C36	0.006000	0.191350	0.382700
C371	C37	0.530000	0.704600	0.852300
C381	C38	0.494000	0.617300	0.808650
C391	C39	0.530000	0.147700	0.852300
C401	C40	0.494000	0.191350	0.808650
C411	C41	0.530000	0.147700	0.295400
C421	C42	0.494000	0.191350	0.382700
C431	C43	0.030000	0.295400	0.147700
C441	C44	0.994000	0.382700	0.191350
C451	C45	0.030000	0.852300	0.147700
C461	C46	0.994000	0.808650	0.191350
C471	C47	0.030000	0.852300	0.704600
C481	C48	0.994000	0.808650	0.617300
C491	C49	0.540500	0.516300	0.032600
C501	C50	0.540500	0.516300	0.483700
C511	C51	0.540500	0.967400	0.483700
C521	C52	0.040500	0.483700	0.967400
C531	C53	0.040500	0.483700	0.516300
C541	C54	0.040500	0.032600	0.516300
C551	C55	0.459500	0.483700	0.967400
C561	C56	0.459500	0.032600	0.516300
C571	C57	0.459500	0.483700	0.516300
C581	C58	0.959500	0.516300	0.032600
C591	C59	0.959500	0.967400	0.483700
C601	C60	0.959500	0.516300	0.483700
O11	O1	0.339200	0.672000	0.073700
O21	O2	0.521700	0.734100	0.149800
O31	O3	0.456900	0.810500	0.072900
O41	O4	0.578600	0.587000	0.053700
O51	O5	0.337000	0.694700	0.951200
O61	O6	0.339200	0.401700	0.328000
O71	O7	0.521700	0.415700	0.265900
O81	O8	0.456900	0.262400	0.189500
O91	O9	0.578600	0.466700	0.413000
O101	O10	0.337000	0.256500	0.305300
O111	O11	0.339200	0.926300	0.598300
O121	O12	0.521700	0.850200	0.584300
O131	O13	0.456900	0.927100	0.737600
O141	O14	0.578600	0.946300	0.533300
O151	O15	0.337000	0.048800	0.743500
O161	O16	0.839200	0.328000	0.926300
O171	O17	0.021700	0.265900	0.850200
O181	O18	0.956900	0.189500	0.927100
O191	O19	0.078600	0.413000	0.946300
O201	O20	0.837000	0.305300	0.048800
O211	O21	0.839200	0.598300	0.672000
O221	O22	0.021700	0.584300	0.734100
O231	O23	0.956900	0.737600	0.810500
O241	O24	0.078600	0.533300	0.587000
O251	O25	0.837000	0.743500	0.694700
O261	O26	0.839200	0.073700	0.401700
O271	O27	0.021700	0.149800	0.415700
O281	O28	0.956900	0.072900	0.262400
O291	O29	0.078600	0.053700	0.466700
O301	O30	0.837000	0.951200	0.256500
O311	O31	0.660800	0.598300	0.926300
O321	O32	0.478300	0.584300	0.850200
O331	O33	0.543100	0.737600	0.927100
O341	O34	0.421400	0.533300	0.946300
O351	O35	0.663000	0.743500	0.048800
O361	O36	0.660800	0.073700	0.672000
O371	O37	0.478300	0.149800	0.734100
O381	O38	0.543100	0.072900	0.810500
O391	O39	0.421400	0.053700	0.587000
O401	O40	0.663000	0.951200	0.694700
O411	O41	0.660800	0.328000	0.401700
O421	O42	0.478300	0.265900	0.415700
O431	O43	0.543100	0.189500	0.262400
O441	O44	0.421400	0.413000	0.466700
O451	O45	0.663000	0.305300	0.256500
O461	O46	0.160800	0.401700	0.073700
O471	O47	0.978300	0.415700	0.149800
O481	O48	0.043100	0.262400	0.072900
O491	O49	0.921400	0.466700	0.053700
O501	O50	0.163000	0.256500	0.951200
O511	O51	0.160800	0.926300	0.328000
O521	O52	0.978300	0.850200	0.265900
O531	O53	0.043100	0.927100	0.189500
O541	O54	0.921400	0.946300	0.413000
O551	O55	0.163000	0.048800	0.305300
O561	O56	0.160800	0.672000	0.598300
O571	O57	0.978300	0.734100	0.584300
O581	O58	0.043100	0.810500	0.737600
O591	O59	0.921400	0.587000	0.533300
O601	O60	0.163000	0.694700	0.743500
O611	O61	0.660800	0.328000	0.926300
O621	O62	0.478300	0.265900	0.850200
O631	O63	0.543100	0.189500	0.927100
O641	O64	0.421400	0.413000	0.946300
O651	O65	0.663000	0.305300	0.048800
O661	O66	0.660800	0.598300	0.672000
O671	O67	0.478300	0.584300	0.734100
O681	O68	0.543100	0.737600	0.810500
O691	O69	0.421400	0.533300	0.587000
O701	O70	0.663000	0.743500	0.694700
O711	O71	0.660800	0.073700	0.401700
O721	O72	0.478300	0.149800	0.415700
O731	O73	0.543100	0.072900	0.262400
O741	O74	0.421400	0.053700	0.466700
O751	O75	0.663000	0.951200	0.256500
O761	O76	0.160800	0.672000	0.073700
O771	O77	0.978300	0.734100	0.149800
O781	O78	0.043100	0.810500	0.072900
O791	O79	0.921400	0.587000	0.053700
O801	O80	0.163000	0.694700	0.951200
O811	O81	0.160800	0.401700	0.328000
O821	O82	0.978300	0.415700	0.265900
O831	O83	0.043100	0.262400	0.189500
O841	O84	0.921400	0.466700	0.413000
O851	O85	0.163000	0.256500	0.305300
O861	O86	0.160800	0.926300	0.598300
O871	O87	0.978300	0.850200	0.584300
O881	O88	0.043100	0.927100	0.737600
O891	O89	0.921400	0.946300	0.533300
O901	O90	0.163000	0.048800	0.743500
O911	O91	0.339200	0.401700	0.073700
O921	O92	0.521700	0.415700	0.149800
O931	O93	0.456900	0.262400	0.072900
O941	O94	0.578600	0.466700	0.053700
O951	O95	0.337000	0.256500	0.951200
O961	O96	0.339200	0.926300	0.328000
O971	O97	0.521700	0.850200	0.265900
O981	O98	0.456900	0.927100	0.189500
O991	O99	0.578600	0.946300	0.413000
O1001	O100	0.337000	0.048800	0.305300
O1011	O101	0.339200	0.672000	0.598300
O1021	O102	0.521700	0.734100	0.584300
O1031	O103	0.456900	0.810500	0.737600
O1041	O104	0.578600	0.587000	0.533300
O1051	O105	0.337000	0.694700	0.743500
O1061	O106	0.839200	0.598300	0.926300
O1071	O107	0.021700	0.584300	0.850200
O1081	O108	0.956900	0.737600	0.927100
O1091	O109	0.078600	0.533300	0.946300
O1101	O110	0.837000	0.743500	0.048800
O1111	O111	0.839200	0.073700	0.672000
O1121	O112	0.021700	0.149800	0.734100
O1131	O113	0.956900	0.072900	0.810500
O1141	O114	0.078600	0.053700	0.587000
O1151	O115	0.837000	0.951200	0.694700
O1161	O116	0.839200	0.328000	0.401700
O1171	O117	0.021700	0.265900	0.415700
O1181	O118	0.956900	0.189500	0.262400
O1191	O119	0.078600	0.413000	0.466700
O1201	O120	0.837000	0.305300	0.256500
