data_VEDFIV_freeONLY_PM
_symmetry_space_group_name_H-M	'P1'
_cell_length_a	11.249000
_cell_length_b	13.238000
_cell_length_c	26.050000
_cell_angle_alpha	90.000000
_cell_angle_beta	90.000000
_cell_angle_gamma	90.000000
_symmetry_Int_Tables_number 1

loop_
_symmetry_equiv_pos_as_xyz
'x,y,z'

loop_
_atom_site_label
_atom_site_type_symbol
_atom_site_fract_x
_atom_site_fract_y
_atom_site_fract_z
Co11	Co1	0.661470	0.560920	0.920480
Co21	Co2	0.408020	0.438490	0.863070
Co31	Co3	0.838530	0.439080	0.420480
Co41	Co4	0.091980	0.561510	0.363070
Co51	Co5	0.338530	0.060920	0.579520
Co61	Co6	0.591980	0.938490	0.636930
Co71	Co7	0.161470	0.939080	0.079520
Co81	Co8	0.908020	0.061510	0.136930
H11	H1	0.624300	0.814900	0.821600
H21	H2	0.434400	0.630000	0.731300
H31	H3	0.705500	0.303900	0.065100
H41	H4	0.614500	0.419800	0.012400
H51	H5	0.015500	0.617200	0.844500
H61	H6	0.983200	0.315600	0.836800
H71	H7	0.919600	0.494800	0.947200
H81	H8	0.340000	0.764300	0.101500
H91	H9	0.643900	0.924000	0.751700
H101	H10	0.219900	0.600000	0.842500
H111	H11	0.225200	0.685400	0.936800
H121	H12	0.021900	0.372400	0.994900
H131	H13	0.144900	0.823900	0.980400
H141	H14	0.191500	0.304100	0.837900
H151	H15	0.436800	0.636300	0.058700
H161	H16	0.460300	0.739600	0.663800
H171	H17	0.641600	0.408300	0.856300
H181	H18	0.600100	0.369900	0.911600
H191	H19	0.875700	0.185100	0.321600
H201	H20	0.065600	0.370000	0.231300
H211	H21	0.794500	0.696100	0.565100
H221	H22	0.885500	0.580200	0.512400
H231	H23	0.484500	0.382800	0.344500
H241	H24	0.516800	0.684400	0.336800
H251	H25	0.580400	0.505200	0.447200
H261	H26	0.160000	0.235700	0.601500
H271	H27	0.856100	0.076000	0.251700
H281	H28	0.280100	0.400000	0.342500
H291	H29	0.274800	0.314600	0.436800
H301	H30	0.478100	0.627600	0.494900
H311	H31	0.355100	0.176100	0.480400
H321	H32	0.308500	0.695900	0.337900
H331	H33	0.063200	0.363700	0.558700
H341	H34	0.039700	0.260400	0.163800
H351	H35	0.858400	0.591700	0.356300
H361	H36	0.899900	0.630100	0.411600
H371	H37	0.375700	0.314900	0.678400
H381	H38	0.565600	0.130000	0.768700
H391	H39	0.294500	0.803900	0.434900
H401	H40	0.385500	0.919800	0.487600
H411	H41	0.984500	0.117200	0.655500
H421	H42	0.016800	0.815600	0.663200
H431	H43	0.080400	0.994800	0.552800
H441	H44	0.660000	0.264300	0.398500
H451	H45	0.356100	0.424000	0.748300
H461	H46	0.780100	0.100000	0.657500
H471	H47	0.774800	0.185400	0.563200
H481	H48	0.978100	0.872400	0.505100
H491	H49	0.855100	0.323900	0.519600
H501	H50	0.808500	0.804100	0.662100
H511	H51	0.563200	0.136300	0.441300
H521	H52	0.539700	0.239600	0.836200
H531	H53	0.358400	0.908300	0.643700
H541	H54	0.399900	0.869900	0.588400
H551	H55	0.124300	0.685100	0.178400
H561	H56	0.934400	0.870000	0.268700
H571	H57	0.205500	0.196100	0.934900
H581	H58	0.114500	0.080200	0.987600
H591	H59	0.515500	0.882800	0.155500
H601	H60	0.483200	0.184400	0.163200
H611	H61	0.419600	0.005200	0.052800
H621	H62	0.840000	0.735700	0.898500
H631	H63	0.143900	0.576000	0.248300
H641	H64	0.719900	0.900000	0.157500
H651	H65	0.725200	0.814600	0.063200
H661	H66	0.521900	0.127600	0.005100
H671	H67	0.644900	0.676100	0.019600
H681	H68	0.691500	0.195900	0.162100
H691	H69	0.936800	0.863700	0.941300
H701	H70	0.960300	0.760400	0.336200
H711	H71	0.141600	0.091700	0.143700
H721	H72	0.100100	0.130100	0.088400
C11	C1	0.841300	0.476000	0.846200
C21	C2	0.976800	0.467200	0.841400
C31	C3	0.529500	0.708800	0.783700
C41	C4	0.590400	0.797400	0.789400
C51	C5	0.479900	0.689700	0.736200
C61	C6	0.936000	0.239700	0.064700
C71	C7	0.750500	0.340600	0.040500
C81	C8	0.698100	0.410900	0.009700
C91	C9	0.049800	0.551700	0.843100
C101	C10	0.030000	0.375200	0.839000
C111	C11	0.876700	0.454100	0.970900
C121	C12	0.319000	0.750500	0.066800
C131	C13	0.602200	0.862300	0.747100
C141	C14	0.171500	0.541200	0.842800
C151	C15	0.874900	0.323700	0.034500
C161	C16	0.414200	0.574000	0.959700
C171	C17	0.346400	0.650200	0.991700
C181	C18	0.254200	0.703300	0.969900
C191	C19	0.938800	0.381800	0.999400
C201	C20	0.203700	0.784100	0.997000
C211	C21	0.516800	0.634100	0.827000
C221	C22	0.155000	0.368700	0.839800
C231	C23	0.376300	0.673600	0.041600
C241	C24	0.495000	0.755300	0.696100
C251	C25	0.658700	0.524000	0.346200
C261	C26	0.523200	0.532800	0.341400
C271	C27	0.970500	0.291200	0.283700
C281	C28	0.909600	0.202600	0.289400
C291	C29	0.020100	0.310300	0.236200
C301	C30	0.564000	0.760300	0.564700
C311	C31	0.749500	0.659400	0.540500
C321	C32	0.801900	0.589100	0.509700
C331	C33	0.450200	0.448300	0.343100
C341	C34	0.470000	0.624800	0.339000
C351	C35	0.623300	0.545900	0.470900
C361	C36	0.181000	0.249500	0.566800
C371	C37	0.897800	0.137700	0.247100
C381	C38	0.328500	0.458800	0.342800
C391	C39	0.625100	0.676300	0.534500
C401	C40	0.085800	0.426000	0.459700
C411	C41	0.153600	0.349800	0.491700
C421	C42	0.245800	0.296700	0.469900
C431	C43	0.561200	0.618200	0.499400
C441	C44	0.296300	0.215900	0.497000
C451	C45	0.983200	0.365900	0.327000
C461	C46	0.345000	0.631300	0.339800
C471	C47	0.123700	0.326400	0.541600
C481	C48	0.005000	0.244700	0.196100
C491	C49	0.158700	0.976000	0.653800
C501	C50	0.023200	0.967200	0.658600
C511	C51	0.470500	0.208800	0.716300
C521	C52	0.409600	0.297400	0.710600
C531	C53	0.520100	0.189700	0.763800
C541	C54	0.064000	0.739700	0.435300
C551	C55	0.249500	0.840600	0.459500
C561	C56	0.301900	0.910900	0.490300
C571	C57	0.950200	0.051700	0.656900
C581	C58	0.970000	0.875200	0.661000
C591	C59	0.123300	0.954100	0.529100
C601	C60	0.681000	0.250500	0.433200
C611	C61	0.397800	0.362300	0.752900
C621	C62	0.828500	0.041200	0.657200
C631	C63	0.125100	0.823700	0.465500
C641	C64	0.585800	0.074000	0.540300
C651	C65	0.653600	0.150200	0.508300
C661	C66	0.745800	0.203300	0.530100
C671	C67	0.061200	0.881800	0.500600
C681	C68	0.796300	0.284100	0.503000
C691	C69	0.483200	0.134100	0.673000
C701	C70	0.845000	0.868700	0.660200
C711	C71	0.623700	0.173600	0.458400
C721	C72	0.505000	0.255300	0.803900
C731	C73	0.341300	0.024000	0.153800
C741	C74	0.476800	0.032800	0.158600
C751	C75	0.029500	0.791200	0.216300
C761	C76	0.090400	0.702600	0.210600
C771	C77	0.979900	0.810300	0.263800
C781	C78	0.436000	0.260300	0.935300
C791	C79	0.250500	0.159400	0.959500
C801	C80	0.198100	0.089100	0.990300
C811	C81	0.549800	0.948300	0.156900
C821	C82	0.530000	0.124800	0.161000
C831	C83	0.376700	0.045900	0.029100
C841	C84	0.819000	0.749500	0.933200
C851	C85	0.102200	0.637700	0.252900
C861	C86	0.671500	0.958800	0.157200
C871	C87	0.374900	0.176300	0.965500
C881	C88	0.914200	0.926000	0.040300
C891	C89	0.846400	0.849800	0.008300
C901	C90	0.754200	0.796700	0.030100
C911	C91	0.438800	0.118200	0.000600
C921	C92	0.703700	0.715900	0.003000
C931	C93	0.016800	0.865900	0.173000
C941	C94	0.655000	0.131300	0.160200
C951	C95	0.876300	0.826400	0.958400
C961	C96	0.995000	0.744700	0.303900
N11	N1	0.223500	0.450600	0.843000
N21	N2	0.558100	0.841900	0.701100
N31	N3	0.758100	0.468700	0.975700
N41	N4	0.234300	0.807300	0.044600
N51	N5	0.276500	0.549400	0.343000
N61	N6	0.941900	0.158100	0.201100
N71	N7	0.741900	0.531300	0.475700
N81	N8	0.265700	0.192700	0.544600
N91	N9	0.776500	0.950600	0.657000
N101	N10	0.441900	0.341900	0.798900
N111	N11	0.241900	0.968700	0.524300
N121	N12	0.765700	0.307300	0.455400
N131	N13	0.723500	0.049400	0.157000
N141	N14	0.058100	0.658100	0.298900
N151	N15	0.258100	0.031300	0.024300
N161	N16	0.734300	0.692700	0.955400
O11	O1	0.521600	0.561800	0.972160
O21	O2	0.572400	0.653000	0.867680
O31	O3	0.449600	0.559000	0.817930
O41	O4	0.359500	0.532300	0.923750
O51	O5	0.805100	0.553000	0.870600
O61	O6	0.869000	0.187000	0.092710
O71	O7	0.780300	0.405200	0.829400
O81	O8	0.045900	0.230600	0.059000
O91	O9	0.592700	0.425800	0.886620
O101	O10	0.978400	0.438200	0.472160
O111	O11	0.927600	0.347000	0.367680
O121	O12	0.050400	0.441000	0.317930
O131	O13	0.140500	0.467700	0.423750
O141	O14	0.694900	0.447000	0.370600
O151	O15	0.631000	0.813000	0.592710
O161	O16	0.719700	0.594800	0.329400
O171	O17	0.454100	0.769400	0.559000
O181	O18	0.907300	0.574200	0.386620
O191	O19	0.478400	0.061800	0.527840
O201	O20	0.427600	0.153000	0.632320
O211	O21	0.550400	0.059000	0.682070
O221	O22	0.640500	0.032300	0.576250
O231	O23	0.194900	0.053000	0.629400
O241	O24	0.131000	0.687000	0.407290
O251	O25	0.219700	0.905200	0.670600
O261	O26	0.954100	0.730600	0.441000
O271	O27	0.407300	0.925800	0.613380
O281	O28	0.021600	0.938200	0.027840
O291	O29	0.072400	0.847000	0.132320
O301	O30	0.949600	0.941000	0.182070
O311	O31	0.859500	0.967700	0.076250
O321	O32	0.305100	0.947000	0.129400
O331	O33	0.369000	0.313000	0.907290
O341	O34	0.280300	0.094800	0.170600
O351	O35	0.545900	0.269400	0.941000
O361	O36	0.092700	0.074200	0.113380
