data_VEDGES_freeONLY_PM
_symmetry_space_group_name_H-M	'P1'
_cell_length_a	11.477700
_cell_length_b	13.316400
_cell_length_c	26.030700
_cell_angle_alpha	90.000000
_cell_angle_beta	90.000000
_cell_angle_gamma	90.000000
_symmetry_Int_Tables_number 1

loop_
_symmetry_equiv_pos_as_xyz
'x,y,z'

loop_
_atom_site_label
_atom_site_type_symbol
_atom_site_fract_x
_atom_site_fract_y
_atom_site_fract_z
Co11	Co1	0.345800	0.444260	0.921840
Co21	Co2	0.602220	0.549970	0.860390
Co31	Co3	0.154200	0.555740	0.421840
Co41	Co4	0.897780	0.450030	0.360390
Co51	Co5	0.654200	0.944260	0.578160
Co61	Co6	0.397780	0.049970	0.639610
Co71	Co7	0.845800	0.055740	0.078160
Co81	Co8	0.102220	0.950030	0.139610
H11	H1	0.373600	0.590000	0.855100
H21	H2	0.418900	0.629400	0.909600
H31	H3	0.101400	0.515000	0.955100
H41	H4	0.337600	0.075800	0.754600
H51	H5	0.526300	0.248400	0.663800
H61	H6	0.809200	0.685400	0.830800
H71	H7	0.009300	0.638800	0.002700
H81	H8	0.733400	0.268400	0.925600
H91	H9	0.825100	0.143200	0.971300
H101	H10	0.406200	0.595100	0.010800
H111	H11	0.010600	0.685400	0.830400
H121	H12	0.677800	0.234200	0.099800
H131	H13	0.565200	0.356500	0.732000
H141	H14	0.320500	0.719300	0.061300
H151	H15	0.577100	0.357500	0.056600
H161	H16	0.361300	0.187300	0.822500
H171	H17	0.800800	0.393200	0.850600
H181	H18	0.001300	0.386300	0.856400
H191	H19	0.126400	0.410000	0.355100
H201	H20	0.081100	0.370600	0.409600
H211	H21	0.398600	0.485000	0.455100
H221	H22	0.162400	0.924200	0.254600
H231	H23	0.973700	0.751600	0.163800
H241	H24	0.690800	0.314600	0.330800
H251	H25	0.490700	0.361200	0.502700
H261	H26	0.766600	0.731600	0.425600
H271	H27	0.674900	0.856800	0.471300
H281	H28	0.093800	0.404900	0.510800
H291	H29	0.489400	0.314600	0.330400
H301	H30	0.822200	0.765800	0.599800
H311	H31	0.934800	0.643500	0.232000
H321	H32	0.179500	0.280700	0.561300
H331	H33	0.922900	0.642500	0.556600
H341	H34	0.138700	0.812700	0.322500
H351	H35	0.699200	0.606800	0.350600
H361	H36	0.498700	0.613700	0.356400
H371	H37	0.626400	0.090000	0.644900
H381	H38	0.581100	0.129400	0.590400
H391	H39	0.898600	0.015000	0.544900
H401	H40	0.662400	0.575800	0.745400
H411	H41	0.473700	0.748400	0.836200
H421	H42	0.190800	0.185400	0.669200
H431	H43	0.990700	0.138800	0.497300
H441	H44	0.266600	0.768400	0.574400
H451	H45	0.174900	0.643200	0.528700
H461	H46	0.593800	0.095100	0.489200
H471	H47	0.989400	0.185400	0.669600
H481	H48	0.322200	0.734200	0.400200
H491	H49	0.434800	0.856500	0.768000
H501	H50	0.679500	0.219300	0.438700
H511	H51	0.422900	0.857500	0.443400
H521	H52	0.638700	0.687300	0.677500
H531	H53	0.199200	0.893200	0.649400
H541	H54	0.998700	0.886300	0.643600
H551	H55	0.873600	0.910000	0.144900
H561	H56	0.918900	0.870600	0.090400
H571	H57	0.601400	0.985000	0.044900
H581	H58	0.837600	0.424200	0.245400
H591	H59	0.026300	0.251600	0.336200
H601	H60	0.309200	0.814600	0.169200
H611	H61	0.509300	0.861200	0.997300
H621	H62	0.233400	0.231600	0.074400
H631	H63	0.325100	0.356800	0.028700
H641	H64	0.906200	0.904900	0.989200
H651	H65	0.510600	0.814600	0.169600
H661	H66	0.177800	0.265800	0.900200
H671	H67	0.065200	0.143500	0.268000
H681	H68	0.820500	0.780700	0.938700
H691	H69	0.077100	0.142500	0.943400
H701	H70	0.861300	0.312700	0.177500
H711	H71	0.300800	0.106800	0.149400
H721	H72	0.501300	0.113700	0.143600
C11	C1	0.147000	0.557800	0.976300
C21	C2	0.383000	0.134700	0.749500
C31	C3	0.494500	0.234200	0.696700
C41	C4	0.849000	0.623500	0.835500
C51	C5	0.091400	0.631400	0.005000
C61	C6	0.720900	0.262700	0.961600
C71	C7	0.092700	0.773300	0.066700
C81	C8	0.775700	0.188800	0.989100
C91	C9	0.479000	0.362800	0.826300
C101	C10	0.324200	0.604400	0.009000
C111	C11	0.969500	0.624400	0.836000
C121	C12	0.689200	0.241200	0.063800
C131	C13	0.464500	0.285800	0.783500
C141	C14	0.030200	0.535500	0.844700
C151	C15	0.647600	0.328900	0.986400
C161	C16	0.515200	0.300500	0.737000
C171	C17	0.154100	0.693500	0.036600
C181	C18	0.273900	0.679100	0.039300
C191	C19	0.629900	0.315500	0.038500
C201	C20	0.586300	0.410900	0.955800
C211	C21	0.397200	0.200500	0.790300
C221	C22	0.844000	0.453800	0.847800
C231	C23	0.964000	0.448900	0.850600
C241	C24	0.161600	0.533600	0.852100
C251	C25	0.353000	0.442200	0.476300
C261	C26	0.117000	0.865300	0.249500
C271	C27	0.005500	0.765800	0.196700
C281	C28	0.651000	0.376500	0.335500
C291	C29	0.408600	0.368600	0.505000
C301	C30	0.779100	0.737300	0.461600
C311	C31	0.407300	0.226700	0.566700
C321	C32	0.724300	0.811200	0.489100
C331	C33	0.021000	0.637200	0.326300
C341	C34	0.175800	0.395600	0.509000
C351	C35	0.530500	0.375600	0.336000
C361	C36	0.810800	0.758800	0.563800
C371	C37	0.035500	0.714200	0.283500
C381	C38	0.469800	0.464500	0.344700
C391	C39	0.852400	0.671100	0.486400
C401	C40	0.984800	0.699500	0.237000
C411	C41	0.345900	0.306500	0.536600
C421	C42	0.226100	0.320900	0.539300
C431	C43	0.870100	0.684500	0.538500
C441	C44	0.913700	0.589100	0.455800
C451	C45	0.102800	0.799500	0.290300
C461	C46	0.656000	0.546200	0.347800
C471	C47	0.536000	0.551100	0.350600
C481	C48	0.338400	0.466400	0.352100
C491	C49	0.853000	0.057800	0.523700
C501	C50	0.617000	0.634700	0.750500
C511	C51	0.505500	0.734200	0.803300
C521	C52	0.151000	0.123500	0.664500
C531	C53	0.908600	0.131400	0.495000
C541	C54	0.279100	0.762700	0.538400
C551	C55	0.907300	0.273300	0.433300
C561	C56	0.224300	0.688800	0.510900
C571	C57	0.521000	0.862800	0.673700
C581	C58	0.675800	0.104400	0.491000
C591	C59	0.030500	0.124400	0.664000
C601	C60	0.310800	0.741200	0.436200
C611	C61	0.535500	0.785800	0.716500
C621	C62	0.969800	0.035500	0.655300
C631	C63	0.352400	0.828900	0.513600
C641	C64	0.484800	0.800500	0.763000
C651	C65	0.845900	0.193500	0.463400
C661	C66	0.726100	0.179100	0.460700
C671	C67	0.370100	0.815500	0.461500
C681	C68	0.413700	0.910900	0.544200
C691	C69	0.602800	0.700500	0.709700
C701	C70	0.156000	0.953800	0.652200
C711	C71	0.036000	0.948900	0.649400
C721	C72	0.838400	0.033600	0.647900
C731	C73	0.647000	0.942200	0.023700
C741	C74	0.883000	0.365300	0.250500
C751	C75	0.994500	0.265800	0.303300
C761	C76	0.349000	0.876500	0.164500
C771	C77	0.591400	0.868600	0.995000
C781	C78	0.220900	0.237300	0.038400
C791	C79	0.592700	0.726700	0.933300
C801	C80	0.275700	0.311200	0.010900
C811	C81	0.979000	0.137200	0.173700
C821	C82	0.824200	0.895600	0.991000
C831	C83	0.469500	0.875600	0.164000
C841	C84	0.189200	0.258800	0.936200
C851	C85	0.964500	0.214200	0.216500
C861	C86	0.530200	0.964500	0.155300
C871	C87	0.147600	0.171100	0.013600
C881	C88	0.015200	0.199500	0.263000
C891	C89	0.654100	0.806500	0.963400
C901	C90	0.773900	0.820900	0.960700
C911	C91	0.129900	0.184500	0.961500
C921	C92	0.086300	0.089100	0.044200
C931	C93	0.897200	0.299500	0.209700
C941	C94	0.344000	0.046200	0.152200
C951	C95	0.464000	0.051100	0.149400
C961	C96	0.661600	0.966400	0.147900
N11	N1	0.430400	0.150500	0.703230
N21	N2	0.762300	0.178100	0.040280
N31	N3	0.263100	0.545100	0.977360
N41	N4	0.785600	0.539900	0.841400
N51	N5	0.069600	0.849500	0.203230
N61	N6	0.737700	0.821900	0.540280
N71	N7	0.236900	0.454900	0.477360
N81	N8	0.714400	0.460100	0.341400
N91	N9	0.569600	0.650500	0.796770
N101	N10	0.237700	0.678100	0.459720
N111	N11	0.736900	0.045100	0.522640
N121	N12	0.214400	0.039900	0.658600
N131	N13	0.930400	0.349500	0.296770
N141	N14	0.262300	0.321900	0.959720
N151	N15	0.763100	0.954900	0.022640
N161	N16	0.285600	0.960100	0.158600
O11	O1	0.421500	0.572000	0.885410
O21	O2	0.986300	0.779700	0.060600
O31	O3	0.218100	0.609600	0.838400
O41	O4	0.202000	0.457100	0.873200
O51	O5	0.550200	0.431700	0.816550
O61	O6	0.485500	0.433900	0.971220
O71	O7	0.154900	0.829300	0.094540
O81	O8	0.421100	0.349100	0.866160
O91	O9	0.640100	0.446700	0.919060
O101	O10	0.078500	0.428000	0.385410
O111	O11	0.513700	0.220300	0.560600
O121	O12	0.281900	0.390400	0.338400
O131	O13	0.298000	0.542900	0.373200
O141	O14	0.949800	0.568300	0.316550
O151	O15	0.014500	0.566100	0.471220
O161	O16	0.345100	0.170700	0.594540
O171	O17	0.078900	0.650900	0.366160
O181	O18	0.859900	0.553300	0.419060
O191	O19	0.578500	0.072000	0.614590
O201	O20	0.013700	0.279700	0.439400
O211	O21	0.781900	0.109600	0.661600
O221	O22	0.798000	0.957100	0.626800
O231	O23	0.449800	0.931700	0.683450
O241	O24	0.514500	0.933900	0.528780
O251	O25	0.845100	0.329300	0.405460
O261	O26	0.578900	0.849100	0.633840
O271	O27	0.359900	0.946700	0.580940
O281	O28	0.921500	0.928000	0.114590
O291	O29	0.486300	0.720300	0.939400
O301	O30	0.718100	0.890400	0.161600
O311	O31	0.702000	0.042900	0.126800
O321	O32	0.050200	0.068300	0.183450
O331	O33	0.985500	0.066100	0.028780
O341	O34	0.654900	0.670700	0.905460
O351	O35	0.921100	0.150900	0.133840
O361	O36	0.140100	0.053300	0.080940
