data_VEHJOJ_freeONLY_PM
_symmetry_space_group_name_H-M	'P1'
_cell_length_a	20.573000
_cell_length_b	20.573000
_cell_length_c	20.573000
_cell_angle_alpha	90.000000
_cell_angle_beta	90.000000
_cell_angle_gamma	90.000000
_symmetry_Int_Tables_number 1

loop_
_symmetry_equiv_pos_as_xyz
'x,y,z'

loop_
_atom_site_label
_atom_site_type_symbol
_atom_site_fract_x
_atom_site_fract_y
_atom_site_fract_z
Zn11	Zn1	0.500000	0.927570	0.500000
Zn21	Zn2	0.500000	0.072430	0.500000
Zn31	Zn3	0.500000	0.500000	0.927570
Zn41	Zn4	0.500000	0.500000	0.072430
Zn51	Zn5	0.927570	0.500000	0.500000
Zn61	Zn6	0.072430	0.500000	0.500000
Zn71	Zn7	0.736810	0.263190	0.736810
Zn81	Zn8	0.834760	0.165240	0.834760
Zn91	Zn9	0.263190	0.736810	0.736810
Zn101	Zn10	0.165240	0.834760	0.834760
Zn111	Zn11	0.263190	0.263190	0.263190
Zn121	Zn12	0.165240	0.165240	0.165240
Zn131	Zn13	0.736810	0.736810	0.263190
Zn141	Zn14	0.834760	0.834760	0.165240
Zn151	Zn15	0.263190	0.736810	0.263190
Zn161	Zn16	0.165240	0.834760	0.165240
Zn171	Zn17	0.736810	0.263190	0.263190
Zn181	Zn18	0.834760	0.165240	0.165240
Zn191	Zn19	0.263190	0.263190	0.736810
Zn201	Zn20	0.165240	0.165240	0.834760
Zn211	Zn21	0.736810	0.736810	0.736810
Zn221	Zn22	0.834760	0.834760	0.834760
H11	H1	0.766900	0.000000	0.766900
H21	H2	0.233100	0.000000	0.766900
H31	H3	0.233100	0.000000	0.233100
H41	H4	0.766900	0.000000	0.233100
H51	H5	0.766900	0.766900	0.000000
H61	H6	0.766900	0.233100	0.000000
H71	H7	0.233100	0.233100	0.000000
H81	H8	0.233100	0.766900	0.000000
H91	H9	0.000000	0.766900	0.766900
H101	H10	0.000000	0.766900	0.233100
H111	H11	0.000000	0.233100	0.233100
H121	H12	0.000000	0.233100	0.766900
H131	H13	0.650900	0.098900	0.650900
H141	H14	0.349100	0.901100	0.650900
H151	H15	0.349100	0.098900	0.349100
H161	H16	0.650900	0.901100	0.349100
H171	H17	0.650900	0.650900	0.098900
H181	H18	0.650900	0.349100	0.901100
H191	H19	0.349100	0.349100	0.098900
H201	H20	0.349100	0.650900	0.901100
H211	H21	0.098900	0.650900	0.650900
H221	H22	0.901100	0.650900	0.349100
H231	H23	0.098900	0.349100	0.349100
H241	H24	0.901100	0.349100	0.650900
H251	H25	0.098900	0.650900	0.349100
H261	H26	0.901100	0.349100	0.349100
H271	H27	0.098900	0.349100	0.650900
H281	H28	0.901100	0.650900	0.650900
H291	H29	0.650900	0.650900	0.901100
H301	H30	0.349100	0.650900	0.098900
H311	H31	0.349100	0.349100	0.901100
H321	H32	0.650900	0.349100	0.098900
H331	H33	0.650900	0.098900	0.349100
H341	H34	0.650900	0.901100	0.650900
H351	H35	0.349100	0.098900	0.650900
H361	H36	0.349100	0.901100	0.349100
C11	C1	0.640000	0.000000	0.640000
C21	C2	0.734900	0.000000	0.734900
C31	C3	0.586700	0.000000	0.586700
C41	C4	0.360000	0.000000	0.640000
C51	C5	0.265100	0.000000	0.734900
C61	C6	0.413300	0.000000	0.586700
C71	C7	0.360000	0.000000	0.360000
C81	C8	0.265100	0.000000	0.265100
C91	C9	0.413300	0.000000	0.413300
C101	C10	0.640000	0.000000	0.360000
C111	C11	0.734900	0.000000	0.265100
C121	C12	0.586700	0.000000	0.413300
C131	C13	0.640000	0.640000	0.000000
C141	C14	0.734900	0.734900	0.000000
C151	C15	0.586700	0.586700	0.000000
C161	C16	0.640000	0.360000	0.000000
C171	C17	0.734900	0.265100	0.000000
C181	C18	0.586700	0.413300	0.000000
C191	C19	0.360000	0.360000	0.000000
C201	C20	0.265100	0.265100	0.000000
C211	C21	0.413300	0.413300	0.000000
C221	C22	0.360000	0.640000	0.000000
C231	C23	0.265100	0.734900	0.000000
C241	C24	0.413300	0.586700	0.000000
C251	C25	0.000000	0.640000	0.640000
C261	C26	0.000000	0.734900	0.734900
C271	C27	0.000000	0.586700	0.586700
C281	C28	0.000000	0.640000	0.360000
C291	C29	0.000000	0.734900	0.265100
C301	C30	0.000000	0.586700	0.413300
C311	C31	0.000000	0.360000	0.360000
C321	C32	0.000000	0.265100	0.265100
C331	C33	0.000000	0.413300	0.413300
C341	C34	0.000000	0.360000	0.640000
C351	C35	0.000000	0.265100	0.734900
C361	C36	0.000000	0.413300	0.586700
C371	C37	0.665900	0.059000	0.665900
C381	C38	0.711800	0.057000	0.711800
C391	C39	0.739000	0.118800	0.739000
C401	C40	0.334100	0.941000	0.665900
C411	C41	0.288200	0.943000	0.711800
C421	C42	0.261000	0.881200	0.739000
C431	C43	0.334100	0.059000	0.334100
C441	C44	0.288200	0.057000	0.288200
C451	C45	0.261000	0.118800	0.261000
C461	C46	0.665900	0.941000	0.334100
C471	C47	0.711800	0.943000	0.288200
C481	C48	0.739000	0.881200	0.261000
C491	C49	0.665900	0.665900	0.059000
C501	C50	0.711800	0.711800	0.057000
C511	C51	0.739000	0.739000	0.118800
C521	C52	0.665900	0.334100	0.941000
C531	C53	0.711800	0.288200	0.943000
C541	C54	0.739000	0.261000	0.881200
C551	C55	0.334100	0.334100	0.059000
C561	C56	0.288200	0.288200	0.057000
C571	C57	0.261000	0.261000	0.118800
C581	C58	0.334100	0.665900	0.941000
C591	C59	0.288200	0.711800	0.943000
C601	C60	0.261000	0.739000	0.881200
C611	C61	0.059000	0.665900	0.665900
C621	C62	0.057000	0.711800	0.711800
C631	C63	0.118800	0.739000	0.739000
C641	C64	0.941000	0.665900	0.334100
C651	C65	0.943000	0.711800	0.288200
C661	C66	0.881200	0.739000	0.261000
C671	C67	0.059000	0.334100	0.334100
C681	C68	0.057000	0.288200	0.288200
C691	C69	0.118800	0.261000	0.261000
C701	C70	0.941000	0.334100	0.665900
C711	C71	0.943000	0.288200	0.711800
C721	C72	0.881200	0.261000	0.739000
C731	C73	0.059000	0.665900	0.334100
C741	C74	0.057000	0.711800	0.288200
C751	C75	0.118800	0.739000	0.261000
C761	C76	0.941000	0.334100	0.334100
C771	C77	0.943000	0.288200	0.288200
C781	C78	0.881200	0.261000	0.261000
C791	C79	0.059000	0.334100	0.665900
C801	C80	0.057000	0.288200	0.711800
C811	C81	0.118800	0.261000	0.739000
C821	C82	0.941000	0.665900	0.665900
C831	C83	0.943000	0.711800	0.711800
C841	C84	0.881200	0.739000	0.739000
C851	C85	0.665900	0.665900	0.941000
C861	C86	0.711800	0.711800	0.943000
C871	C87	0.739000	0.739000	0.881200
C881	C88	0.334100	0.665900	0.059000
C891	C89	0.288200	0.711800	0.057000
C901	C90	0.261000	0.739000	0.118800
C911	C91	0.334100	0.334100	0.941000
C921	C92	0.288200	0.288200	0.943000
C931	C93	0.261000	0.261000	0.881200
C941	C94	0.665900	0.334100	0.059000
C951	C95	0.711800	0.288200	0.057000
C961	C96	0.739000	0.261000	0.118800
C971	C97	0.665900	0.059000	0.334100
C981	C98	0.711800	0.057000	0.288200
C991	C99	0.739000	0.118800	0.261000
C1001	C100	0.665900	0.941000	0.665900
C1011	C101	0.711800	0.943000	0.711800
C1021	C102	0.739000	0.881200	0.739000
C1031	C103	0.334100	0.059000	0.665900
C1041	C104	0.288200	0.057000	0.711800
C1051	C105	0.261000	0.118800	0.739000
C1061	C106	0.334100	0.941000	0.334100
C1071	C107	0.288200	0.943000	0.288200
C1081	C108	0.261000	0.881200	0.261000
O11	O1	0.568200	0.946100	0.568200
O21	O2	0.716900	0.171700	0.716900
O31	O3	0.781400	0.112300	0.781400
O41	O4	0.431800	0.053900	0.568200
O51	O5	0.283100	0.828300	0.716900
O61	O6	0.218600	0.887700	0.781400
O71	O7	0.431800	0.946100	0.431800
O81	O8	0.283100	0.171700	0.283100
O91	O9	0.218600	0.112300	0.218600
O101	O10	0.568200	0.053900	0.431800
O111	O11	0.716900	0.828300	0.283100
O121	O12	0.781400	0.887700	0.218600
O131	O13	0.568200	0.568200	0.946100
O141	O14	0.716900	0.716900	0.171700
O151	O15	0.781400	0.781400	0.112300
O161	O16	0.568200	0.431800	0.053900
O171	O17	0.716900	0.283100	0.828300
O181	O18	0.781400	0.218600	0.887700
O191	O19	0.431800	0.431800	0.946100
O201	O20	0.283100	0.283100	0.171700
O211	O21	0.218600	0.218600	0.112300
O221	O22	0.431800	0.568200	0.053900
O231	O23	0.283100	0.716900	0.828300
O241	O24	0.218600	0.781400	0.887700
O251	O25	0.946100	0.568200	0.568200
O261	O26	0.171700	0.716900	0.716900
O271	O27	0.112300	0.781400	0.781400
O281	O28	0.053900	0.568200	0.431800
O291	O29	0.828300	0.716900	0.283100
O301	O30	0.887700	0.781400	0.218600
O311	O31	0.946100	0.431800	0.431800
O321	O32	0.171700	0.283100	0.283100
O331	O33	0.112300	0.218600	0.218600
O341	O34	0.053900	0.431800	0.568200
O351	O35	0.828300	0.283100	0.716900
O361	O36	0.887700	0.218600	0.781400
O371	O37	0.946100	0.568200	0.431800
O381	O38	0.171700	0.716900	0.283100
O391	O39	0.112300	0.781400	0.218600
O401	O40	0.053900	0.431800	0.431800
O411	O41	0.828300	0.283100	0.283100
O421	O42	0.887700	0.218600	0.218600
O431	O43	0.946100	0.431800	0.568200
O441	O44	0.171700	0.283100	0.716900
O451	O45	0.112300	0.218600	0.781400
O461	O46	0.053900	0.568200	0.568200
O471	O47	0.828300	0.716900	0.716900
O481	O48	0.887700	0.781400	0.781400
O491	O49	0.568200	0.568200	0.053900
O501	O50	0.716900	0.716900	0.828300
O511	O51	0.781400	0.781400	0.887700
O521	O52	0.431800	0.568200	0.946100
O531	O53	0.283100	0.716900	0.171700
O541	O54	0.218600	0.781400	0.112300
O551	O55	0.431800	0.431800	0.053900
O561	O56	0.283100	0.283100	0.828300
O571	O57	0.218600	0.218600	0.887700
O581	O58	0.568200	0.431800	0.946100
O591	O59	0.716900	0.283100	0.171700
O601	O60	0.781400	0.218600	0.112300
O611	O61	0.568200	0.946100	0.431800
O621	O62	0.716900	0.171700	0.283100
O631	O63	0.781400	0.112300	0.218600
O641	O64	0.568200	0.053900	0.568200
O651	O65	0.716900	0.828300	0.716900
O661	O66	0.781400	0.887700	0.781400
O671	O67	0.431800	0.946100	0.568200
O681	O68	0.283100	0.171700	0.716900
O691	O69	0.218600	0.112300	0.781400
O701	O70	0.431800	0.053900	0.431800
O711	O71	0.283100	0.828300	0.283100
O721	O72	0.218600	0.887700	0.218600
O731	O73	0.500000	0.828800	0.500000
O741	O74	0.500000	0.171200	0.500000
O751	O75	0.500000	0.500000	0.828800
O761	O76	0.500000	0.500000	0.171200
O771	O77	0.828800	0.500000	0.500000
O781	O78	0.171200	0.500000	0.500000
