data_VEHKIE_SL_PM
_symmetry_space_group_name_H-M	'P1'
_cell_length_a	20.317900
_cell_length_b	20.317900
_cell_length_c	20.317900
_cell_angle_alpha	109.471200
_cell_angle_beta	109.471200
_cell_angle_gamma	109.471200
_symmetry_Int_Tables_number 1

loop_
_symmetry_equiv_pos_as_xyz
'x,y,z'

loop_
_atom_site_label
_atom_site_type_symbol
_atom_site_fract_x
_atom_site_fract_y
_atom_site_fract_z
Zn11	Zn1	0.520790	0.056200	0.946130
H21	H2	0.789800	0.275800	0.245400
H31	H3	0.747400	0.258300	0.032300
H41	H4	0.935100	0.458900	0.237600
C51	C5	0.804020	0.298390	0.215830
C61	C6	0.757410	0.254890	0.131940
C71	C7	0.778090	0.287540	0.088290
C81	C8	0.844710	0.364340	0.126350
C91	C9	0.890780	0.407500	0.211240
C101	C10	0.870650	0.374030	0.256020
C111	C11	0.681270	0.174880	0.091510
C121	C12	0.920140	0.421140	0.345080
C131	C13	0.864600	0.401200	0.077400
O141	O14	0.636160	0.143660	0.018040
O151	O15	0.671160	0.145070	0.135090
O161	O16	0.979360	0.488770	0.377210
O171	O17	0.896020	0.387370	0.381070
O181	O18	0.924210	0.471680	0.117590
O191	O19	0.826460	0.363520	0.005040
Zn201	Zn20	0.110070	0.574660	0.053870
H211	H21	0.030400	0.544400	0.754600
H221	H22	0.226000	0.715100	0.967700
H231	H23	0.221300	0.697500	0.762400
C241	C24	0.082560	0.588190	0.784170
C251	C25	0.122950	0.625470	0.868060
C261	C26	0.199250	0.689800	0.911710
C271	C27	0.237990	0.718360	0.873650
C281	C28	0.196260	0.679540	0.788760
C291	C29	0.118010	0.614630	0.743980
C301	C30	0.083370	0.589760	0.908490
C311	C31	0.076060	0.575060	0.654920
C321	C32	0.323800	0.787200	0.922600
O331	O33	0.125620	0.618120	0.981960
O341	O34	0.009980	0.536070	0.864910
O351	O35	0.111560	0.602150	0.622790
O361	O36	0.006300	0.514950	0.618930
O371	O37	0.354090	0.806620	0.882410
O381	O38	0.358480	0.821420	0.994960
Zn391	Zn39	0.889930	0.943800	0.464590
H401	H40	0.969600	0.724200	0.514000
H411	H41	0.774000	0.741700	0.489100
H421	H42	0.778700	0.541100	0.476200
C431	C43	0.917440	0.701610	0.505630
C441	C44	0.877050	0.745110	0.502520
C451	C45	0.800750	0.712460	0.490550
C461	C46	0.762010	0.635660	0.480370
C471	C47	0.803740	0.592500	0.483280
C481	C48	0.881990	0.625970	0.496620
C491	C49	0.916630	0.825120	0.506390
C501	C50	0.923940	0.578860	0.499000
C511	C51	0.676200	0.598800	0.463400
O521	O52	0.874380	0.856340	0.492500
O531	O53	0.990020	0.854930	0.526090
O541	O54	0.888440	0.511230	0.490590
O551	O55	0.993700	0.612630	0.508650
O561	O56	0.645910	0.528320	0.452530
O571	O57	0.641520	0.636480	0.462940
Zn581	Zn58	0.479210	0.425340	0.535410
H591	H59	0.210200	0.455600	0.486000
H601	H60	0.252600	0.284900	0.510900
H611	H61	0.064900	0.302500	0.523800
C621	C62	0.195980	0.411810	0.494370
C631	C63	0.242590	0.374530	0.497480
C641	C64	0.221910	0.310200	0.509450
C651	C65	0.155290	0.281640	0.519630
C661	C66	0.109220	0.320460	0.516720
C671	C67	0.129350	0.385370	0.503380
C681	C68	0.318730	0.410240	0.493610
C691	C69	0.079860	0.424940	0.501000
C701	C70	0.135400	0.212800	0.536600
O711	O71	0.363840	0.381880	0.507500
O721	O72	0.328840	0.463930	0.473910
O731	O73	0.020640	0.397850	0.509410
O741	O74	0.103980	0.485050	0.491350
O751	O75	0.075790	0.193380	0.547470
O761	O76	0.173540	0.178580	0.537060
Zn771	Zn77	0.946130	0.520790	0.056200
H781	H78	0.245400	0.789800	0.275800
H791	H79	0.032300	0.747400	0.258300
H801	H80	0.237600	0.935100	0.458900
C811	C81	0.215830	0.804020	0.298390
C821	C82	0.131940	0.757410	0.254890
C831	C83	0.088290	0.778090	0.287540
C841	C84	0.126350	0.844710	0.364340
C851	C85	0.211240	0.890780	0.407500
C861	C86	0.256020	0.870650	0.374030
C871	C87	0.091510	0.681270	0.174880
C881	C88	0.345080	0.920140	0.421140
C891	C89	0.077400	0.864600	0.401200
O901	O90	0.018040	0.636160	0.143660
O911	O91	0.135090	0.671160	0.145070
O921	O92	0.377210	0.979360	0.488770
O931	O93	0.381070	0.896020	0.387370
O941	O94	0.117590	0.924210	0.471680
O951	O95	0.005040	0.826460	0.363520
Zn961	Zn96	0.053870	0.110070	0.574660
H971	H97	0.754600	0.030400	0.544400
H981	H98	0.967700	0.226000	0.715100
H991	H99	0.762400	0.221300	0.697500
C1001	C100	0.784170	0.082560	0.588190
C1011	C101	0.868060	0.122950	0.625470
C1021	C102	0.911710	0.199250	0.689800
C1031	C103	0.873650	0.237990	0.718360
C1041	C104	0.788760	0.196260	0.679540
C1051	C105	0.743980	0.118010	0.614630
C1061	C106	0.908490	0.083370	0.589760
C1071	C107	0.654920	0.076060	0.575060
C1081	C108	0.922600	0.323800	0.787200
O1091	O109	0.981960	0.125620	0.618120
O1101	O110	0.864910	0.009980	0.536070
O1111	O111	0.622790	0.111560	0.602150
O1121	O112	0.618930	0.006300	0.514950
O1131	O113	0.882410	0.354090	0.806620
O1141	O114	0.994960	0.358480	0.821420
Zn1151	Zn115	0.464590	0.889930	0.943800
H1161	H116	0.514000	0.969600	0.724200
H1171	H117	0.489100	0.774000	0.741700
H1181	H118	0.476200	0.778700	0.541100
C1191	C119	0.505630	0.917440	0.701610
C1201	C120	0.502520	0.877050	0.745110
C1211	C121	0.490550	0.800750	0.712460
C1221	C122	0.480370	0.762010	0.635660
C1231	C123	0.483280	0.803740	0.592500
C1241	C124	0.496620	0.881990	0.625970
C1251	C125	0.506390	0.916630	0.825120
C1261	C126	0.499000	0.923940	0.578860
C1271	C127	0.463400	0.676200	0.598800
O1281	O128	0.492500	0.874380	0.856340
O1291	O129	0.526090	0.990020	0.854930
O1301	O130	0.490590	0.888440	0.511230
O1311	O131	0.508650	0.993700	0.612630
O1321	O132	0.452530	0.645910	0.528320
O1331	O133	0.462940	0.641520	0.636480
Zn1341	Zn134	0.535410	0.479210	0.425340
H1351	H135	0.486000	0.210200	0.455600
H1361	H136	0.510900	0.252600	0.284900
H1371	H137	0.523800	0.064900	0.302500
C1381	C138	0.494370	0.195980	0.411810
C1391	C139	0.497480	0.242590	0.374530
C1401	C140	0.509450	0.221910	0.310200
C1411	C141	0.519630	0.155290	0.281640
C1421	C142	0.516720	0.109220	0.320460
C1431	C143	0.503380	0.129350	0.385370
C1441	C144	0.493610	0.318730	0.410240
C1451	C145	0.501000	0.079860	0.424940
C1461	C146	0.536600	0.135400	0.212800
O1471	O147	0.507500	0.363840	0.381880
O1481	O148	0.473910	0.328840	0.463930
O1491	O149	0.509410	0.020640	0.397850
O1501	O150	0.491350	0.103980	0.485050
O1511	O151	0.547470	0.075790	0.193380
O1521	O152	0.537060	0.173540	0.178580
Zn1531	Zn153	0.056200	0.946130	0.520790
H1541	H154	0.275800	0.245400	0.789800
H1551	H155	0.258300	0.032300	0.747400
H1561	H156	0.458900	0.237600	0.935100
C1571	C157	0.298390	0.215830	0.804020
C1581	C158	0.254890	0.131940	0.757410
C1591	C159	0.287540	0.088290	0.778090
C1601	C160	0.364340	0.126350	0.844710
C1611	C161	0.407500	0.211240	0.890780
C1621	C162	0.374030	0.256020	0.870650
C1631	C163	0.174880	0.091510	0.681270
C1641	C164	0.421140	0.345080	0.920140
C1651	C165	0.401200	0.077400	0.864600
O1661	O166	0.143660	0.018040	0.636160
O1671	O167	0.145070	0.135090	0.671160
O1681	O168	0.488770	0.377210	0.979360
O1691	O169	0.387370	0.381070	0.896020
O1701	O170	0.471680	0.117590	0.924210
O1711	O171	0.363520	0.005040	0.826460
Zn1721	Zn172	0.574660	0.053870	0.110070
H1731	H173	0.544400	0.754600	0.030400
H1741	H174	0.715100	0.967700	0.226000
H1751	H175	0.697500	0.762400	0.221300
C1761	C176	0.588190	0.784170	0.082560
C1771	C177	0.625470	0.868060	0.122950
C1781	C178	0.689800	0.911710	0.199250
C1791	C179	0.718360	0.873650	0.237990
C1801	C180	0.679540	0.788760	0.196260
C1811	C181	0.614630	0.743980	0.118010
C1821	C182	0.589760	0.908490	0.083370
C1831	C183	0.575060	0.654920	0.076060
C1841	C184	0.787200	0.922600	0.323800
O1851	O185	0.618120	0.981960	0.125620
O1861	O186	0.536070	0.864910	0.009980
O1871	O187	0.602150	0.622790	0.111560
O1881	O188	0.514950	0.618930	0.006300
O1891	O189	0.806620	0.882410	0.354090
O1901	O190	0.821420	0.994960	0.358480
Zn1911	Zn191	0.943800	0.464590	0.889930
H1921	H192	0.724200	0.514000	0.969600
H1931	H193	0.741700	0.489100	0.774000
H1941	H194	0.541100	0.476200	0.778700
C1951	C195	0.701610	0.505630	0.917440
C1961	C196	0.745110	0.502520	0.877050
C1971	C197	0.712460	0.490550	0.800750
C1981	C198	0.635660	0.480370	0.762010
C1991	C199	0.592500	0.483280	0.803740
C2001	C200	0.625970	0.496620	0.881990
C2011	C201	0.825120	0.506390	0.916630
C2021	C202	0.578860	0.499000	0.923940
C2031	C203	0.598800	0.463400	0.676200
O2041	O204	0.856340	0.492500	0.874380
O2051	O205	0.854930	0.526090	0.990020
O2061	O206	0.511230	0.490590	0.888440
O2071	O207	0.612630	0.508650	0.993700
O2081	O208	0.528320	0.452530	0.645910
O2091	O209	0.636480	0.462940	0.641520
Zn2101	Zn210	0.425340	0.535410	0.479210
H2111	H211	0.455600	0.486000	0.210200
H2121	H212	0.284900	0.510900	0.252600
H2131	H213	0.302500	0.523800	0.064900
C2141	C214	0.411810	0.494370	0.195980
C2151	C215	0.374530	0.497480	0.242590
C2161	C216	0.310200	0.509450	0.221910
C2171	C217	0.281640	0.519630	0.155290
C2181	C218	0.320460	0.516720	0.109220
C2191	C219	0.385370	0.503380	0.129350
C2201	C220	0.410240	0.493610	0.318730
C2211	C221	0.424940	0.501000	0.079860
C2221	C222	0.212800	0.536600	0.135400
O2231	O223	0.381880	0.507500	0.363840
O2241	O224	0.463930	0.473910	0.328840
O2251	O225	0.397850	0.509410	0.020640
O2261	O226	0.485050	0.491350	0.103980
O2271	O227	0.193380	0.547470	0.075790
O2281	O228	0.178580	0.537060	0.173540
H2291	H229	0.440880	0.000000	0.000000
O2321	O232	0.489080	0.000000	0.000000
H2331	H233	0.000000	0.440880	0.000000
O2361	O236	0.000000	0.489080	0.000000
H2371	H237	0.000000	0.000000	0.440880
O2401	O240	0.000000	0.000000	0.489080
H2411	H241	0.559120	0.559120	0.559120
O2441	O244	0.510920	0.510920	0.510920
Zn2451	Zn245	0.936580	0.436580	0.500000
Zn2461	Zn246	0.063420	0.563420	0.500000
Zn2471	Zn247	0.500000	0.936580	0.436580
Zn2481	Zn248	0.500000	0.063420	0.563420
Zn2491	Zn249	0.436580	0.500000	0.936580
Zn2501	Zn250	0.563420	0.500000	0.063420
