data_VEJHEZ_freeONLY_PM
_symmetry_space_group_name_H-M	'P1'
_cell_length_a	37.265100
_cell_length_b	37.265100
_cell_length_c	37.265100
_cell_angle_alpha	109.471000
_cell_angle_beta	109.471000
_cell_angle_gamma	109.471000
_symmetry_Int_Tables_number 1

loop_
_symmetry_equiv_pos_as_xyz
'x,y,z'

loop_
_atom_site_label
_atom_site_type_symbol
_atom_site_fract_x
_atom_site_fract_y
_atom_site_fract_z
Zn11	Zn1	0.490070	0.147190	0.002260
Zn21	Zn2	0.751280	0.240020	0.245360
Zn31	Zn3	0.644930	0.487810	0.497740
Zn41	Zn4	0.494660	0.505920	0.254640
Zn51	Zn5	0.855070	0.352810	0.842880
Zn61	Zn6	0.005340	0.259980	0.011260
Zn71	Zn7	0.009930	0.012190	0.657120
Zn81	Zn8	0.748720	0.994080	0.488740
Zn91	Zn9	0.342880	0.855070	0.852810
Zn101	Zn10	0.511260	0.005340	0.759980
Zn111	Zn11	0.157120	0.009930	0.512190
Zn121	Zn12	0.988740	0.748720	0.494080
Zn131	Zn13	0.502260	0.490070	0.647190
Zn141	Zn14	0.745360	0.751280	0.740020
Zn151	Zn15	0.997740	0.644930	0.987810
Zn161	Zn16	0.754640	0.494660	0.005920
Zn171	Zn17	0.487810	0.997740	0.144930
Zn181	Zn18	0.505920	0.754640	0.994660
Zn191	Zn19	0.147190	0.502260	0.990070
Zn201	Zn20	0.240020	0.745360	0.251280
Zn211	Zn21	0.012190	0.157120	0.509930
Zn221	Zn22	0.994080	0.988740	0.248720
Zn231	Zn23	0.352810	0.342880	0.355070
Zn241	Zn24	0.259980	0.511260	0.505340
Zn251	Zn25	0.509930	0.852810	0.997740
Zn261	Zn26	0.248720	0.759980	0.754640
Zn271	Zn27	0.355070	0.512190	0.502260
Zn281	Zn28	0.505340	0.494080	0.745360
Zn291	Zn29	0.144930	0.647190	0.157120
Zn301	Zn30	0.994660	0.740020	0.988740
Zn311	Zn31	0.990070	0.987810	0.342880
Zn321	Zn32	0.251280	0.005920	0.511260
Zn331	Zn33	0.657120	0.144930	0.147190
Zn341	Zn34	0.488740	0.994660	0.240020
Zn351	Zn35	0.842880	0.990070	0.487810
Zn361	Zn36	0.011260	0.251280	0.505920
Zn371	Zn37	0.497740	0.509930	0.352810
Zn381	Zn38	0.254640	0.248720	0.259980
Zn391	Zn39	0.002260	0.355070	0.012190
Zn401	Zn40	0.245360	0.505340	0.994080
Zn411	Zn41	0.512190	0.002260	0.855070
Zn421	Zn42	0.494080	0.245360	0.005340
Zn431	Zn43	0.852810	0.497740	0.009930
Zn441	Zn44	0.759980	0.254640	0.748720
Zn451	Zn45	0.987810	0.842880	0.490070
Zn461	Zn46	0.005920	0.011260	0.751280
Zn471	Zn47	0.647190	0.657120	0.644930
Zn481	Zn48	0.740020	0.488740	0.494660
Zn491	Zn49	0.741190	0.491190	0.250000
Zn501	Zn50	0.758810	0.008810	0.750000
Zn511	Zn51	0.250000	0.758810	0.508810
Zn521	Zn52	0.750000	0.741190	0.991190
Zn531	Zn53	0.491190	0.750000	0.241190
Zn541	Zn54	0.008810	0.250000	0.258810
Zn551	Zn55	0.258810	0.508810	0.750000
Zn561	Zn56	0.241190	0.991190	0.250000
Zn571	Zn57	0.750000	0.241190	0.491190
Zn581	Zn58	0.250000	0.258810	0.008810
Zn591	Zn59	0.508810	0.250000	0.758810
Zn601	Zn60	0.991190	0.750000	0.741190
Zn611	Zn61	0.000000	0.500000	0.166140
Zn621	Zn62	0.000000	0.500000	0.262020
Zn631	Zn63	0.833860	0.833860	0.333860
Zn641	Zn64	0.737980	0.737980	0.237980
Zn651	Zn65	0.666140	0.000000	0.000000
Zn661	Zn66	0.762020	0.000000	0.000000
Zn671	Zn67	0.500000	0.666140	0.500000
Zn681	Zn68	0.500000	0.762020	0.500000
Zn691	Zn69	0.000000	0.500000	0.833860
Zn701	Zn70	0.000000	0.500000	0.737980
Zn711	Zn71	0.166140	0.166140	0.666140
Zn721	Zn72	0.262020	0.262020	0.762020
Zn731	Zn73	0.333860	0.000000	0.000000
Zn741	Zn74	0.237980	0.000000	0.000000
Zn751	Zn75	0.500000	0.333860	0.500000
Zn761	Zn76	0.500000	0.237980	0.500000
H11	H1	0.605300	0.211000	0.108300
H21	H2	0.611900	0.324200	0.121700
H31	H3	0.708300	0.325300	0.213800
H41	H4	0.773400	0.406200	0.136000
H51	H5	0.874600	0.494700	0.220500
H61	H6	0.630600	0.345800	0.227200
H71	H7	0.717300	0.345400	0.138300
H81	H8	0.862300	0.580900	0.223600
H91	H9	0.783100	0.489600	0.119900
H101	H10	0.894000	0.494800	0.120200
H111	H11	0.602700	0.497000	0.391700
H121	H12	0.702500	0.490200	0.378300
H131	H13	0.611500	0.494500	0.286200
H141	H14	0.770200	0.637400	0.364000
H151	H15	0.774200	0.654100	0.279500
H161	H16	0.618600	0.403400	0.272800
H171	H17	0.707100	0.579000	0.361700
H181	H18	0.857300	0.638700	0.276400
H191	H19	0.869700	0.663200	0.380100
H201	H20	0.874600	0.773800	0.379800
H211	H21	0.897300	0.289000	0.894300
H221	H22	0.797500	0.175800	0.787700
H231	H23	0.888500	0.174700	0.883000
H241	H24	0.729800	0.093800	0.867200
H251	H25	0.725800	0.005300	0.879900
H261	H26	0.881400	0.154200	0.784800
H271	H27	0.792900	0.154600	0.871900
H281	H28	0.642700	0.919100	0.781400
H291	H29	0.630300	0.010400	0.793500
H301	H30	0.625400	0.005200	0.899200
H311	H31	0.894700	0.003000	0.605700
H321	H32	0.888100	0.009800	0.712300
H331	H33	0.791700	0.005500	0.617000
H341	H34	0.726600	0.862600	0.632800
H351	H35	0.625400	0.845900	0.620100
H361	H36	0.869400	0.096600	0.715200
H371	H37	0.782700	0.921000	0.628100
H381	H38	0.637700	0.861300	0.718600
H391	H39	0.716900	0.836800	0.706500
H401	H40	0.606000	0.726200	0.600800
H411	H41	0.394300	0.897300	0.789000
H421	H42	0.287700	0.797500	0.675800
H431	H43	0.383000	0.888500	0.674700
H441	H44	0.367200	0.729800	0.593800
H451	H45	0.379900	0.725800	0.505300
H461	H46	0.284800	0.881400	0.654200
H471	H47	0.371900	0.792900	0.654600
H481	H48	0.281400	0.642700	0.419100
H491	H49	0.293500	0.630300	0.510400
H501	H50	0.399200	0.625400	0.505200
H511	H51	0.105700	0.894700	0.503000
H521	H52	0.212300	0.888100	0.509800
H531	H53	0.117000	0.791700	0.505500
H541	H54	0.132800	0.726600	0.362600
H551	H55	0.120100	0.625400	0.345900
H561	H56	0.215200	0.869400	0.596600
H571	H57	0.128100	0.782700	0.421000
H581	H58	0.218600	0.637700	0.361300
H591	H59	0.206500	0.716900	0.336800
H601	H60	0.100800	0.606000	0.226200
H611	H61	0.608300	0.605300	0.711000
H621	H62	0.621700	0.611900	0.824200
H631	H63	0.713800	0.708300	0.825300
H641	H64	0.636000	0.773400	0.906200
H651	H65	0.720500	0.874600	0.994700
H661	H66	0.727200	0.630600	0.845800
H671	H67	0.638300	0.717300	0.845400
H681	H68	0.723600	0.862300	0.080900
H691	H69	0.619900	0.783100	0.989600
H701	H70	0.620200	0.894000	0.994800
H711	H71	0.891700	0.602700	0.997000
H721	H72	0.878300	0.702500	0.990200
H731	H73	0.786200	0.611500	0.994500
H741	H74	0.864000	0.770200	0.137400
H751	H75	0.779500	0.774200	0.154100
H761	H76	0.772800	0.618600	0.903400
H771	H77	0.861700	0.707100	0.079000
H781	H78	0.776400	0.857300	0.138700
H791	H79	0.880100	0.869700	0.163200
H801	H80	0.879800	0.874600	0.273800
H811	H81	0.497000	0.891700	0.102700
H821	H82	0.490200	0.878300	0.202500
H831	H83	0.494500	0.786200	0.111500
H841	H84	0.637400	0.864000	0.270200
H851	H85	0.654100	0.779500	0.274200
H861	H86	0.403400	0.772800	0.118600
H871	H87	0.579000	0.861700	0.207100
H881	H88	0.638700	0.776400	0.357300
H891	H89	0.663200	0.880100	0.369700
H901	H90	0.773800	0.879800	0.374600
H911	H91	0.211000	0.608300	0.105300
H921	H92	0.324200	0.621700	0.111900
H931	H93	0.325300	0.713800	0.208300
H941	H94	0.406200	0.636000	0.273400
H951	H95	0.494700	0.720500	0.374600
H961	H96	0.345800	0.727200	0.130600
H971	H97	0.345400	0.638300	0.217300
H981	H98	0.580900	0.723600	0.362300
H991	H99	0.489600	0.619900	0.283100
H1001	H100	0.494800	0.620200	0.394000
H1011	H101	0.003000	0.105700	0.394700
H1021	H102	0.009800	0.212300	0.388100
H1031	H103	0.005500	0.117000	0.291700
H1041	H104	0.862600	0.132800	0.226600
H1051	H105	0.845900	0.120100	0.125400
H1061	H106	0.096600	0.215200	0.369400
H1071	H107	0.921000	0.128100	0.282700
H1081	H108	0.861300	0.218600	0.137700
H1091	H109	0.836800	0.206500	0.216900
H1101	H110	0.726200	0.100800	0.106000
H1111	H111	0.289000	0.394300	0.397300
H1121	H112	0.175800	0.287700	0.297500
H1131	H113	0.174700	0.383000	0.388500
H1141	H114	0.093800	0.367200	0.229800
H1151	H115	0.005300	0.379900	0.225800
H1161	H116	0.154200	0.284800	0.381400
H1171	H117	0.154600	0.371900	0.292900
H1181	H118	0.919100	0.281400	0.142700
H1191	H119	0.010400	0.293500	0.130300
H1201	H120	0.005200	0.399200	0.125400
H1211	H121	0.394700	0.789000	0.891700
H1221	H122	0.388100	0.675800	0.878300
H1231	H123	0.291700	0.674700	0.786200
H1241	H124	0.226600	0.593800	0.864000
H1251	H125	0.125400	0.505300	0.779500
H1261	H126	0.369400	0.654200	0.772800
H1271	H127	0.282700	0.654600	0.861700
H1281	H128	0.137700	0.419100	0.776400
H1291	H129	0.216900	0.510400	0.880100
H1301	H130	0.106000	0.505200	0.879800
H1311	H131	0.397300	0.503000	0.608300
H1321	H132	0.297500	0.509800	0.621700
H1331	H133	0.388500	0.505500	0.713800
H1341	H134	0.229800	0.362600	0.636000
H1351	H135	0.225800	0.345900	0.720500
H1361	H136	0.381400	0.596600	0.727200
H1371	H137	0.292900	0.421000	0.638300
H1381	H138	0.142700	0.361300	0.723600
H1391	H139	0.130300	0.336800	0.619900
H1401	H140	0.125400	0.226200	0.620200
H1411	H141	0.102700	0.711000	0.105700
H1421	H142	0.202500	0.824200	0.212300
H1431	H143	0.111500	0.825300	0.117000
H1441	H144	0.270200	0.906200	0.132800
H1451	H145	0.274200	0.994700	0.120100
H1461	H146	0.118600	0.845800	0.215200
H1471	H147	0.207100	0.845400	0.128100
H1481	H148	0.357300	0.080900	0.218600
H1491	H149	0.369700	0.989600	0.206500
H1501	H150	0.374600	0.994800	0.100800
H1511	H151	0.105300	0.997000	0.394300
H1521	H152	0.111900	0.990200	0.287700
H1531	H153	0.208300	0.994500	0.383000
H1541	H154	0.273400	0.137400	0.367200
H1551	H155	0.374600	0.154100	0.379900
H1561	H156	0.130600	0.903400	0.284800
H1571	H157	0.217300	0.079000	0.371900
H1581	H158	0.362300	0.138700	0.281400
H1591	H159	0.283100	0.163200	0.293500
H1601	H160	0.394000	0.273800	0.399200
H1611	H161	0.605700	0.102700	0.211000
H1621	H162	0.712300	0.202500	0.324200
H1631	H163	0.617000	0.111500	0.325300
H1641	H164	0.632800	0.270200	0.406200
H1651	H165	0.620100	0.274200	0.494700
H1661	H166	0.715200	0.118600	0.345800
H1671	H167	0.628100	0.207100	0.345400
H1681	H168	0.718600	0.357300	0.580900
H1691	H169	0.706500	0.369700	0.489600
H1701	H170	0.600800	0.374600	0.494800
H1711	H171	0.894300	0.105300	0.497000
H1721	H172	0.787700	0.111900	0.490200
H1731	H173	0.883000	0.208300	0.494500
H1741	H174	0.867200	0.273400	0.637400
H1751	H175	0.879900	0.374600	0.654100
H1761	H176	0.784800	0.130600	0.403400
H1771	H177	0.871900	0.217300	0.579000
H1781	H178	0.781400	0.362300	0.638700
H1791	H179	0.793500	0.283100	0.663200
H1801	H180	0.899200	0.394000	0.773800
H1811	H181	0.391700	0.394700	0.289000
H1821	H182	0.378300	0.388100	0.175800
H1831	H183	0.286200	0.291700	0.174700
H1841	H184	0.364000	0.226600	0.093800
H1851	H185	0.279500	0.125400	0.005300
H1861	H186	0.272800	0.369400	0.154200
H1871	H187	0.361700	0.282700	0.154600
H1881	H188	0.276400	0.137700	0.919100
H1891	H189	0.380100	0.216900	0.010400
H1901	H190	0.379800	0.106000	0.005200
H1911	H191	0.108300	0.397300	0.003000
H1921	H192	0.121700	0.297500	0.009800
H1931	H193	0.213800	0.388500	0.005500
H1941	H194	0.136000	0.229800	0.862600
H1951	H195	0.220500	0.225800	0.845900
H1961	H196	0.227200	0.381400	0.096600
H1971	H197	0.138300	0.292900	0.921000
H1981	H198	0.223600	0.142700	0.861300
H1991	H199	0.119900	0.130300	0.836800
H2001	H200	0.120200	0.125400	0.726200
H2011	H201	0.503000	0.108300	0.897300
H2021	H202	0.509800	0.121700	0.797500
H2031	H203	0.505500	0.213800	0.888500
H2041	H204	0.362600	0.136000	0.729800
H2051	H205	0.345900	0.220500	0.725800
H2061	H206	0.596600	0.227200	0.881400
H2071	H207	0.421000	0.138300	0.792900
H2081	H208	0.361300	0.223600	0.642700
H2091	H209	0.336800	0.119900	0.630300
H2101	H210	0.226200	0.120200	0.625400
H2111	H211	0.789000	0.391700	0.894700
H2121	H212	0.675800	0.378300	0.888100
H2131	H213	0.674700	0.286200	0.791700
H2141	H214	0.593800	0.364000	0.726600
H2151	H215	0.505300	0.279500	0.625400
H2161	H216	0.654200	0.272800	0.869400
H2171	H217	0.654600	0.361700	0.782700
H2181	H218	0.419100	0.276400	0.637700
H2191	H219	0.510400	0.380100	0.716900
H2201	H220	0.505200	0.379800	0.606000
H2211	H221	0.997000	0.894300	0.605300
H2221	H222	0.990200	0.787700	0.611900
H2231	H223	0.994500	0.883000	0.708300
H2241	H224	0.137400	0.867200	0.773400
H2251	H225	0.154100	0.879900	0.874600
H2261	H226	0.903400	0.784800	0.630600
H2271	H227	0.079000	0.871900	0.717300
H2281	H228	0.138700	0.781400	0.862300
H2291	H229	0.163200	0.793500	0.783100
H2301	H230	0.273800	0.899200	0.894000
H2311	H231	0.711000	0.605700	0.602700
H2321	H232	0.824200	0.712300	0.702500
H2331	H233	0.825300	0.617000	0.611500
H2341	H234	0.906200	0.632800	0.770200
H2351	H235	0.994700	0.620100	0.774200
H2361	H236	0.845800	0.715200	0.618600
H2371	H237	0.845400	0.628100	0.707100
H2381	H238	0.080900	0.718600	0.857300
H2391	H239	0.989600	0.706500	0.869700
H2401	H240	0.994800	0.600800	0.874600
C11	C1	0.660300	0.263400	0.162300
C21	C2	0.620100	0.242200	0.124700
C31	C3	0.623300	0.308200	0.132300
C41	C4	0.660900	0.328200	0.168900
C51	C5	0.681400	0.308700	0.186700
C61	C6	0.685100	0.377800	0.194700
C71	C7	0.679200	0.399800	0.228800
C81	C8	0.681500	0.238100	0.174400
C91	C9	0.719000	0.399100	0.187900
C101	C10	0.760800	0.410000	0.154400
C111	C11	0.769900	0.451700	0.187600
C121	C12	0.800400	0.491800	0.197400
C131	C13	0.808900	0.531000	0.226900
C141	C14	0.864900	0.494100	0.193200
C151	C15	0.645300	0.376300	0.237200
C161	C16	0.729200	0.376100	0.155100
C171	C17	0.824500	0.490600	0.172500
C181	C18	0.843600	0.576600	0.235800
C191	C19	0.810300	0.490800	0.133500
C201	C20	0.890800	0.496700	0.174500
C211	C21	0.876800	0.494900	0.134100
C221	C22	0.836700	0.493000	0.114500
C231	C23	0.600600	0.262100	0.109500
C241	C24	0.556300	0.237900	0.069400
C251	C25	0.822600	0.495600	0.073000
C261	C26	0.936200	0.503000	0.197200
C271	C27	0.601100	0.498000	0.337700
C281	C28	0.617500	0.495400	0.375300
C291	C29	0.675900	0.491000	0.367700
C301	C30	0.659300	0.492000	0.331100
C311	C31	0.622000	0.494700	0.313300
C321	C32	0.683100	0.490400	0.305300
C331	C33	0.671000	0.450400	0.271200
C341	C34	0.563700	0.507100	0.325600
C351	C35	0.711200	0.531100	0.312100
C361	C36	0.755600	0.606400	0.345600
C371	C37	0.764100	0.582300	0.312400
C381	C38	0.794400	0.603000	0.302600
C391	C39	0.804100	0.582000	0.273100
C401	C40	0.800900	0.671700	0.306800
C411	C41	0.639100	0.408100	0.262800
C421	C42	0.721000	0.574100	0.344900
C431	C43	0.818100	0.652000	0.327500
C441	C44	0.840800	0.607800	0.264200
C451	C45	0.857300	0.676800	0.366500
C461	C46	0.822200	0.716300	0.325500
C471	C47	0.860800	0.742700	0.365900
C481	C48	0.878500	0.722200	0.385500
C491	C49	0.652600	0.491100	0.390500
C501	C50	0.668500	0.486900	0.430600
C511	C51	0.922600	0.749600	0.427000
C521	C52	0.805800	0.739000	0.302800
C531	C53	0.898900	0.236600	0.896900
C541	C54	0.882500	0.257800	0.877900
C551	C55	0.824100	0.191800	0.815100
C561	C56	0.840700	0.171800	0.832700
C571	C57	0.878000	0.191300	0.872700
C581	C58	0.816900	0.122200	0.807300
C591	C59	0.829000	0.100200	0.779400
C601	C60	0.936300	0.261900	0.943400
C611	C61	0.788800	0.100900	0.819900
C621	C62	0.744400	0.090000	0.850800
C631	C63	0.735900	0.048300	0.818200
C641	C64	0.705600	0.008200	0.808600
C651	C65	0.695900	0.969000	0.777900
C661	C66	0.699100	0.005900	0.870800
C671	C67	0.860900	0.123700	0.769000
C681	C68	0.779000	0.123900	0.853100
C691	C69	0.681900	0.009400	0.833900
C701	C70	0.659200	0.923400	0.767000
C711	C71	0.642700	0.009200	0.819500
C721	C72	0.677800	0.003300	0.894100
C731	C73	0.639200	0.005100	0.881900
C741	C74	0.621500	0.007000	0.843700
C751	C75	0.847400	0.237900	0.838500
C761	C76	0.831500	0.262100	0.818400
C771	C77	0.577400	0.004400	0.827000
C781	C78	0.694200	0.997000	0.933200
C791	C79	0.839700	0.002000	0.603100
C801	C80	0.879900	0.004600	0.622100
C811	C81	0.876700	0.009000	0.684900
C821	C82	0.839100	0.008000	0.667300
C831	C83	0.818600	0.005300	0.627300
C841	C84	0.814900	0.009600	0.692700
C851	C85	0.820800	0.049600	0.720600
C861	C86	0.818500	0.992900	0.556600
C871	C87	0.781000	0.968900	0.680100
C881	C88	0.739200	0.893600	0.649200
C891	C89	0.730100	0.917700	0.681800
C901	C90	0.699600	0.897000	0.691400
C911	C91	0.691100	0.918000	0.722100
C921	C92	0.635100	0.828300	0.629200
C931	C93	0.854700	0.091900	0.731000
C941	C94	0.770800	0.925900	0.646900
C951	C95	0.675500	0.848000	0.666100
C961	C96	0.656400	0.892200	0.733000
C971	C97	0.689700	0.823200	0.680500
C981	C98	0.609200	0.783700	0.605900
C991	C99	0.623200	0.757300	0.618100
C1001	C100	0.663300	0.777800	0.656300
C1011	C101	0.899400	0.008900	0.661500
C1021	C102	0.943700	0.013100	0.681600
C1031	C103	0.677400	0.750400	0.673000
C1041	C104	0.563800	0.761000	0.566800
C1051	C105	0.396900	0.898900	0.736600
C1061	C106	0.377900	0.882500	0.757800
C1071	C107	0.315100	0.824100	0.691800
C1081	C108	0.332700	0.840700	0.671800
C1091	C109	0.372700	0.878000	0.691300
C1101	C110	0.307300	0.816900	0.622200
C1111	C111	0.279400	0.829000	0.600200
C1121	C112	0.443400	0.936300	0.761900
C1131	C113	0.319900	0.788800	0.600900
C1141	C114	0.350800	0.744400	0.590000
C1151	C115	0.318200	0.735900	0.548300
C1161	C116	0.308600	0.705600	0.508200
C1171	C117	0.277900	0.695900	0.469000
C1181	C118	0.370800	0.699100	0.505900
C1191	C119	0.269000	0.860900	0.623700
C1201	C120	0.353100	0.779000	0.623900
C1211	C121	0.333900	0.681900	0.509400
C1221	C122	0.267000	0.659200	0.423400
C1231	C123	0.319500	0.642700	0.509200
C1241	C124	0.394100	0.677800	0.503300
C1251	C125	0.381900	0.639200	0.505100
C1261	C126	0.343700	0.621500	0.507000
C1271	C127	0.338500	0.847400	0.737900
C1281	C128	0.318400	0.831500	0.762100
C1291	C129	0.327000	0.577400	0.504400
C1301	C130	0.433200	0.694200	0.497000
C1311	C131	0.103100	0.839700	0.502000
C1321	C132	0.122100	0.879900	0.504600
C1331	C133	0.184900	0.876700	0.509000
C1341	C134	0.167300	0.839100	0.508000
C1351	C135	0.127300	0.818600	0.505300
C1361	C136	0.192700	0.814900	0.509600
C1371	C137	0.220600	0.820800	0.549600
C1381	C138	0.056600	0.818500	0.492900
C1391	C139	0.180100	0.781000	0.468900
C1401	C140	0.149200	0.739200	0.393600
C1411	C141	0.181800	0.730100	0.417700
C1421	C142	0.191400	0.699600	0.397000
C1431	C143	0.222100	0.691100	0.418000
C1441	C144	0.129200	0.635100	0.328300
C1451	C145	0.231000	0.854700	0.591900
C1461	C146	0.146900	0.770800	0.425900
C1471	C147	0.166100	0.675500	0.348000
C1481	C148	0.233000	0.656400	0.392200
C1491	C149	0.180500	0.689700	0.323200
C1501	C150	0.105900	0.609200	0.283700
C1511	C151	0.118100	0.623200	0.257300
C1521	C152	0.156300	0.663300	0.277800
C1531	C153	0.161500	0.899400	0.508900
C1541	C154	0.181600	0.943700	0.513100
C1551	C155	0.173000	0.677400	0.250400
C1561	C156	0.066800	0.563800	0.261000
C1571	C157	0.662300	0.660300	0.763400
C1581	C158	0.624700	0.620100	0.742200
C1591	C159	0.632300	0.623300	0.808200
C1601	C160	0.668900	0.660900	0.828200
C1611	C161	0.686700	0.681400	0.808700
C1621	C162	0.694700	0.685100	0.877800
C1631	C163	0.728800	0.679200	0.899800
C1641	C164	0.674400	0.681500	0.738100
C1651	C165	0.687900	0.719000	0.899100
C1661	C166	0.654400	0.760800	0.910000
C1671	C167	0.687600	0.769900	0.951700
C1681	C168	0.697400	0.800400	0.991800
C1691	C169	0.726900	0.808900	0.031000
C1701	C170	0.693200	0.864900	0.994100
C1711	C171	0.737200	0.645300	0.876300
C1721	C172	0.655100	0.729200	0.876100
C1731	C173	0.672500	0.824500	0.990600
C1741	C174	0.735800	0.843600	0.076600
C1751	C175	0.633500	0.810300	0.990800
C1761	C176	0.674500	0.890800	0.996700
C1771	C177	0.634100	0.876800	0.994900
C1781	C178	0.614500	0.836700	0.993000
C1791	C179	0.609500	0.600600	0.762100
C1801	C180	0.569400	0.556300	0.737900
C1811	C181	0.573000	0.822600	0.995600
C1821	C182	0.697200	0.936200	0.003000
C1831	C183	0.837700	0.601100	0.998000
C1841	C184	0.875300	0.617500	0.995400
C1851	C185	0.867700	0.675900	0.991000
C1861	C186	0.831100	0.659300	0.992000
C1871	C187	0.813300	0.622000	0.994700
C1881	C188	0.805300	0.683100	0.990400
C1891	C189	0.771200	0.671000	0.950400
C1901	C190	0.825600	0.563700	0.007100
C1911	C191	0.812100	0.711200	0.031100
C1921	C192	0.845600	0.755600	0.106400
C1931	C193	0.812400	0.764100	0.082300
C1941	C194	0.802600	0.794400	0.103000
C1951	C195	0.773100	0.804100	0.082000
C1961	C196	0.806800	0.800900	0.171700
C1971	C197	0.762800	0.639100	0.908100
C1981	C198	0.844900	0.721000	0.074100
C1991	C199	0.827500	0.818100	0.152000
C2001	C200	0.764200	0.840800	0.107800
C2011	C201	0.866500	0.857300	0.176800
C2021	C202	0.825500	0.822200	0.216300
C2031	C203	0.865900	0.860800	0.242700
C2041	C204	0.885500	0.878500	0.222200
C2051	C205	0.890500	0.652600	0.991100
C2061	C206	0.930600	0.668500	0.986900
C2071	C207	0.927000	0.922600	0.249600
C2081	C208	0.802800	0.805800	0.239000
C2091	C209	0.498000	0.837700	0.101100
C2101	C210	0.495400	0.875300	0.117500
C2111	C211	0.491000	0.867700	0.175900
C2121	C212	0.492000	0.831100	0.159300
C2131	C213	0.494700	0.813300	0.122000
C2141	C214	0.490400	0.805300	0.183100
C2151	C215	0.450400	0.771200	0.171000
C2161	C216	0.507100	0.825600	0.063700
C2171	C217	0.531100	0.812100	0.211200
C2181	C218	0.606400	0.845600	0.255600
C2191	C219	0.582300	0.812400	0.264100
C2201	C220	0.603000	0.802600	0.294400
C2211	C221	0.582000	0.773100	0.304100
C2221	C222	0.671700	0.806800	0.300900
C2231	C223	0.408100	0.762800	0.139100
C2241	C224	0.574100	0.844900	0.221000
C2251	C225	0.652000	0.827500	0.318100
C2261	C226	0.607800	0.764200	0.340800
C2271	C227	0.676800	0.866500	0.357300
C2281	C228	0.716300	0.825500	0.322200
C2291	C229	0.742700	0.865900	0.360800
C2301	C230	0.722200	0.885500	0.378500
C2311	C231	0.491100	0.890500	0.152600
C2321	C232	0.486900	0.930600	0.168500
C2331	C233	0.749600	0.927000	0.422600
C2341	C234	0.739000	0.802800	0.305800
C2351	C235	0.263400	0.662300	0.160300
C2361	C236	0.242200	0.624700	0.120100
C2371	C237	0.308200	0.632300	0.123300
C2381	C238	0.328200	0.668900	0.160900
C2391	C239	0.308700	0.686700	0.181400
C2401	C240	0.377800	0.694700	0.185100
C2411	C241	0.399800	0.728800	0.179200
C2421	C242	0.238100	0.674400	0.181500
C2431	C243	0.399100	0.687900	0.219000
C2441	C244	0.410000	0.654400	0.260800
C2451	C245	0.451700	0.687600	0.269900
C2461	C246	0.491800	0.697400	0.300400
C2471	C247	0.531000	0.726900	0.308900
C2481	C248	0.494100	0.693200	0.364900
C2491	C249	0.376300	0.737200	0.145300
C2501	C250	0.376100	0.655100	0.229200
C2511	C251	0.490600	0.672500	0.324500
C2521	C252	0.576600	0.735800	0.343600
C2531	C253	0.490800	0.633500	0.310300
C2541	C254	0.496700	0.674500	0.390800
C2551	C255	0.494900	0.634100	0.376800
C2561	C256	0.493000	0.614500	0.336700
C2571	C257	0.262100	0.609500	0.100600
C2581	C258	0.237900	0.569400	0.056300
C2591	C259	0.495600	0.573000	0.322600
C2601	C260	0.503000	0.697200	0.436200
C2611	C261	0.002000	0.103100	0.339700
C2621	C262	0.004600	0.122100	0.379900
C2631	C263	0.009000	0.184900	0.376700
C2641	C264	0.008000	0.167300	0.339100
C2651	C265	0.005300	0.127300	0.318600
C2661	C266	0.009600	0.192700	0.314900
C2671	C267	0.049600	0.220600	0.320800
C2681	C268	0.992900	0.056600	0.318500
C2691	C269	0.968900	0.180100	0.281000
C2701	C270	0.893600	0.149200	0.239200
C2711	C271	0.917700	0.181800	0.230100
C2721	C272	0.897000	0.191400	0.199600
C2731	C273	0.918000	0.222100	0.191100
C2741	C274	0.828300	0.129200	0.135100
C2751	C275	0.091900	0.231000	0.354700
C2761	C276	0.925900	0.146900	0.270800
C2771	C277	0.848000	0.166100	0.175500
C2781	C278	0.892200	0.233000	0.156400
C2791	C279	0.823200	0.180500	0.189700
C2801	C280	0.783700	0.105900	0.109200
C2811	C281	0.757300	0.118100	0.123200
C2821	C282	0.777800	0.156300	0.163300
C2831	C283	0.008900	0.161500	0.399400
C2841	C284	0.013100	0.181600	0.443700
C2851	C285	0.750400	0.173000	0.177400
C2861	C286	0.761000	0.066800	0.063800
C2871	C287	0.236600	0.396900	0.398900
C2881	C288	0.257800	0.377900	0.382500
C2891	C289	0.191800	0.315100	0.324100
C2901	C290	0.171800	0.332700	0.340700
C2911	C291	0.191300	0.372700	0.378000
C2921	C292	0.122200	0.307300	0.316900
C2931	C293	0.100200	0.279400	0.329000
C2941	C294	0.261900	0.443400	0.436300
C2951	C295	0.100900	0.319900	0.288800
C2961	C296	0.090000	0.350800	0.244400
C2971	C297	0.048300	0.318200	0.235900
C2981	C298	0.008200	0.308600	0.205600
C2991	C299	0.969000	0.277900	0.195900
C3001	C300	0.005900	0.370800	0.199100
C3011	C301	0.123700	0.269000	0.360900
C3021	C302	0.123900	0.353100	0.279000
C3031	C303	0.009400	0.333900	0.181900
C3041	C304	0.923400	0.267000	0.159200
C3051	C305	0.009200	0.319500	0.142700
C3061	C306	0.003300	0.394100	0.177800
C3071	C307	0.005100	0.381900	0.139200
C3081	C308	0.007000	0.343700	0.121500
C3091	C309	0.237900	0.338500	0.347400
C3101	C310	0.262100	0.318400	0.331500
C3111	C311	0.004400	0.327000	0.077400
C3121	C312	0.997000	0.433200	0.194200
C3131	C313	0.339700	0.736600	0.837700
C3141	C314	0.379900	0.757800	0.875300
C3151	C315	0.376700	0.691800	0.867700
C3161	C316	0.339100	0.671800	0.831100
C3171	C317	0.318600	0.691300	0.813300
C3181	C318	0.314900	0.622200	0.805300
C3191	C319	0.320800	0.600200	0.771200
C3201	C320	0.318500	0.761900	0.825600
C3211	C321	0.281000	0.600900	0.812100
C3221	C322	0.239200	0.590000	0.845600
C3231	C323	0.230100	0.548300	0.812400
C3241	C324	0.199600	0.508200	0.802600
C3251	C325	0.191100	0.469000	0.773100
C3261	C326	0.135100	0.505900	0.806800
C3271	C327	0.354700	0.623700	0.762800
C3281	C328	0.270800	0.623900	0.844900
C3291	C329	0.175500	0.509400	0.827500
C3301	C330	0.156400	0.423400	0.764200
C3311	C331	0.189700	0.509200	0.866500
C3321	C332	0.109200	0.503300	0.825500
C3331	C333	0.123200	0.505100	0.865900
C3341	C334	0.163300	0.507000	0.885500
C3351	C335	0.399400	0.737900	0.890500
C3361	C336	0.443700	0.762100	0.930600
C3371	C337	0.177400	0.504400	0.927000
C3381	C338	0.063800	0.497000	0.802800
C3391	C339	0.398900	0.502000	0.662300
C3401	C340	0.382500	0.504600	0.624700
C3411	C341	0.324100	0.509000	0.632300
C3421	C342	0.340700	0.508000	0.668900
C3431	C343	0.378000	0.505300	0.686700
C3441	C344	0.316900	0.509600	0.694700
C3451	C345	0.329000	0.549600	0.728800
C3461	C346	0.436300	0.492900	0.674400
C3471	C347	0.288800	0.468900	0.687900
C3481	C348	0.244400	0.393600	0.654400
C3491	C349	0.235900	0.417700	0.687600
C3501	C350	0.205600	0.397000	0.697400
C3511	C351	0.195900	0.418000	0.726900
C3521	C352	0.199100	0.328300	0.693200
C3531	C353	0.360900	0.591900	0.737200
C3541	C354	0.279000	0.425900	0.655100
C3551	C355	0.181900	0.348000	0.672500
C3561	C356	0.159200	0.392200	0.735800
C3571	C357	0.142700	0.323200	0.633500
C3581	C358	0.177800	0.283700	0.674500
C3591	C359	0.139200	0.257300	0.634100
C3601	C360	0.121500	0.277800	0.614500
C3611	C361	0.347400	0.508900	0.609500
C3621	C362	0.331500	0.513100	0.569400
C3631	C363	0.077400	0.250400	0.573000
C3641	C364	0.194200	0.261000	0.697200
C3651	C365	0.101100	0.763400	0.103100
C3661	C366	0.117500	0.742200	0.122100
C3671	C367	0.175900	0.808200	0.184900
C3681	C368	0.159300	0.828200	0.167300
C3691	C369	0.122000	0.808700	0.127300
C3701	C370	0.183100	0.877800	0.192700
C3711	C371	0.171000	0.899800	0.220600
C3721	C372	0.063700	0.738100	0.056600
C3731	C373	0.211200	0.899100	0.180100
C3741	C374	0.255600	0.910000	0.149200
C3751	C375	0.264100	0.951700	0.181800
C3761	C376	0.294400	0.991800	0.191400
C3771	C377	0.304100	0.031000	0.222100
C3781	C378	0.300900	0.994100	0.129200
C3791	C379	0.139100	0.876300	0.231000
C3801	C380	0.221000	0.876100	0.146900
C3811	C381	0.318100	0.990600	0.166100
C3821	C382	0.340800	0.076600	0.233000
C3831	C383	0.357300	0.990800	0.180500
C3841	C384	0.322200	0.996700	0.105900
C3851	C385	0.360800	0.994900	0.118100
C3861	C386	0.378500	0.993000	0.156300
C3871	C387	0.152600	0.762100	0.161500
C3881	C388	0.168500	0.737900	0.181600
C3891	C389	0.422600	0.995600	0.173000
C3901	C390	0.305800	0.003000	0.066800
C3911	C391	0.160300	0.998000	0.396900
C3921	C392	0.120100	0.995400	0.377900
C3931	C393	0.123300	0.991000	0.315100
C3941	C394	0.160900	0.992000	0.332700
C3951	C395	0.181400	0.994700	0.372700
C3961	C396	0.185100	0.990400	0.307300
C3971	C397	0.179200	0.950400	0.279400
C3981	C398	0.181500	0.007100	0.443400
C3991	C399	0.219000	0.031100	0.319900
C4001	C400	0.260800	0.106400	0.350800
C4011	C401	0.269900	0.082300	0.318200
C4021	C402	0.300400	0.103000	0.308600
C4031	C403	0.308900	0.082000	0.277900
C4041	C404	0.364900	0.171700	0.370800
C4051	C405	0.145300	0.908100	0.269000
C4061	C406	0.229200	0.074100	0.353100
C4071	C407	0.324500	0.152000	0.333900
C4081	C408	0.343600	0.107800	0.267000
C4091	C409	0.310300	0.176800	0.319500
C4101	C410	0.390800	0.216300	0.394100
C4111	C411	0.376800	0.242700	0.381900
C4121	C412	0.336700	0.222200	0.343700
C4131	C413	0.100600	0.991100	0.338500
C4141	C414	0.056300	0.986900	0.318400
C4151	C415	0.322600	0.249600	0.327000
C4161	C416	0.436200	0.239000	0.433200
C4171	C417	0.603100	0.101100	0.263400
C4181	C418	0.622100	0.117500	0.242200
C4191	C419	0.684900	0.175900	0.308200
C4201	C420	0.667300	0.159300	0.328200
C4211	C421	0.627300	0.122000	0.308700
C4221	C422	0.692700	0.183100	0.377800
C4231	C423	0.720600	0.171000	0.399800
C4241	C424	0.556600	0.063700	0.238100
C4251	C425	0.680100	0.211200	0.399100
C4261	C426	0.649200	0.255600	0.410000
C4271	C427	0.681800	0.264100	0.451700
C4281	C428	0.691400	0.294400	0.491800
C4291	C429	0.722100	0.304100	0.531000
C4301	C430	0.629200	0.300900	0.494100
C4311	C431	0.731000	0.139100	0.376300
C4321	C432	0.646900	0.221000	0.376100
C4331	C433	0.666100	0.318100	0.490600
C4341	C434	0.733000	0.340800	0.576600
C4351	C435	0.680500	0.357300	0.490800
C4361	C436	0.605900	0.322200	0.496700
C4371	C437	0.618100	0.360800	0.494900
C4381	C438	0.656300	0.378500	0.493000
C4391	C439	0.661500	0.152600	0.262100
C4401	C440	0.681600	0.168500	0.237900
C4411	C441	0.673000	0.422600	0.495600
C4421	C442	0.566800	0.305800	0.503000
C4431	C443	0.896900	0.160300	0.498000
C4441	C444	0.877900	0.120100	0.495400
C4451	C445	0.815100	0.123300	0.491000
C4461	C446	0.832700	0.160900	0.492000
C4471	C447	0.872700	0.181400	0.494700
C4481	C448	0.807300	0.185100	0.490400
C4491	C449	0.779400	0.179200	0.450400
C4501	C450	0.943400	0.181500	0.507100
C4511	C451	0.819900	0.219000	0.531100
C4521	C452	0.850800	0.260800	0.606400
C4531	C453	0.818200	0.269900	0.582300
C4541	C454	0.808600	0.300400	0.603000
C4551	C455	0.777900	0.308900	0.582000
C4561	C456	0.870800	0.364900	0.671700
C4571	C457	0.769000	0.145300	0.408100
C4581	C458	0.853100	0.229200	0.574100
C4591	C459	0.833900	0.324500	0.652000
C4601	C460	0.767000	0.343600	0.607800
C4611	C461	0.819500	0.310300	0.676800
C4621	C462	0.894100	0.390800	0.716300
C4631	C463	0.881900	0.376800	0.742700
C4641	C464	0.843700	0.336700	0.722200
C4651	C465	0.838500	0.100600	0.491100
C4661	C466	0.818400	0.056300	0.486900
C4671	C467	0.827000	0.322600	0.749600
C4681	C468	0.933200	0.436200	0.739000
C4691	C469	0.337700	0.339700	0.236600
C4701	C470	0.375300	0.379900	0.257800
C4711	C471	0.367700	0.376700	0.191800
C4721	C472	0.331100	0.339100	0.171800
C4731	C473	0.313300	0.318600	0.191300
C4741	C474	0.305300	0.314900	0.122200
C4751	C475	0.271200	0.320800	0.100200
C4761	C476	0.325600	0.318500	0.261900
C4771	C477	0.312100	0.281000	0.100900
C4781	C478	0.345600	0.239200	0.090000
C4791	C479	0.312400	0.230100	0.048300
C4801	C480	0.302600	0.199600	0.008200
C4811	C481	0.273100	0.191100	0.969000
C4821	C482	0.306800	0.135100	0.005900
C4831	C483	0.262800	0.354700	0.123700
C4841	C484	0.344900	0.270800	0.123900
C4851	C485	0.327500	0.175500	0.009400
C4861	C486	0.264200	0.156400	0.923400
C4871	C487	0.366500	0.189700	0.009200
C4881	C488	0.325500	0.109200	0.003300
C4891	C489	0.365900	0.123200	0.005100
C4901	C490	0.385500	0.163300	0.007000
C4911	C491	0.390500	0.399400	0.237900
C4921	C492	0.430600	0.443700	0.262100
C4931	C493	0.427000	0.177400	0.004400
C4941	C494	0.302800	0.063800	0.997000
C4951	C495	0.162300	0.398900	0.002000
C4961	C496	0.124700	0.382500	0.004600
C4971	C497	0.132300	0.324100	0.009000
C4981	C498	0.168900	0.340700	0.008000
C4991	C499	0.186700	0.378000	0.005300
C5001	C500	0.194700	0.316900	0.009600
C5011	C501	0.228800	0.329000	0.049600
C5021	C502	0.174400	0.436300	0.992900
C5031	C503	0.187900	0.288800	0.968900
C5041	C504	0.154400	0.244400	0.893600
C5051	C505	0.187600	0.235900	0.917700
C5061	C506	0.197400	0.205600	0.897000
C5071	C507	0.226900	0.195900	0.918000
C5081	C508	0.193200	0.199100	0.828300
C5091	C509	0.237200	0.360900	0.091900
C5101	C510	0.155100	0.279000	0.925900
C5111	C511	0.172500	0.181900	0.848000
C5121	C512	0.235800	0.159200	0.892200
C5131	C513	0.133500	0.142700	0.823200
C5141	C514	0.174500	0.177800	0.783700
C5151	C515	0.134100	0.139200	0.757300
C5161	C516	0.114500	0.121500	0.777800
C5171	C517	0.109500	0.347400	0.008900
C5181	C518	0.069400	0.331500	0.013100
C5191	C519	0.073000	0.077400	0.750400
C5201	C520	0.197200	0.194200	0.761000
C5211	C521	0.502000	0.162300	0.898900
C5221	C522	0.504600	0.124700	0.882500
C5231	C523	0.509000	0.132300	0.824100
C5241	C524	0.508000	0.168900	0.840700
C5251	C525	0.505300	0.186700	0.878000
C5261	C526	0.509600	0.194700	0.816900
C5271	C527	0.549600	0.228800	0.829000
C5281	C528	0.492900	0.174400	0.936300
C5291	C529	0.468900	0.187900	0.788800
C5301	C530	0.393600	0.154400	0.744400
C5311	C531	0.417700	0.187600	0.735900
C5321	C532	0.397000	0.197400	0.705600
C5331	C533	0.418000	0.226900	0.695900
C5341	C534	0.328300	0.193200	0.699100
C5351	C535	0.591900	0.237200	0.860900
C5361	C536	0.425900	0.155100	0.779000
C5371	C537	0.348000	0.172500	0.681900
C5381	C538	0.392200	0.235800	0.659200
C5391	C539	0.323200	0.133500	0.642700
C5401	C540	0.283700	0.174500	0.677800
C5411	C541	0.257300	0.134100	0.639200
C5421	C542	0.277800	0.114500	0.621500
C5431	C543	0.508900	0.109500	0.847400
C5441	C544	0.513100	0.069400	0.831500
C5451	C545	0.250400	0.073000	0.577400
C5461	C546	0.261000	0.197200	0.694200
C5471	C547	0.736600	0.337700	0.839700
C5481	C548	0.757800	0.375300	0.879900
C5491	C549	0.691800	0.367700	0.876700
C5501	C550	0.671800	0.331100	0.839100
C5511	C551	0.691300	0.313300	0.818600
C5521	C552	0.622200	0.305300	0.814900
C5531	C553	0.600200	0.271200	0.820800
C5541	C554	0.761900	0.325600	0.818500
C5551	C555	0.600900	0.312100	0.781000
C5561	C556	0.590000	0.345600	0.739200
C5571	C557	0.548300	0.312400	0.730100
C5581	C558	0.508200	0.302600	0.699600
C5591	C559	0.469000	0.273100	0.691100
C5601	C560	0.505900	0.306800	0.635100
C5611	C561	0.623700	0.262800	0.854700
C5621	C562	0.623900	0.344900	0.770800
C5631	C563	0.509400	0.327500	0.675500
C5641	C564	0.423400	0.264200	0.656400
C5651	C565	0.509200	0.366500	0.689700
C5661	C566	0.503300	0.325500	0.609200
C5671	C567	0.505100	0.365900	0.623200
C5681	C568	0.507000	0.385500	0.663300
C5691	C569	0.737900	0.390500	0.899400
C5701	C570	0.762100	0.430600	0.943700
C5711	C571	0.504400	0.427000	0.677400
C5721	C572	0.497000	0.302800	0.563800
C5731	C573	0.998000	0.896900	0.660300
C5741	C574	0.995400	0.877900	0.620100
C5751	C575	0.991000	0.815100	0.623300
C5761	C576	0.992000	0.832700	0.660900
C5771	C577	0.994700	0.872700	0.681400
C5781	C578	0.990400	0.807300	0.685100
C5791	C579	0.950400	0.779400	0.679200
C5801	C580	0.007100	0.943400	0.681500
C5811	C581	0.031100	0.819900	0.719000
C5821	C582	0.106400	0.850800	0.760800
C5831	C583	0.082300	0.818200	0.769900
C5841	C584	0.103000	0.808600	0.800400
C5851	C585	0.082000	0.777900	0.808900
C5861	C586	0.171700	0.870800	0.864900
C5871	C587	0.908100	0.769000	0.645300
C5881	C588	0.074100	0.853100	0.729200
C5891	C589	0.152000	0.833900	0.824500
C5901	C590	0.107800	0.767000	0.843600
C5911	C591	0.176800	0.819500	0.810300
C5921	C592	0.216300	0.894100	0.890800
C5931	C593	0.242700	0.881900	0.876800
C5941	C594	0.222200	0.843700	0.836700
C5951	C595	0.991100	0.838500	0.600600
C5961	C596	0.986900	0.818400	0.556300
C5971	C597	0.249600	0.827000	0.822600
C5981	C598	0.239000	0.933200	0.936200
C5991	C599	0.763400	0.603100	0.601100
C6001	C600	0.742200	0.622100	0.617500
C6011	C601	0.808200	0.684900	0.675900
C6021	C602	0.828200	0.667300	0.659300
C6031	C603	0.808700	0.627300	0.622000
C6041	C604	0.877800	0.692700	0.683100
C6051	C605	0.899800	0.720600	0.671000
C6061	C606	0.738100	0.556600	0.563700
C6071	C607	0.899100	0.680100	0.711200
C6081	C608	0.910000	0.649200	0.755600
C6091	C609	0.951700	0.681800	0.764100
C6101	C610	0.991800	0.691400	0.794400
C6111	C611	0.031000	0.722100	0.804100
C6121	C612	0.994100	0.629200	0.800900
C6131	C613	0.876300	0.731000	0.639100
C6141	C614	0.876100	0.646900	0.721000
C6151	C615	0.990600	0.666100	0.818100
C6161	C616	0.076600	0.733000	0.840800
C6171	C617	0.990800	0.680500	0.857300
C6181	C618	0.996700	0.605900	0.822200
C6191	C619	0.994900	0.618100	0.860800
C6201	C620	0.993000	0.656300	0.878500
C6211	C621	0.762100	0.661500	0.652600
C6221	C622	0.737900	0.681600	0.668500
C6231	C623	0.995600	0.673000	0.922600
C6241	C624	0.003000	0.566800	0.805800
N11	N1	0.743500	0.443700	0.206400
N21	N2	0.737300	0.537100	0.293600
N31	N3	0.762700	0.056300	0.799800
N41	N4	0.756500	0.962900	0.700200
N51	N5	0.299800	0.762700	0.556300
N61	N6	0.200200	0.756500	0.462900
N71	N7	0.706400	0.743500	0.943700
N81	N8	0.793600	0.737300	0.037100
N91	N9	0.537100	0.793600	0.237300
N101	N10	0.443700	0.706400	0.243500
N111	N11	0.962900	0.200200	0.256500
N121	N12	0.056300	0.299800	0.262700
N131	N13	0.256500	0.556300	0.793600
N141	N14	0.262700	0.462900	0.706400
N151	N15	0.237300	0.943700	0.200200
N161	N16	0.243500	0.037100	0.299800
N171	N17	0.700200	0.237300	0.443700
N181	N18	0.799800	0.243500	0.537100
N191	N19	0.293600	0.256500	0.056300
N201	N20	0.206400	0.262700	0.962900
N211	N21	0.462900	0.206400	0.762700
N221	N22	0.556300	0.293600	0.756500
N231	N23	0.037100	0.799800	0.743500
N241	N24	0.943700	0.700200	0.737300
N251	N25	0.693900	0.443900	0.250000
N261	N26	0.787900	0.537900	0.250000
N271	N27	0.806100	0.056100	0.750000
N281	N28	0.712100	0.962100	0.750000
N291	N29	0.250000	0.806100	0.556100
N301	N30	0.250000	0.712100	0.462100
N311	N31	0.750000	0.693900	0.943900
N321	N32	0.750000	0.787900	0.037900
N331	N33	0.443900	0.750000	0.193900
N341	N34	0.537900	0.750000	0.287900
N351	N35	0.056100	0.250000	0.306100
N361	N36	0.962100	0.250000	0.212100
N371	N37	0.306100	0.556100	0.750000
N381	N38	0.212100	0.462100	0.750000
N391	N39	0.193900	0.943900	0.250000
N401	N40	0.287900	0.037900	0.250000
N411	N41	0.750000	0.193900	0.443900
N421	N42	0.750000	0.287900	0.537900
N431	N43	0.250000	0.306100	0.056100
N441	N44	0.250000	0.212100	0.962100
N451	N45	0.556100	0.250000	0.806100
N461	N46	0.462100	0.250000	0.712100
N471	N47	0.943900	0.750000	0.693900
N481	N48	0.037900	0.750000	0.787900
O11	O1	0.537900	0.196000	0.048700
O21	O2	0.846100	0.495400	0.056500
O31	O3	0.715600	0.258900	0.210900
O41	O4	0.788700	0.496700	0.057800
O51	O5	0.541800	0.260400	0.059200
O61	O6	0.947200	0.498200	0.229800
O71	O7	0.662400	0.197400	0.148600
O81	O8	0.959000	0.514100	0.180100
O91	O9	0.647300	0.489200	0.451300
O101	O10	0.938900	0.789600	0.443500
O111	O11	0.548000	0.504700	0.289100
O121	O12	0.938900	0.730900	0.442200
O131	O13	0.701200	0.482600	0.440800
O141	O14	0.768400	0.717400	0.270200
O151	O15	0.548800	0.513800	0.351400
O161	O16	0.834000	0.778900	0.319900
O171	O17	0.852700	0.304000	0.841900
O181	O18	0.561100	0.004600	0.850700
O191	O19	0.952000	0.241100	0.956700
O201	O20	0.561100	0.003300	0.792000
O211	O21	0.798800	0.239600	0.781400
O221	O22	0.731600	0.001800	0.949000
O231	O23	0.951200	0.302600	0.965000
O241	O24	0.666000	0.985900	0.944900
O251	O25	0.962100	0.010800	0.658100
O261	O26	0.653900	0.710400	0.649300
O271	O27	0.784400	0.995300	0.543300
O281	O28	0.711300	0.769100	0.708000
O291	O29	0.958200	0.017400	0.718600
O301	O30	0.552800	0.782600	0.551000
O311	O31	0.837600	0.986200	0.535000
O321	O32	0.541000	0.721100	0.555100
O331	O33	0.341900	0.852700	0.804000
O341	O34	0.350700	0.561100	0.504600
O351	O35	0.456700	0.952000	0.741100
O361	O36	0.292000	0.561100	0.503300
O371	O37	0.281400	0.798800	0.739600
O381	O38	0.449000	0.731600	0.501800
O391	O39	0.465000	0.951200	0.802600
O401	O40	0.444900	0.666000	0.485900
O411	O41	0.158100	0.962100	0.510800
O421	O42	0.149300	0.653900	0.210400
O431	O43	0.043300	0.784400	0.495300
O441	O44	0.208000	0.711300	0.269100
O451	O45	0.218600	0.958200	0.517400
O461	O46	0.051000	0.552800	0.282600
O471	O47	0.035000	0.837600	0.486200
O481	O48	0.055100	0.541000	0.221100
O491	O49	0.548700	0.537900	0.696000
O501	O50	0.556500	0.846100	0.995400
O511	O51	0.710900	0.715600	0.758900
O521	O52	0.557800	0.788700	0.996700
O531	O53	0.559200	0.541800	0.760400
O541	O54	0.729800	0.947200	0.998200
O551	O55	0.648600	0.662400	0.697400
O561	O56	0.680100	0.959000	0.014100
O571	O57	0.951300	0.647300	0.989200
O581	O58	0.943500	0.938900	0.289600
O591	O59	0.789100	0.548000	0.004700
O601	O60	0.942200	0.938900	0.230900
O611	O61	0.940800	0.701200	0.982600
O621	O62	0.770200	0.768400	0.217400
O631	O63	0.851400	0.548800	0.013800
O641	O64	0.819900	0.834000	0.278900
O651	O65	0.489200	0.951300	0.147300
O661	O66	0.789600	0.943500	0.438900
O671	O67	0.504700	0.789100	0.048000
O681	O68	0.730900	0.942200	0.438900
O691	O69	0.482600	0.940800	0.201200
O701	O70	0.717400	0.770200	0.268400
O711	O71	0.513800	0.851400	0.048800
O721	O72	0.778900	0.819900	0.334000
O731	O73	0.196000	0.548700	0.037900
O741	O74	0.495400	0.556500	0.346100
O751	O75	0.258900	0.710900	0.215600
O761	O76	0.496700	0.557800	0.288700
O771	O77	0.260400	0.559200	0.041800
O781	O78	0.498200	0.729800	0.447200
O791	O79	0.197400	0.648600	0.162400
O801	O80	0.514100	0.680100	0.459000
O811	O81	0.010800	0.158100	0.462100
O821	O82	0.710400	0.149300	0.153900
O831	O83	0.995300	0.043300	0.284400
O841	O84	0.769100	0.208000	0.211300
O851	O85	0.017400	0.218600	0.458200
O861	O86	0.782600	0.051000	0.052800
O871	O87	0.986200	0.035000	0.337600
O881	O88	0.721100	0.055100	0.041000
O891	O89	0.304000	0.341900	0.352700
O901	O90	0.004600	0.350700	0.061100
O911	O91	0.241100	0.456700	0.452000
O921	O92	0.003300	0.292000	0.061100
O931	O93	0.239600	0.281400	0.298800
O941	O94	0.001800	0.449000	0.231600
O951	O95	0.302600	0.465000	0.451200
O961	O96	0.985900	0.444900	0.166000
O971	O97	0.462100	0.804000	0.951300
O981	O98	0.153900	0.504600	0.943500
O991	O99	0.284400	0.741100	0.789100
O1001	O100	0.211300	0.503300	0.942200
O1011	O101	0.458200	0.739600	0.940800
O1021	O102	0.052800	0.501800	0.770200
O1031	O103	0.337600	0.802600	0.851400
O1041	O104	0.041000	0.485900	0.819900
O1051	O105	0.352700	0.510800	0.548700
O1061	O106	0.061100	0.210400	0.556500
O1071	O107	0.452000	0.495300	0.710900
O1081	O108	0.061100	0.269100	0.557800
O1091	O109	0.298800	0.517400	0.559200
O1101	O110	0.231600	0.282600	0.729800
O1111	O111	0.451200	0.486200	0.648600
O1121	O112	0.166000	0.221100	0.680100
O1131	O113	0.147300	0.696000	0.158100
O1141	O114	0.438900	0.995400	0.149300
O1151	O115	0.048000	0.758900	0.043300
O1161	O116	0.438900	0.996700	0.208000
O1171	O117	0.201200	0.760400	0.218600
O1181	O118	0.268400	0.998200	0.051000
O1191	O119	0.048800	0.697400	0.035000
O1201	O120	0.334000	0.014100	0.055100
O1211	O121	0.037900	0.989200	0.341900
O1221	O122	0.346100	0.289600	0.350700
O1231	O123	0.215600	0.004700	0.456700
O1241	O124	0.288700	0.230900	0.292000
O1251	O125	0.041800	0.982600	0.281400
O1261	O126	0.447200	0.217400	0.449000
O1271	O127	0.162400	0.013800	0.465000
O1281	O128	0.459000	0.278900	0.444900
O1291	O129	0.658100	0.147300	0.196000
O1301	O130	0.649300	0.438900	0.495400
O1311	O131	0.543300	0.048000	0.258900
O1321	O132	0.708000	0.438900	0.496700
O1331	O133	0.718600	0.201200	0.260400
O1341	O134	0.551000	0.268400	0.498200
O1351	O135	0.535000	0.048800	0.197400
O1361	O136	0.555100	0.334000	0.514100
O1371	O137	0.841900	0.037900	0.489200
O1381	O138	0.850700	0.346100	0.789600
O1391	O139	0.956700	0.215600	0.504700
O1401	O140	0.792000	0.288700	0.730900
O1411	O141	0.781400	0.041800	0.482600
O1421	O142	0.949000	0.447200	0.717400
O1431	O143	0.965000	0.162400	0.513800
O1441	O144	0.944900	0.459000	0.778900
O1451	O145	0.451300	0.462100	0.304000
O1461	O146	0.443500	0.153900	0.004600
O1471	O147	0.289100	0.284400	0.241100
O1481	O148	0.442200	0.211300	0.003300
O1491	O149	0.440800	0.458200	0.239600
O1501	O150	0.270200	0.052800	0.001800
O1511	O151	0.351400	0.337600	0.302600
O1521	O152	0.319900	0.041000	0.985900
O1531	O153	0.048700	0.352700	0.010800
O1541	O154	0.056500	0.061100	0.710400
O1551	O155	0.210900	0.452000	0.995300
O1561	O156	0.057800	0.061100	0.769100
O1571	O157	0.059200	0.298800	0.017400
O1581	O158	0.229800	0.231600	0.782600
O1591	O159	0.148600	0.451200	0.986200
O1601	O160	0.180100	0.166000	0.721100
O1611	O161	0.510800	0.048700	0.852700
O1621	O162	0.210400	0.056500	0.561100
O1631	O163	0.495300	0.210900	0.952000
O1641	O164	0.269100	0.057800	0.561100
O1651	O165	0.517400	0.059200	0.798800
O1661	O166	0.282600	0.229800	0.731600
O1671	O167	0.486200	0.148600	0.951200
O1681	O168	0.221100	0.180100	0.666000
O1691	O169	0.804000	0.451300	0.962100
O1701	O170	0.504600	0.443500	0.653900
O1711	O171	0.741100	0.289100	0.784400
O1721	O172	0.503300	0.442200	0.711300
O1731	O173	0.739600	0.440800	0.958200
O1741	O174	0.501800	0.270200	0.552800
O1751	O175	0.802600	0.351400	0.837600
O1761	O176	0.485900	0.319900	0.541000
O1771	O177	0.989200	0.841900	0.537900
O1781	O178	0.289600	0.850700	0.846100
O1791	O179	0.004700	0.956700	0.715600
O1801	O180	0.230900	0.792000	0.788700
O1811	O181	0.982600	0.781400	0.541800
O1821	O182	0.217400	0.949000	0.947200
O1831	O183	0.013800	0.965000	0.662400
O1841	O184	0.278900	0.944900	0.959000
O1851	O185	0.696000	0.658100	0.647300
O1861	O186	0.995400	0.649300	0.938900
O1871	O187	0.758900	0.543300	0.548000
O1881	O188	0.996700	0.708000	0.938900
O1891	O189	0.760400	0.718600	0.701200
O1901	O190	0.998200	0.551000	0.768400
O1911	O191	0.697400	0.535000	0.548800
O1921	O192	0.014100	0.555100	0.834000
