data_VEJYIT_freeONLY_PM
_symmetry_space_group_name_H-M	'P1'
_cell_length_a	9.679000
_cell_length_b	24.114000
_cell_length_c	24.450000
_cell_angle_alpha	90.000000
_cell_angle_beta	90.000000
_cell_angle_gamma	90.000000
_symmetry_Int_Tables_number 1

loop_
_symmetry_equiv_pos_as_xyz
'x,y,z'

loop_
_atom_site_label
_atom_site_type_symbol
_atom_site_fract_x
_atom_site_fract_y
_atom_site_fract_z
Zn11	Zn1	0.015110	0.825350	0.498780
Zn21	Zn2	0.002040	0.998210	0.676130
Zn31	Zn3	0.484890	0.174650	0.998780
Zn41	Zn4	0.497960	0.001790	0.176130
Zn51	Zn5	0.984890	0.325350	0.001220
Zn61	Zn6	0.997960	0.498210	0.823870
Zn71	Zn7	0.515110	0.674650	0.501220
Zn81	Zn8	0.502040	0.501790	0.323870
Zn91	Zn9	0.984890	0.174650	0.501220
Zn101	Zn10	0.997960	0.001790	0.323870
Zn111	Zn11	0.515110	0.825350	0.001220
Zn121	Zn12	0.502040	0.998210	0.823870
Zn131	Zn13	0.015110	0.674650	0.998780
Zn141	Zn14	0.002040	0.501790	0.176130
Zn151	Zn15	0.484890	0.325350	0.498780
Zn161	Zn16	0.497960	0.498210	0.676130
H11	H1	0.978000	0.945500	0.557700
H21	H2	0.302800	0.965200	0.725600
H31	H3	0.973900	0.725600	0.583600
H41	H4	0.006100	0.051700	0.795600
H51	H5	0.718500	0.773800	0.467100
H61	H6	0.205400	0.051400	0.857000
H71	H7	0.073900	0.938900	0.438400
H81	H8	0.770000	0.664800	0.586800
H91	H9	0.136100	0.808300	0.615600
H101	H10	0.808200	0.894100	0.323500
H111	H11	0.131300	0.876900	0.690600
H121	H12	0.811500	0.821200	0.393700
H131	H13	0.522000	0.054500	0.057700
H141	H14	0.197200	0.034800	0.225600
H151	H15	0.526100	0.274400	0.083600
H161	H16	0.493900	0.948300	0.295600
H171	H17	0.781500	0.226200	0.967100
H181	H18	0.294600	0.948600	0.357000
H191	H19	0.426100	0.061100	0.938400
H201	H20	0.730000	0.335200	0.086800
H211	H21	0.363900	0.191700	0.115600
H221	H22	0.691800	0.105900	0.823500
H231	H23	0.368700	0.123100	0.190600
H241	H24	0.688500	0.178800	0.893700
H251	H25	0.022000	0.445500	0.942300
H261	H26	0.697200	0.465200	0.774400
H271	H27	0.026100	0.225600	0.916400
H281	H28	0.993900	0.551700	0.704400
H291	H29	0.281500	0.273800	0.032900
H301	H30	0.794600	0.551400	0.643000
H311	H31	0.926100	0.438900	0.061600
H321	H32	0.230000	0.164800	0.913200
H331	H33	0.863900	0.308300	0.884400
H341	H34	0.191800	0.394100	0.176500
H351	H35	0.868700	0.376900	0.809400
H361	H36	0.188500	0.321200	0.106300
H371	H37	0.478000	0.554500	0.442300
H381	H38	0.802800	0.534800	0.274400
H391	H39	0.473900	0.774400	0.416400
H401	H40	0.506100	0.448300	0.204400
H411	H41	0.218500	0.726200	0.532900
H421	H42	0.705400	0.448600	0.143000
H431	H43	0.573900	0.561100	0.561600
H441	H44	0.270000	0.835200	0.413200
H451	H45	0.636100	0.691700	0.384400
H461	H46	0.308200	0.605900	0.676500
H471	H47	0.631300	0.623100	0.309400
H481	H48	0.311500	0.678800	0.606300
H491	H49	0.022000	0.054500	0.442300
H501	H50	0.697200	0.034800	0.274400
H511	H51	0.026100	0.274400	0.416400
H521	H52	0.993900	0.948300	0.204400
H531	H53	0.281500	0.226200	0.532900
H541	H54	0.794600	0.948600	0.143000
H551	H55	0.926100	0.061100	0.561600
H561	H56	0.230000	0.335200	0.413200
H571	H57	0.863900	0.191700	0.384400
H581	H58	0.191800	0.105900	0.676500
H591	H59	0.868700	0.123100	0.309400
H601	H60	0.188500	0.178800	0.606300
H611	H61	0.478000	0.945500	0.942300
H621	H62	0.802800	0.965200	0.774400
H631	H63	0.473900	0.725600	0.916400
H641	H64	0.506100	0.051700	0.704400
H651	H65	0.218500	0.773800	0.032900
H661	H66	0.705400	0.051400	0.643000
H671	H67	0.573900	0.938900	0.061600
H681	H68	0.270000	0.664800	0.913200
H691	H69	0.636100	0.808300	0.884400
H701	H70	0.308200	0.894100	0.176500
H711	H71	0.631300	0.876900	0.809400
H721	H72	0.311500	0.821200	0.106300
H731	H73	0.978000	0.554500	0.057700
H741	H74	0.302800	0.534800	0.225600
H751	H75	0.973900	0.774400	0.083600
H761	H76	0.006100	0.448300	0.295600
H771	H77	0.718500	0.726200	0.967100
H781	H78	0.205400	0.448600	0.357000
H791	H79	0.073900	0.561100	0.938400
H801	H80	0.770000	0.835200	0.086800
H811	H81	0.136100	0.691700	0.115600
H821	H82	0.808200	0.605900	0.823500
H831	H83	0.131300	0.623100	0.190600
H841	H84	0.811500	0.678800	0.893700
H851	H85	0.522000	0.445500	0.557700
H861	H86	0.197200	0.465200	0.725600
H871	H87	0.526100	0.225600	0.583600
H881	H88	0.493900	0.551700	0.795600
H891	H89	0.781500	0.273800	0.467100
H901	H90	0.294600	0.551400	0.857000
H911	H91	0.426100	0.438900	0.438400
H921	H92	0.730000	0.164800	0.586800
H931	H93	0.363900	0.308300	0.615600
H941	H94	0.691800	0.394100	0.323500
H951	H95	0.368700	0.376900	0.690600
H961	H96	0.688500	0.321200	0.393700
C11	C1	0.017200	0.919000	0.581900
C21	C2	0.253400	0.987600	0.750800
C31	C3	0.896600	0.727800	0.559800
C41	C4	0.091900	0.034000	0.788400
C51	C5	0.758400	0.753700	0.496700
C61	C6	0.201600	0.034100	0.822100
C71	C7	0.007800	0.918200	0.418200
C81	C8	0.784700	0.694300	0.561800
C91	C9	0.102600	0.845200	0.612700
C101	C10	0.864200	0.894200	0.355500
C111	C11	0.099500	0.882800	0.654300
C121	C12	0.864900	0.854300	0.394500
C131	C13	0.482800	0.081000	0.081900
C141	C14	0.246600	0.012400	0.250800
C151	C15	0.603400	0.272200	0.059800
C161	C16	0.408100	0.966000	0.288400
C171	C17	0.741600	0.246300	0.996700
C181	C18	0.298400	0.965900	0.322100
C191	C19	0.492200	0.081800	0.918200
C201	C20	0.715300	0.305700	0.061800
C211	C21	0.397400	0.154800	0.112700
C221	C22	0.635800	0.105800	0.855500
C231	C23	0.400500	0.117200	0.154300
C241	C24	0.635100	0.145700	0.894500
C251	C25	0.982800	0.419000	0.918100
C261	C26	0.746600	0.487600	0.749200
C271	C27	0.103400	0.227800	0.940200
C281	C28	0.908100	0.534000	0.711600
C291	C29	0.241600	0.253700	0.003300
C301	C30	0.798400	0.534100	0.677900
C311	C31	0.992200	0.418200	0.081800
C321	C32	0.215300	0.194300	0.938200
C331	C33	0.897400	0.345200	0.887300
C341	C34	0.135800	0.394200	0.144500
C351	C35	0.900500	0.382800	0.845700
C361	C36	0.135100	0.354300	0.105500
C371	C37	0.517200	0.581000	0.418100
C381	C38	0.753400	0.512400	0.249200
C391	C39	0.396600	0.772200	0.440200
C401	C40	0.591900	0.466000	0.211600
C411	C41	0.258400	0.746300	0.503300
C421	C42	0.701600	0.465900	0.177900
C431	C43	0.507800	0.581800	0.581800
C441	C44	0.284700	0.805700	0.438200
C451	C45	0.602600	0.654800	0.387300
C461	C46	0.364200	0.605800	0.644500
C471	C47	0.599500	0.617200	0.345700
C481	C48	0.364900	0.645700	0.605500
C491	C49	0.982800	0.081000	0.418100
C501	C50	0.746600	0.012400	0.249200
C511	C51	0.103400	0.272200	0.440200
C521	C52	0.908100	0.966000	0.211600
C531	C53	0.241600	0.246300	0.503300
C541	C54	0.798400	0.965900	0.177900
C551	C55	0.992200	0.081800	0.581800
C561	C56	0.215300	0.305700	0.438200
C571	C57	0.897400	0.154800	0.387300
C581	C58	0.135800	0.105800	0.644500
C591	C59	0.900500	0.117200	0.345700
C601	C60	0.135100	0.145700	0.605500
C611	C61	0.517200	0.919000	0.918100
C621	C62	0.753400	0.987600	0.749200
C631	C63	0.396600	0.727800	0.940200
C641	C64	0.591900	0.034000	0.711600
C651	C65	0.258400	0.753700	0.003300
C661	C66	0.701600	0.034100	0.677900
C671	C67	0.507800	0.918200	0.081800
C681	C68	0.284700	0.694300	0.938200
C691	C69	0.602600	0.845200	0.887300
C701	C70	0.364200	0.894200	0.144500
C711	C71	0.599500	0.882800	0.845700
C721	C72	0.364900	0.854300	0.105500
C731	C73	0.017200	0.581000	0.081900
C741	C74	0.253400	0.512400	0.250800
C751	C75	0.896600	0.772200	0.059800
C761	C76	0.091900	0.466000	0.288400
C771	C77	0.758400	0.746300	0.996700
C781	C78	0.201600	0.465900	0.322100
C791	C79	0.007800	0.581800	0.918200
C801	C80	0.784700	0.805700	0.061800
C811	C81	0.102600	0.654800	0.112700
C821	C82	0.864200	0.605800	0.855500
C831	C83	0.099500	0.617200	0.154300
C841	C84	0.864900	0.645700	0.894500
C851	C85	0.482800	0.419000	0.581900
C861	C86	0.246600	0.487600	0.750800
C871	C87	0.603400	0.227800	0.559800
C881	C88	0.408100	0.534000	0.788400
C891	C89	0.741600	0.253700	0.496700
C901	C90	0.298400	0.534100	0.822100
C911	C91	0.492200	0.418200	0.418200
C921	C92	0.715300	0.194300	0.561800
C931	C93	0.397400	0.345200	0.612700
C941	C94	0.635800	0.394200	0.355500
C951	C95	0.400500	0.382800	0.654300
C961	C96	0.635100	0.354300	0.394500
N11	N1	0.881600	0.765400	0.518100
N21	N2	0.696800	0.710600	0.521300
N31	N3	0.121500	0.005100	0.742800
N41	N4	0.305900	0.005500	0.798200
N51	N5	0.050000	0.868700	0.566400
N61	N6	0.043300	0.929800	0.634600
N71	N7	0.954900	0.869100	0.435400
N81	N8	0.956800	0.934900	0.369300
N91	N9	0.618400	0.234600	0.018100
N101	N10	0.803200	0.289400	0.021300
N111	N11	0.378500	0.994900	0.242800
N121	N12	0.194100	0.994500	0.298200
N131	N13	0.450000	0.131300	0.066400
N141	N14	0.456700	0.070200	0.134600
N151	N15	0.545100	0.130900	0.935400
N161	N16	0.543200	0.065100	0.869300
N171	N17	0.118400	0.265400	0.981900
N181	N18	0.303200	0.210600	0.978700
N191	N19	0.878500	0.505100	0.757200
N201	N20	0.694100	0.505500	0.701800
N211	N21	0.950000	0.368700	0.933600
N221	N22	0.956700	0.429800	0.865400
N231	N23	0.045100	0.369100	0.064600
N241	N24	0.043200	0.434900	0.130700
N251	N25	0.381600	0.734600	0.481900
N261	N26	0.196800	0.789400	0.478700
N271	N27	0.621500	0.494900	0.257200
N281	N28	0.805900	0.494500	0.201800
N291	N29	0.550000	0.631300	0.433600
N301	N30	0.543300	0.570200	0.365400
N311	N31	0.454900	0.630900	0.564600
N321	N32	0.456800	0.565100	0.630700
N331	N33	0.118400	0.234600	0.481900
N341	N34	0.303200	0.289400	0.478700
N351	N35	0.878500	0.994900	0.257200
N361	N36	0.694100	0.994500	0.201800
N371	N37	0.950000	0.131300	0.433600
N381	N38	0.956700	0.070200	0.365400
N391	N39	0.045100	0.130900	0.564600
N401	N40	0.043200	0.065100	0.630700
N411	N41	0.381600	0.765400	0.981900
N421	N42	0.196800	0.710600	0.978700
N431	N43	0.621500	0.005100	0.757200
N441	N44	0.805900	0.005500	0.701800
N451	N45	0.550000	0.868700	0.933600
N461	N46	0.543300	0.929800	0.865400
N471	N47	0.454900	0.869100	0.064600
N481	N48	0.456800	0.934900	0.130700
N491	N49	0.881600	0.734600	0.018100
N501	N50	0.696800	0.789400	0.021300
N511	N51	0.121500	0.494900	0.242800
N521	N52	0.305900	0.494500	0.298200
N531	N53	0.050000	0.631300	0.066400
N541	N54	0.043300	0.570200	0.134600
N551	N55	0.954900	0.630900	0.935400
N561	N56	0.956800	0.565100	0.869300
N571	N57	0.618400	0.265400	0.518100
N581	N58	0.803200	0.210600	0.521300
N591	N59	0.378500	0.505100	0.742800
N601	N60	0.194100	0.505500	0.798200
N611	N61	0.450000	0.368700	0.566400
N621	N62	0.456700	0.429800	0.634600
N631	N63	0.545100	0.369100	0.435400
N641	N64	0.543200	0.434900	0.369300
