data_VEMMAC_freeONLY_PM
_symmetry_space_group_name_H-M	'P1'
_cell_length_a	11.571300
_cell_length_b	11.736000
_cell_length_c	13.619000
_cell_angle_alpha	92.869000
_cell_angle_beta	114.443000
_cell_angle_gamma	107.988000
_symmetry_Int_Tables_number 1

loop_
_symmetry_equiv_pos_as_xyz
'x,y,z'

loop_
_atom_site_label
_atom_site_type_symbol
_atom_site_fract_x
_atom_site_fract_y
_atom_site_fract_z
Zn11	Zn1	0.104390	0.233920	0.953610
Zn21	Zn2	0.895610	0.766080	0.046390
Zn31	Zn3	0.000000	0.500000	0.000000
H11	H1	0.992400	0.891900	0.773500
H21	H2	0.855200	0.779800	0.710100
H31	H3	0.933300	0.846100	0.646300
H41	H4	0.701900	0.874100	0.527200
H51	H5	0.636700	0.849600	0.608300
H61	H6	0.683300	0.981400	0.585000
H71	H7	0.672300	0.929300	0.025000
H81	H8	0.119500	0.375400	0.575000
H91	H9	0.351200	0.602300	0.437200
H101	H10	0.907700	0.579100	0.594400
H111	H11	0.513000	0.368300	0.377700
H121	H12	0.519800	0.189800	0.961400
H131	H13	0.856500	0.098400	0.752100
H141	H14	0.007600	0.108100	0.226500
H151	H15	0.144800	0.220200	0.289900
H161	H16	0.066700	0.153900	0.353700
H171	H17	0.298100	0.125900	0.472800
H181	H18	0.363300	0.150400	0.391700
H191	H19	0.316700	0.018600	0.415000
H201	H20	0.327700	0.070700	0.975000
H211	H21	0.880500	0.624600	0.425000
H221	H22	0.648800	0.397700	0.562800
H231	H23	0.092300	0.420900	0.405600
H241	H24	0.487000	0.631700	0.622300
H251	H25	0.480200	0.810200	0.038600
H261	H26	0.143500	0.901600	0.247900
C11	C1	0.519000	0.413600	0.917200
C21	C2	0.656000	0.422000	0.133000
C31	C3	0.411100	0.315400	0.033300
C41	C4	0.737000	0.150800	0.984200
C51	C5	0.910400	0.857400	0.705400
C61	C6	0.703500	0.908000	0.593600
C71	C7	0.027200	0.442200	0.708100
C81	C8	0.329100	0.461300	0.267900
C91	C9	0.013700	0.471300	0.601400
C101	C10	0.418500	0.483000	0.387200
C111	C11	0.603200	0.959100	0.014600
C121	C12	0.070800	0.425300	0.545000
C131	C13	0.411400	0.561000	0.462200
C141	C14	0.944800	0.546400	0.556400
C151	C15	0.614600	0.072500	0.991200
C161	C16	0.507700	0.421900	0.427000
C171	C17	0.512900	0.112500	0.977100
C181	C18	0.904400	0.046000	0.760300
C191	C19	0.481000	0.586400	0.082800
C201	C20	0.344000	0.578000	0.867000
C211	C21	0.588900	0.684600	0.966700
C221	C22	0.263000	0.849200	0.015800
C231	C23	0.089600	0.142600	0.294600
C241	C24	0.296500	0.092000	0.406400
C251	C25	0.972800	0.557800	0.291900
C261	C26	0.670900	0.538700	0.732100
C271	C27	0.986300	0.528700	0.398600
C281	C28	0.581500	0.517000	0.612800
C291	C29	0.396800	0.040900	0.985400
C301	C30	0.929200	0.574700	0.455000
C311	C31	0.588600	0.439000	0.537800
C321	C32	0.055200	0.453600	0.443600
C331	C33	0.385400	0.927500	0.008800
C341	C34	0.492300	0.578100	0.573000
C351	C35	0.487100	0.887500	0.022900
C361	C36	0.095600	0.954000	0.239700
N11	N1	0.521400	0.386800	0.022600
N21	N2	0.301600	0.363700	0.195500
N31	N3	0.829700	0.112700	0.972200
N41	N4	0.055800	0.353200	0.842400
N51	N5	0.014100	0.510500	0.781000
N61	N6	0.210000	0.374200	0.099800
N71	N7	0.032600	0.452700	0.864500
N81	N8	0.920500	0.212900	0.970500
N91	N9	0.884700	0.307300	0.980700
N101	N10	0.185100	0.474800	0.114200
N111	N11	0.769100	0.271800	0.989300
N121	N12	0.053400	0.344000	0.743300
N131	N13	0.838100	0.936700	0.685200
N141	N14	0.260100	0.532300	0.220200
N151	N15	0.478600	0.613200	0.977400
N161	N16	0.698400	0.636300	0.804500
N171	N17	0.170300	0.887300	0.027800
N181	N18	0.944200	0.646800	0.157600
N191	N19	0.985900	0.489500	0.219000
N201	N20	0.790000	0.625800	0.900200
N211	N21	0.967400	0.547300	0.135500
N221	N22	0.079500	0.787100	0.029500
N231	N23	0.115300	0.692700	0.019300
N241	N24	0.814900	0.525200	0.885800
N251	N25	0.230900	0.728200	0.010700
N261	N26	0.946600	0.656000	0.256700
N271	N27	0.161900	0.063300	0.314800
N281	N28	0.739900	0.467700	0.779800
O11	O1	0.284000	0.271600	0.931700
O21	O2	0.160500	0.119500	0.064000
O31	O3	0.013000	0.079800	0.832400
O41	O4	0.716000	0.728400	0.068300
O51	O5	0.839500	0.880500	0.936000
O61	O6	0.987000	0.920200	0.167600
