data_VEWKUF_freeONLY_PM
_symmetry_space_group_name_H-M	'P1'
_cell_length_a	20.653600
_cell_length_b	20.792600
_cell_length_c	33.497400
_cell_angle_alpha	90.000000
_cell_angle_beta	90.000000
_cell_angle_gamma	118.619000
_symmetry_Int_Tables_number 1

loop_
_symmetry_equiv_pos_as_xyz
'x,y,z'

loop_
_atom_site_label
_atom_site_type_symbol
_atom_site_fract_x
_atom_site_fract_y
_atom_site_fract_z
Zn11	Zn1	0.651360	0.808150	0.001940
Zn21	Zn2	0.847970	0.196250	0.939030
Zn31	Zn3	0.747270	0.005210	0.970030
Zn41	Zn4	0.348640	0.191850	0.501940
Zn51	Zn5	0.152030	0.803750	0.439030
Zn61	Zn6	0.252730	0.994790	0.470030
C11	C1	0.790400	0.144100	0.013500
C21	C2	0.791200	0.144400	0.059100
C31	C3	0.850500	0.200400	0.080000
C41	C4	0.854500	0.199000	0.119100
C51	C5	0.798500	0.144500	0.142200
C61	C6	0.743000	0.089800	0.122600
C71	C7	0.738300	0.090100	0.080100
C81	C8	0.284900	0.911000	0.408300
C91	C9	0.360400	0.941700	0.392500
C101	C10	0.387500	0.893800	0.386700
C111	C11	0.468100	0.928100	0.374800
C121	C12	0.505300	0.000200	0.364700
C131	C13	0.473500	0.043300	0.369300
C141	C14	0.401400	0.014500	0.383500
C151	C15	0.299400	0.140800	0.424600
C161	C16	0.305200	0.141700	0.382800
C171	C17	0.244600	0.087200	0.358600
C181	C18	0.246300	0.086500	0.318500
C191	C19	0.310900	0.143200	0.298000
C201	C20	0.367900	0.192800	0.320300
C211	C21	0.363000	0.193500	0.363500
C221	C22	0.780100	0.919400	0.035400
C231	C23	0.855500	0.949600	0.051400
C241	C24	0.891600	0.905400	0.057400
C251	C25	0.960500	0.932100	0.071800
C261	C26	0.003200	0.009600	0.078400
C271	C27	0.968300	0.053300	0.075100
C281	C28	0.894900	0.025100	0.061600
C291	C29	0.079700	0.043100	0.090400
C301	C30	0.124900	0.015700	0.074200
C311	C31	0.201400	0.049800	0.085200
C321	C32	0.231100	0.110300	0.110590
C331	C33	0.186300	0.133600	0.128800
C341	C34	0.112000	0.098700	0.118600
C351	C35	0.804600	0.145500	0.186100
C361	C36	0.835300	0.210300	0.209900
C371	C37	0.844300	0.211400	0.247800
C381	C38	0.814900	0.145700	0.271000
C391	C39	0.779100	0.079300	0.249400
C401	C40	0.776900	0.078900	0.207700
C411	C41	0.853400	0.221700	0.333400
C421	C42	0.923400	0.261900	0.331000
C431	C43	0.962900	0.337500	0.345800
C441	C44	0.921100	0.365100	0.364600
C451	C45	0.847300	0.321300	0.369600
C461	C46	0.811300	0.249500	0.354900
C471	C47	0.734500	0.099400	0.330700
C481	C48	0.684600	0.123300	0.313000
C491	C49	0.707000	0.042900	0.354100
C501	C50	0.313100	0.149400	0.122800
C511	C51	0.352400	0.109200	0.105800
C521	C52	0.367400	0.112200	0.063900
C531	C53	0.402900	0.075900	0.047800
C541	C54	0.424800	0.036500	0.069300
C551	C55	0.412800	0.029800	0.112200
C561	C56	0.374700	0.063800	0.128100
C571	C57	0.354000	0.227000	0.104600
C581	C58	0.322400	0.261000	0.087900
C591	C59	0.362500	0.333000	0.073400
C601	C60	0.439500	0.371900	0.076200
C611	C61	0.474400	0.336000	0.094300
C621	C62	0.433400	0.266400	0.110600
C631	C63	0.484100	0.443900	0.059300
C641	C64	0.452700	0.494600	0.059700
C651	C65	0.498700	0.566800	0.044200
C661	C66	0.567600	0.584900	0.030800
C671	C67	0.595500	0.538400	0.029700
C681	C68	0.551700	0.466900	0.044900
C691	C69	0.313000	0.143600	0.253500
C701	C70	0.270600	0.080600	0.227600
C711	C71	0.354300	0.209400	0.233100
C721	C72	0.582000	0.029800	0.350200
C731	C73	0.608700	0.088600	0.322900
C741	C74	0.632700	0.007100	0.366400
C751	C75	0.816800	0.144400	0.317000
C761	C76	0.858000	0.105200	0.334200
C771	C77	0.870400	0.108400	0.374200
C781	C78	0.907300	0.074800	0.392200
C791	C79	0.937500	0.040800	0.368300
C801	C80	0.928300	0.041100	0.328700
C811	C81	0.891900	0.075900	0.309600
C821	C82	0.975800	0.002100	0.385800
C831	C83	0.976200	0.943000	0.368000
C841	C84	0.466800	0.000600	0.051100
C851	C85	0.458600	0.933700	0.064800
C861	C86	0.315800	0.148500	0.168300
C871	C87	0.354500	0.210900	0.190700
C881	C88	0.274200	0.081800	0.191100
C891	C89	0.592000	0.905000	0.002500
C901	C90	0.496000	0.902700	0.050400
C911	C91	0.545800	0.936500	0.017800
C921	C92	0.555100	0.003000	0.002800
C931	C93	0.514100	0.032600	0.020300
C941	C94	0.100000	0.904400	0.438700
C951	C95	0.017400	0.911000	0.383500
C961	C96	0.057600	0.937400	0.418600
C971	C97	0.058200	0.999900	0.438100
C981	C98	0.016100	0.029400	0.422200
C991	C99	0.953700	0.436600	0.384500
C1001	C100	0.920700	0.447700	0.418100
C1011	C101	0.949000	0.517300	0.434600
C1021	C102	0.010400	0.575800	0.417600
C1031	C103	0.043300	0.564700	0.384100
C1041	C104	0.015000	0.495100	0.367500
C1051	C105	0.616800	0.669600	0.017100
C1061	C106	0.048600	0.656500	0.433000
C1071	C107	0.209600	0.855900	0.513500
C1081	C108	0.208800	0.855600	0.559100
C1091	C109	0.149500	0.799600	0.580000
C1101	C110	0.145500	0.801000	0.619100
C1111	C111	0.201500	0.855500	0.642200
C1121	C112	0.257000	0.910200	0.622600
C1131	C113	0.261700	0.909900	0.580100
C1141	C114	0.715100	0.089000	0.908300
C1151	C115	0.639600	0.058300	0.892500
C1161	C116	0.612500	0.106200	0.886700
C1171	C117	0.531900	0.071900	0.874800
C1181	C118	0.494700	0.999800	0.864700
C1191	C119	0.526500	0.956700	0.869300
C1201	C120	0.598600	0.985500	0.883500
C1211	C121	0.700600	0.859200	0.924600
C1221	C122	0.694800	0.858300	0.882800
C1231	C123	0.755400	0.912800	0.858600
C1241	C124	0.753700	0.913500	0.818500
C1251	C125	0.689100	0.856800	0.798000
C1261	C126	0.632100	0.807200	0.820300
C1271	C127	0.637000	0.806500	0.863500
C1281	C128	0.219900	0.080600	0.535400
C1291	C129	0.144500	0.050400	0.551400
C1301	C130	0.108400	0.094600	0.557400
C1311	C131	0.039500	0.067900	0.571800
C1321	C132	0.996800	0.990400	0.578400
C1331	C133	0.031700	0.946700	0.575100
C1341	C134	0.105100	0.974900	0.561600
C1351	C135	0.920300	0.956900	0.590400
C1361	C136	0.875100	0.984300	0.574200
C1371	C137	0.798600	0.950200	0.585200
C1381	C138	0.768900	0.889700	0.610590
C1391	C139	0.813700	0.866400	0.628800
C1401	C140	0.888000	0.901300	0.618600
C1411	C141	0.195400	0.854500	0.686100
C1421	C142	0.164700	0.789700	0.709900
C1431	C143	0.155700	0.788600	0.747800
C1441	C144	0.185100	0.854300	0.771000
C1451	C145	0.220900	0.920700	0.749400
C1461	C146	0.223100	0.921100	0.707700
C1471	C147	0.146600	0.778300	0.833400
C1481	C148	0.076600	0.738100	0.831000
C1491	C149	0.037100	0.662500	0.845800
C1501	C150	0.078900	0.634900	0.864600
C1511	C151	0.152700	0.678700	0.869600
C1521	C152	0.188700	0.750500	0.854900
C1531	C153	0.265500	0.900600	0.830700
C1541	C154	0.315400	0.876700	0.813000
C1551	C155	0.293000	0.957100	0.854100
C1561	C156	0.686900	0.850600	0.622800
C1571	C157	0.647600	0.890800	0.605800
C1581	C158	0.632600	0.887800	0.563900
C1591	C159	0.597100	0.924100	0.547800
C1601	C160	0.575200	0.963500	0.569300
C1611	C161	0.587200	0.970200	0.612200
C1621	C162	0.625300	0.936200	0.628100
C1631	C163	0.646000	0.773000	0.604600
C1641	C164	0.677600	0.739000	0.587900
C1651	C165	0.637500	0.667000	0.573400
C1661	C166	0.560500	0.628100	0.576200
C1671	C167	0.525600	0.664000	0.594300
C1681	C168	0.566600	0.733600	0.610600
C1691	C169	0.515900	0.556100	0.559300
C1701	C170	0.547300	0.505400	0.559700
C1711	C171	0.501300	0.433200	0.544200
C1721	C172	0.432400	0.415100	0.530800
C1731	C173	0.404500	0.461600	0.529700
C1741	C174	0.448300	0.533100	0.544900
C1751	C175	0.687000	0.856400	0.753500
C1761	C176	0.729400	0.919400	0.727600
C1771	C177	0.645700	0.790600	0.733100
C1781	C178	0.418000	0.970200	0.850200
C1791	C179	0.391300	0.911400	0.822900
C1801	C180	0.367300	0.992900	0.866400
C1811	C181	0.183200	0.855600	0.817000
C1821	C182	0.142000	0.894800	0.834200
C1831	C183	0.129600	0.891600	0.874200
C1841	C184	0.092700	0.925200	0.892200
C1851	C185	0.062500	0.959200	0.868300
C1861	C186	0.071700	0.958900	0.828700
C1871	C187	0.108100	0.924100	0.809600
C1881	C188	0.024200	0.997900	0.885800
C1891	C189	0.023800	0.057000	0.868000
C1901	C190	0.533200	0.999400	0.551100
C1911	C191	0.541400	0.066300	0.564800
C1921	C192	0.684200	0.851500	0.668300
C1931	C193	0.645500	0.789100	0.690700
C1941	C194	0.725800	0.918200	0.691100
C1951	C195	0.408000	0.095000	0.502500
C1961	C196	0.504000	0.097300	0.550400
C1971	C197	0.454200	0.063500	0.517800
C1981	C198	0.444900	0.997000	0.502800
C1991	C199	0.485900	0.967400	0.520300
C2001	C200	0.900000	0.095600	0.938700
C2011	C201	0.982600	0.089000	0.883500
C2021	C202	0.942400	0.062600	0.918600
C2031	C203	0.941800	0.000100	0.938100
C2041	C204	0.983900	0.970600	0.922200
C2051	C205	0.046300	0.563400	0.884500
C2061	C206	0.079300	0.552300	0.918100
C2071	C207	0.051000	0.482700	0.934600
C2081	C208	0.989600	0.424200	0.917600
C2091	C209	0.956700	0.435300	0.884100
C2101	C210	0.985000	0.504900	0.867500
C2111	C211	0.383200	0.330400	0.517100
C2121	C212	0.951400	0.343500	0.933000
O11	O1	0.349100	0.198400	0.445470
O21	O2	0.248900	0.085500	0.443100
O31	O3	0.245400	0.841700	0.410800
O41	O4	0.260600	0.956100	0.416460
O51	O5	0.140600	0.936500	0.466060
O61	O6	0.092100	0.845300	0.420380
O71	O7	0.587200	0.848700	0.017880
O81	O8	0.636100	0.939700	0.975090
O91	O9	0.742300	0.087900	0.997570
O101	O10	0.837600	0.200800	0.996090
O111	O11	0.742900	0.849500	0.032010
O121	O12	0.757400	0.964300	0.025650
O131	O13	0.104700	0.705400	0.419060
O141	O14	0.591600	0.708800	0.022440
O151	O15	0.673100	0.681500	0.998530
O161	O16	0.013500	0.668100	0.464600
O171	O17	0.650900	0.801600	0.945470
O181	O18	0.751100	0.914500	0.943100
O191	O19	0.754600	0.158300	0.910800
O201	O20	0.739400	0.043900	0.916460
O211	O21	0.859400	0.063500	0.966060
O221	O22	0.907900	0.154700	0.920380
O231	O23	0.412800	0.151300	0.517880
O241	O24	0.363900	0.060300	0.475090
O251	O25	0.257700	0.912100	0.497570
O261	O26	0.162400	0.799200	0.496090
O271	O27	0.257100	0.150500	0.532010
O281	O28	0.242600	0.035700	0.525650
O291	O29	0.895300	0.294600	0.919060
O301	O30	0.408400	0.291200	0.522440
O311	O31	0.326900	0.318500	0.498530
O321	O32	0.986500	0.331900	0.964600
