data_VEXTUO_manual_PM
_symmetry_space_group_name_H-M	'P1'
_cell_length_a	18.852300
_cell_length_b	18.852300
_cell_length_c	18.852300
_cell_angle_alpha	60.517700
_cell_angle_beta	60.517700
_cell_angle_gamma	60.517700
_symmetry_Int_Tables_number 1

loop_
_symmetry_equiv_pos_as_xyz
'x,y,z'

loop_
_atom_site_label
_atom_site_type_symbol
_atom_site_fract_x
_atom_site_fract_y
_atom_site_fract_z
Ni11	Ni1	0.351290	0.251260	0.148320
Ni21	Ni2	0.148550	0.351220	0.251100
Ni31	Ni3	0.251330	0.148480	0.351070
Ni41	Ni4	0.648550	0.751260	0.851070
Ni51	Ni5	0.851290	0.648480	0.751110
Ni61	Ni6	0.751330	0.851220	0.648320
H71	H7	0.744340	0.295760	0.893610
H81	H8	0.801030	0.408610	0.854700
H91	H9	0.548950	0.597800	0.859520
H101	H10	0.491750	0.485530	0.905000
H111	H11	0.480590	0.348260	0.046290
H121	H12	0.893830	0.744280	0.295600
H131	H13	0.854920	0.800970	0.408460
H141	H14	0.859750	0.548880	0.597640
H151	H15	0.905230	0.491690	0.485370
H161	H16	0.046520	0.480530	0.348100
H171	H17	0.295830	0.893770	0.744120
H181	H18	0.408680	0.854850	0.800810
H191	H19	0.597870	0.859680	0.548730
H201	H20	0.485590	0.905160	0.491530
H211	H21	0.348330	0.046450	0.480370
H221	H22	0.208590	0.752750	0.604560
H231	H23	0.095230	0.696220	0.644380
H241	H24	0.907010	0.949080	0.637520
H251	H25	0.019560	0.005930	0.591550
H261	H26	0.154900	0.018110	0.451620
H271	H27	0.752820	0.604720	0.208370
H281	H28	0.696290	0.644530	0.095000
H291	H29	0.949150	0.637680	0.906780
H301	H30	0.006000	0.591710	0.019330
H311	H31	0.018180	0.451780	0.154670
H321	H32	0.604790	0.208530	0.752600
H331	H33	0.644600	0.095160	0.696060
H341	H34	0.637740	0.906940	0.948920
H351	H35	0.591780	0.019490	0.005770
H361	H36	0.451840	0.154830	0.017950
H371	H37	0.252820	0.708530	0.104560
H381	H38	0.196290	0.595160	0.144370
H391	H39	0.449150	0.406940	0.137520
H401	H40	0.506000	0.519490	0.091550
H411	H41	0.518180	0.654830	0.951620
H421	H42	0.104780	0.252750	0.708370
H431	H43	0.144600	0.196220	0.595000
H441	H44	0.137740	0.449080	0.406780
H451	H45	0.091780	0.505930	0.519330
H461	H46	0.951840	0.518110	0.654670
H471	H47	0.708590	0.104720	0.252600
H481	H48	0.595230	0.144530	0.196060
H491	H49	0.407010	0.137680	0.448920
H501	H50	0.519560	0.091710	0.505770
H511	H51	0.654900	0.951780	0.517960
H521	H52	0.795830	0.244280	0.393610
H531	H53	0.908680	0.300970	0.354700
H541	H54	0.097870	0.048880	0.359520
H551	H55	0.985590	0.991690	0.405000
H561	H56	0.848330	0.980530	0.546290
H571	H57	0.244340	0.393770	0.795600
H581	H58	0.301030	0.354850	0.908460
H591	H59	0.048950	0.359680	0.097640
H601	H60	0.991750	0.405160	0.985370
H611	H61	0.980590	0.546450	0.848100
H621	H62	0.393830	0.795760	0.244120
H631	H63	0.354920	0.908610	0.300810
H641	H64	0.359750	0.097800	0.048730
H651	H65	0.405220	0.985530	0.991530
H661	H66	0.546510	0.848260	0.980370
H671	H67	0.660340	0.252730	0.836190
H681	H68	0.836410	0.660270	0.252580
H691	H69	0.252800	0.836340	0.660110
H701	H70	0.336410	0.752730	0.160110
H711	H71	0.160340	0.336340	0.752570
H721	H72	0.752800	0.160270	0.336190
C731	C73	0.700850	0.361480	0.887100
C741	C74	0.733470	0.426580	0.864920
C751	C75	0.592290	0.531990	0.870240
C761	C76	0.559510	0.467200	0.894380
C771	C77	0.612520	0.380290	0.904070
C781	C78	0.679180	0.513250	0.858040
C791	C79	0.572640	0.311280	0.936610
C801	C80	0.499390	0.306640	0.012610
C811	C81	0.710470	0.584700	0.837850
C821	C82	0.887330	0.700790	0.361320
C831	C83	0.865150	0.733400	0.426420
C841	C84	0.870460	0.592230	0.531830
C851	C85	0.894610	0.559450	0.467040
C861	C86	0.904290	0.612450	0.380130
C871	C87	0.858260	0.679120	0.513090
C881	C88	0.936840	0.572570	0.311120
C891	C89	0.012830	0.499330	0.306490
C901	C90	0.838080	0.710410	0.584550
C911	C91	0.361540	0.887260	0.700630
C921	C92	0.426650	0.865080	0.733240
C931	C93	0.532060	0.870400	0.592070
C941	C94	0.467260	0.894540	0.559290
C951	C95	0.380360	0.904230	0.612290
C961	C96	0.513320	0.858200	0.678960
C971	C97	0.311350	0.936770	0.572410
C981	C98	0.306710	0.012770	0.499170
C991	C99	0.584770	0.838010	0.710250
C1001	C100	0.142950	0.796400	0.610850
C1011	C101	0.077610	0.763880	0.633530
C1021	C102	0.972710	0.905480	0.627140
C1031	C103	0.037660	0.938100	0.602630
C1041	C104	0.124420	0.884850	0.593140
C1051	C105	0.991100	0.818470	0.640120
C1061	C106	0.193480	0.924650	0.560290
C1071	C107	0.197290	0.998500	0.484780
C1081	C108	0.919170	0.787720	0.660840
C1091	C109	0.796470	0.611000	0.142730
C1101	C110	0.763950	0.633690	0.077380
C1111	C111	0.905540	0.627300	0.972480
C1121	C112	0.938160	0.602790	0.037430
C1131	C113	0.884920	0.593300	0.124200
C1141	C114	0.818530	0.640280	0.990880
C1151	C115	0.924710	0.560450	0.193250
C1161	C116	0.998570	0.484940	0.197070
C1171	C117	0.787790	0.661000	0.918940
C1181	C118	0.611070	0.142890	0.796240
C1191	C119	0.633760	0.077540	0.763720
C1201	C120	0.627360	0.972640	0.905320
C1211	C121	0.602850	0.037590	0.937940
C1221	C122	0.593370	0.124360	0.884690
C1231	C123	0.640340	0.991040	0.818310
C1241	C124	0.560520	0.193410	0.924490
C1251	C125	0.485000	0.197220	0.998340
C1261	C126	0.661070	0.919100	0.787570
C1271	C127	0.296470	0.642890	0.110850
C1281	C128	0.263950	0.577540	0.133530
C1291	C129	0.405550	0.472640	0.127140
C1301	C130	0.438160	0.537590	0.102630
C1311	C131	0.384920	0.624360	0.093140
C1321	C132	0.318530	0.491040	0.140120
C1331	C133	0.424710	0.693410	0.060290
C1341	C134	0.498560	0.697220	0.984780
C1351	C135	0.287790	0.419100	0.160840
C1361	C136	0.111070	0.296400	0.642730
C1371	C137	0.133760	0.263880	0.577380
C1381	C138	0.127360	0.405480	0.472480
C1391	C139	0.102850	0.438100	0.537430
C1401	C140	0.093370	0.384850	0.624200
C1411	C141	0.140340	0.318470	0.490880
C1421	C142	0.060510	0.424650	0.693250
C1431	C143	0.985000	0.498500	0.697070
C1441	C144	0.161070	0.287720	0.418940
C1451	C145	0.642950	0.111000	0.296240
C1461	C146	0.577610	0.133690	0.263720
C1471	C147	0.472710	0.127300	0.405320
C1481	C148	0.537660	0.102790	0.437940
C1491	C149	0.624420	0.093300	0.384690
C1501	C150	0.491100	0.140280	0.318310
C1511	C151	0.693480	0.060450	0.424490
C1521	C152	0.697290	0.984940	0.498340
C1531	C153	0.419170	0.161000	0.287570
C1541	C154	0.861540	0.200790	0.387100
C1551	C155	0.926650	0.233400	0.364920
C1561	C156	0.032060	0.092230	0.370240
C1571	C157	0.967260	0.059450	0.394380
C1581	C158	0.880360	0.112450	0.404070
C1591	C159	0.013320	0.179120	0.358040
C1601	C160	0.811350	0.072570	0.436610
C1611	C161	0.806710	0.999330	0.512610
C1621	C162	0.084770	0.210410	0.337850
C1631	C163	0.200850	0.387260	0.861320
C1641	C164	0.233470	0.365080	0.926420
C1651	C165	0.092290	0.370400	0.031830
C1661	C166	0.059510	0.394540	0.967040
C1671	C167	0.112520	0.404230	0.880130
C1681	C168	0.179180	0.358200	0.013090
C1691	C169	0.072640	0.436770	0.811120
C1701	C170	0.999390	0.512770	0.806490
C1711	C171	0.210470	0.338010	0.084550
C1721	C172	0.387330	0.861480	0.200630
C1731	C173	0.365150	0.926580	0.233240
C1741	C174	0.370460	0.031990	0.092070
C1751	C175	0.394610	0.967200	0.059290
C1761	C176	0.404290	0.880290	0.112290
C1771	C177	0.358260	0.013250	0.178960
C1781	C178	0.436840	0.811280	0.072410
C1791	C179	0.512830	0.806640	0.999170
C1801	C180	0.338080	0.084700	0.210250
C1811	C181	0.603500	0.252550	0.893310
C1821	C182	0.893540	0.603440	0.252390
C1831	C183	0.252610	0.893470	0.603280
C1841	C184	0.393540	0.752550	0.103280
C1851	C185	0.103500	0.393470	0.752390
C1861	C186	0.752610	0.103440	0.393310
N1871	N187	0.454270	0.251830	0.043540
N1881	N188	0.043760	0.454210	0.251670
N1891	N189	0.251890	0.043690	0.454050
N1901	N190	0.543760	0.751830	0.954050
N1911	N191	0.954270	0.543690	0.751670
N1921	N192	0.751890	0.954210	0.543540
O1931	O193	0.789570	0.579160	0.797240
O1941	O194	0.654980	0.649480	0.862020
O1951	O195	0.797460	0.789500	0.579000
O1961	O196	0.862240	0.654920	0.649320
O1971	O197	0.579230	0.797390	0.789340
O1981	O198	0.649540	0.862170	0.654760
O1991	O199	0.923390	0.708570	0.703650
O2001	O200	0.854440	0.844290	0.636090
O2011	O201	0.708630	0.703810	0.923160
O2021	O202	0.844360	0.636250	0.854220
O2031	O203	0.703880	0.923320	0.708410
O2041	O204	0.636320	0.854380	0.844130
O2051	O205	0.208640	0.423320	0.203650
O2061	O206	0.344360	0.354380	0.136090
O2071	O207	0.203880	0.208570	0.423160
O2081	O208	0.136320	0.344290	0.354220
O2091	O209	0.423390	0.203810	0.208410
O2101	O210	0.354440	0.136250	0.344130
O2111	O211	0.079230	0.289500	0.297230
O2121	O212	0.149540	0.154920	0.362020
O2131	O213	0.289570	0.297390	0.079000
O2141	O214	0.154980	0.362170	0.149320
O2151	O215	0.297460	0.079160	0.289340
O2161	O216	0.362240	0.149480	0.154760
O2171	O217	0.251690	0.251620	0.251460
O2181	O218	0.751680	0.751620	0.751460
H2191	H219	0.773020	0.772960	0.772800
H2201	H220	0.273020	0.272960	0.272800
