data_VICLAW_freeONLY_PM
_symmetry_space_group_name_H-M	'P1'
_cell_length_a	11.855000
_cell_length_b	23.235000
_cell_length_c	36.749000
_cell_angle_alpha	95.260000
_cell_angle_beta	90.000000
_cell_angle_gamma	90.000000
_symmetry_Int_Tables_number 1

loop_
_symmetry_equiv_pos_as_xyz
'x,y,z'

loop_
_atom_site_label
_atom_site_type_symbol
_atom_site_fract_x
_atom_site_fract_y
_atom_site_fract_z
Cd11	Cd1	0.338700	0.758430	0.253190
Cd21	Cd2	0.016210	0.865170	0.283350
Cd31	Cd3	0.368170	0.595840	0.225480
Cd41	Cd4	0.781620	0.943430	0.229770
Cd51	Cd5	0.838700	0.241570	0.746810
Cd61	Cd6	0.516210	0.134830	0.716650
Cd71	Cd7	0.868170	0.404160	0.774520
Cd81	Cd8	0.281620	0.056570	0.770230
Ni11	Ni1	0.502200	0.584100	0.486330
Ni21	Ni2	0.958810	0.913950	0.481990
Ni31	Ni3	0.291720	0.578150	0.024460
Ni41	Ni4	0.813450	0.919970	0.025150
Ni51	Ni5	0.002200	0.415900	0.513670
Ni61	Ni6	0.458810	0.086050	0.518010
Ni71	Ni7	0.791720	0.421850	0.975540
Ni81	Ni8	0.313450	0.080030	0.974850
H11	H1	0.313300	0.611200	0.122800
H21	H2	0.483500	0.469100	0.051500
H31	H3	0.199200	0.680700	0.150500
H41	H4	0.535400	0.461500	0.928600
H51	H5	0.391600	0.566600	0.862300
H61	H6	0.399900	0.526400	0.106400
H71	H7	0.488100	0.652200	0.283600
H81	H8	0.562900	0.605500	0.268300
H91	H9	0.304500	0.858500	0.216800
H101	H10	0.218600	0.817100	0.201900
H111	H11	0.808400	0.815200	0.360800
H121	H12	0.706300	0.481100	0.448000
H131	H13	0.735600	0.493000	0.509400
H141	H14	0.618100	0.862600	0.249400
H151	H15	0.725200	0.843100	0.264400
H161	H16	0.788700	0.926700	0.122700
H171	H17	0.914400	0.992100	0.109800
H181	H18	0.058100	0.950900	0.395000
H191	H19	0.144400	0.017600	0.446400
H201	H20	0.146200	0.034700	0.506600
H211	H21	0.012400	0.028300	0.053400
H221	H22	0.603200	0.529600	0.397900
H231	H23	0.141800	0.748800	0.444000
H241	H24	0.584700	0.751600	0.428100
H251	H25	0.477900	0.754100	0.082800
H261	H26	0.352500	0.669400	0.372200
H271	H27	0.125500	0.771200	0.385200
H281	H28	0.098100	0.757900	0.181200
H291	H29	0.482700	0.463200	0.989100
H301	H30	0.758800	0.478000	0.570100
H311	H31	0.553100	0.737700	0.361500
H321	H32	0.031200	0.011500	0.994300
H331	H33	0.613100	0.462900	0.868100
H341	H34	0.472400	0.697500	0.127300
H351	H35	0.844900	0.742500	0.047600
H361	H36	0.864600	0.763400	0.008800
H371	H37	0.927200	0.794100	0.042800
H381	H38	0.651700	0.824500	0.325700
H391	H39	0.108000	0.584700	0.899400
H401	H40	0.086400	0.650400	0.910900
H411	H41	0.129900	0.610000	0.939800
H421	H42	0.945800	0.818000	0.144800
H431	H43	0.567900	0.782000	0.173800
H441	H44	0.689100	0.850300	0.147600
H451	H45	0.899400	0.643800	0.020900
H461	H46	0.013000	0.634900	0.999300
H471	H47	0.915300	0.670900	0.983700
H481	H48	0.804800	0.462100	0.629800
H491	H49	0.245900	0.716500	0.924100
H501	H50	0.369700	0.692900	0.921100
H511	H51	0.292000	0.677300	0.953300
H521	H52	0.891600	0.503700	0.438300
H531	H53	0.897400	0.899900	0.861400
H541	H54	0.081700	0.951100	0.641900
H551	H55	0.281900	0.733200	0.332000
H561	H56	0.904700	0.778900	0.919400
H571	H57	0.783300	0.752400	0.920300
H581	H58	0.822800	0.798400	0.951600
H591	H59	0.971300	0.761100	0.093200
H601	H60	0.688700	0.488800	0.755600
H611	H61	0.688800	0.516200	0.686700
H621	H62	0.268200	0.064600	0.626400
H631	H63	0.204100	0.046100	0.567300
H641	H64	0.226800	0.448600	0.013300
H651	H65	0.995700	0.942500	0.816900
H661	H66	0.290400	0.768800	0.523700
H671	H67	0.332600	0.708700	0.534400
H681	H68	0.230400	0.739300	0.555100
H691	H69	0.378200	0.429800	0.109900
H701	H70	0.859100	0.805100	0.857100
H711	H71	0.752600	0.842800	0.850600
H721	H72	0.738000	0.779300	0.861000
H731	H73	0.098000	0.624400	0.502400
H741	H74	0.114800	0.652800	0.542500
H751	H75	0.215700	0.621000	0.521600
H761	H76	0.775400	0.716100	0.500100
H771	H77	0.730100	0.744300	0.537700
H781	H78	0.822100	0.776200	0.516300
H791	H79	0.319100	0.585400	0.609800
H801	H80	0.337300	0.613800	0.573100
H811	H81	0.289200	0.650700	0.607500
H821	H82	0.088200	0.020400	0.869800
H831	H83	0.214700	0.001300	0.680600
H841	H84	0.617400	0.728000	0.999700
H851	H85	0.653200	0.788000	0.987100
H861	H86	0.553900	0.753200	0.967300
H871	H87	0.509900	0.691000	0.571000
H881	H88	0.576000	0.705200	0.607600
H891	H89	0.450900	0.726000	0.604200
H901	H90	0.093300	0.382100	0.028200
H911	H91	0.758600	0.868800	0.605800
H921	H92	0.796400	0.903100	0.573000
H931	H93	0.788500	0.934700	0.612500
H941	H94	0.583300	0.706600	0.478300
H951	H95	0.504600	0.760700	0.477400
H961	H96	0.535300	0.737300	0.514800
H971	H97	0.601100	0.832800	0.538400
H981	H98	0.569200	0.856600	0.501200
H991	H99	0.691500	0.865400	0.516900
H1001	H100	0.541800	0.446100	0.364900
H1011	H101	0.504800	0.528600	0.819800
H1021	H102	0.408300	0.865400	0.020000
H1031	H103	0.426200	0.837300	0.980000
H1041	H104	0.523600	0.873100	0.000200
H1051	H105	0.886900	0.044300	0.480900
H1061	H106	0.593900	0.571900	0.648400
H1071	H107	0.048900	0.051200	0.386800
H1081	H108	0.146400	0.716600	0.993700
H1091	H109	0.111300	0.778600	0.010300
H1101	H110	0.046300	0.748800	0.976500
H1111	H111	0.512800	0.618500	0.043600
H1121	H112	0.580400	0.530800	0.129600
H1131	H113	0.093400	0.775500	0.495400
H1141	H114	0.047800	0.744700	0.528600
H1151	H115	0.021400	0.719000	0.488600
H1161	H116	0.239400	0.944900	0.371700
H1171	H117	0.006800	0.658000	0.414600
H1181	H118	0.181200	0.873800	0.465100
H1191	H119	0.041200	0.819700	0.590400
H1201	H120	0.955100	0.831200	0.559500
H1211	H121	0.916500	0.797800	0.592500
H1221	H122	0.452700	0.468600	0.469700
H1231	H123	0.927700	0.120500	0.370000
H1241	H124	0.419400	0.906700	0.371200
H1251	H125	0.099200	0.340100	0.082200
H1261	H126	0.681700	0.635400	0.438200
H1271	H127	0.426900	0.616400	0.664000
H1281	H128	0.406100	0.682100	0.659600
H1291	H129	0.529500	0.658800	0.662600
H1301	H130	0.755900	0.574100	0.133800
H1311	H131	0.226400	0.610900	0.851200
H1321	H132	0.329800	0.652200	0.859200
H1331	H133	0.206700	0.676600	0.863300
H1341	H134	0.826100	0.693800	0.425600
H1351	H135	0.059900	0.014100	0.932500
H1361	H136	0.817200	0.633200	0.090500
H1371	H137	0.658200	0.863900	0.939300
H1381	H138	0.617100	0.815300	0.909900
H1391	H139	0.635400	0.878400	0.899200
H1401	H140	0.362100	0.836700	0.464000
H1411	H141	0.783100	0.048300	0.031000
H1421	H142	0.690400	0.656800	0.046900
H1431	H143	0.673500	0.131700	0.035000
H1441	H144	0.489300	0.858600	0.418500
H1451	H145	0.824500	0.067500	0.139300
H1461	H146	0.024300	0.864400	0.648600
H1471	H147	0.898600	0.844200	0.650900
H1481	H148	0.929000	0.909700	0.659100
H1491	H149	0.241300	0.364200	0.123800
H1501	H150	0.039100	0.565500	0.432300
H1511	H151	0.016200	0.876300	0.053600
H1521	H152	0.436500	0.361000	0.358000
H1531	H153	0.964900	0.867700	0.384600
H1541	H154	0.467600	0.593700	0.388300
H1551	H155	0.760000	0.112000	0.463600
H1561	H156	0.773000	0.147200	0.406800
H1571	H157	0.358300	0.379800	0.464800
H1581	H158	0.350300	0.330500	0.408400
H1591	H159	0.660000	0.188100	0.090200
H1601	H160	0.723500	0.153800	0.144300
H1611	H161	0.320300	0.860600	0.100600
H1621	H162	0.156300	0.824200	0.072500
H1631	H163	0.306200	0.962300	0.110900
H1641	H164	0.466600	0.482500	0.208400
H1651	H165	0.561100	0.522900	0.205500
H1661	H166	0.351100	0.773800	0.037400
H1671	H167	0.428600	0.719300	0.029900
H1681	H168	0.370900	0.746800	0.997300
H1691	H169	0.199400	0.011300	0.072600
H1701	H170	0.813300	0.388800	0.877200
H1711	H171	0.983500	0.530900	0.948500
H1721	H172	0.699200	0.319300	0.849500
H1731	H173	0.035400	0.538500	0.071400
H1741	H174	0.891600	0.433400	0.137700
H1751	H175	0.899900	0.473600	0.893600
H1761	H176	0.988100	0.347800	0.716400
H1771	H177	0.062900	0.394500	0.731700
H1781	H178	0.804500	0.141500	0.783200
H1791	H179	0.718600	0.182900	0.798100
H1801	H180	0.308400	0.184800	0.639200
H1811	H181	0.206300	0.518900	0.552000
H1821	H182	0.235600	0.507000	0.490600
H1831	H183	0.118100	0.137400	0.750600
H1841	H184	0.225200	0.156900	0.735600
H1851	H185	0.288700	0.073300	0.877300
H1861	H186	0.414400	0.007900	0.890200
H1871	H187	0.558100	0.049100	0.605000
H1881	H188	0.644400	0.982400	0.553600
H1891	H189	0.646200	0.965300	0.493400
H1901	H190	0.512400	0.971700	0.946600
H1911	H191	0.103200	0.470400	0.602100
H1921	H192	0.641800	0.251200	0.556000
H1931	H193	0.084700	0.248400	0.571900
H1941	H194	0.977900	0.245900	0.917200
H1951	H195	0.852500	0.330600	0.627800
H1961	H196	0.625500	0.228800	0.614800
H1971	H197	0.598100	0.242100	0.818800
H1981	H198	0.982700	0.536800	0.010900
H1991	H199	0.258800	0.522000	0.429900
H2001	H200	0.053100	0.262300	0.638500
H2011	H201	0.531200	0.988500	0.005700
H2021	H202	0.113100	0.537100	0.131900
H2031	H203	0.972400	0.302500	0.872700
H2041	H204	0.344900	0.257500	0.952400
H2051	H205	0.364600	0.236600	0.991200
H2061	H206	0.427200	0.205900	0.957200
H2071	H207	0.151700	0.175500	0.674300
H2081	H208	0.608000	0.415300	0.100600
H2091	H209	0.586400	0.349600	0.089100
H2101	H210	0.629900	0.390000	0.060200
H2111	H211	0.445800	0.182000	0.855200
H2121	H212	0.067900	0.218000	0.826200
H2131	H213	0.189100	0.149700	0.852400
H2141	H214	0.399400	0.356200	0.979100
H2151	H215	0.513000	0.365100	0.000700
H2161	H216	0.415300	0.329100	0.016300
H2171	H217	0.304800	0.537900	0.370200
H2181	H218	0.745900	0.283500	0.075900
H2191	H219	0.869700	0.307100	0.078900
H2201	H220	0.792000	0.322700	0.046700
H2211	H221	0.391600	0.496300	0.561700
H2221	H222	0.397400	0.100100	0.138600
H2231	H223	0.581700	0.048900	0.358100
H2241	H224	0.781900	0.266800	0.668000
H2251	H225	0.404700	0.221100	0.080600
H2261	H226	0.283300	0.247600	0.079700
H2271	H227	0.322800	0.201600	0.048400
H2281	H228	0.471300	0.238900	0.906800
H2291	H229	0.188700	0.511200	0.244400
H2301	H230	0.188800	0.483800	0.313300
H2311	H231	0.768200	0.935400	0.373600
H2321	H232	0.704100	0.953900	0.432700
H2331	H233	0.726800	0.551400	0.986700
H2341	H234	0.495700	0.057500	0.183100
H2351	H235	0.790400	0.231200	0.476300
H2361	H236	0.832600	0.291300	0.465600
H2371	H237	0.730400	0.260700	0.444900
H2381	H238	0.878200	0.570200	0.890100
H2391	H239	0.359100	0.194900	0.142900
H2401	H240	0.252600	0.157200	0.149400
H2411	H241	0.238000	0.220700	0.139000
H2421	H242	0.598000	0.375600	0.497600
H2431	H243	0.614800	0.347200	0.457500
H2441	H244	0.715700	0.379000	0.478400
H2451	H245	0.275400	0.283900	0.499900
H2461	H246	0.230100	0.255700	0.462300
H2471	H247	0.322100	0.223800	0.483700
H2481	H248	0.819100	0.414600	0.390200
H2491	H249	0.837300	0.386200	0.426900
H2501	H250	0.789200	0.349300	0.392500
H2511	H251	0.588200	0.979600	0.130200
H2521	H252	0.714700	0.998700	0.319400
H2531	H253	0.117400	0.272000	0.000300
H2541	H254	0.153200	0.212000	0.012900
H2551	H255	0.053900	0.246800	0.032700
H2561	H256	0.009900	0.309000	0.429000
H2571	H257	0.076000	0.294800	0.392400
H2581	H258	0.950900	0.274000	0.395800
H2591	H259	0.593300	0.617900	0.971800
H2601	H260	0.258600	0.131200	0.394200
H2611	H261	0.296400	0.096900	0.427000
H2621	H262	0.288500	0.065300	0.387500
H2631	H263	0.083300	0.293400	0.521700
H2641	H264	0.004600	0.239300	0.522600
H2651	H265	0.035300	0.262700	0.485200
H2661	H266	0.101100	0.167200	0.461600
H2671	H267	0.069200	0.143400	0.498800
H2681	H268	0.191500	0.134600	0.483100
H2691	H269	0.041800	0.553900	0.635100
H2701	H270	0.004800	0.471400	0.180200
H2711	H271	0.908300	0.134600	0.980000
H2721	H272	0.926200	0.162700	0.020000
H2731	H273	0.023600	0.126900	0.999800
H2741	H274	0.386900	0.955700	0.519100
H2751	H275	0.093900	0.428100	0.351600
H2761	H276	0.548900	0.948800	0.613200
H2771	H277	0.646400	0.283400	0.006300
H2781	H278	0.611300	0.221400	0.989700
H2791	H279	0.546300	0.251200	0.023500
H2801	H280	0.012800	0.381500	0.956400
H2811	H281	0.080400	0.469200	0.870400
H2821	H282	0.593400	0.224500	0.504600
H2831	H283	0.547800	0.255300	0.471400
H2841	H284	0.521400	0.281000	0.511400
H2851	H285	0.739400	0.055100	0.628300
H2861	H286	0.506800	0.342000	0.585400
H2871	H287	0.681200	0.126200	0.534900
H2881	H288	0.541200	0.180300	0.409600
H2891	H289	0.455100	0.168800	0.440500
H2901	H290	0.416500	0.202200	0.407500
H2911	H291	0.952700	0.531400	0.530300
H2921	H292	0.427700	0.879500	0.630000
H2931	H293	0.919400	0.093300	0.628800
H2941	H294	0.599200	0.659900	0.917800
H2951	H295	0.181700	0.364600	0.561800
H2961	H296	0.926900	0.383600	0.336000
H2971	H297	0.906100	0.317900	0.340400
H2981	H298	0.029500	0.341200	0.337400
H2991	H299	0.255900	0.425900	0.866200
H3001	H300	0.726400	0.389100	0.148800
H3011	H301	0.829800	0.347800	0.140800
H3021	H302	0.706700	0.323400	0.136700
H3031	H303	0.326100	0.306200	0.574400
H3041	H304	0.559900	0.985900	0.067500
H3051	H305	0.317200	0.366800	0.909500
H3061	H306	0.158200	0.136100	0.060700
H3071	H307	0.117100	0.184700	0.090100
H3081	H308	0.135400	0.121600	0.100800
H3091	H309	0.862100	0.163300	0.536000
H3101	H310	0.283100	0.951700	0.969000
H3111	H311	0.190400	0.343200	0.953100
H3121	H312	0.173500	0.868300	0.965000
H3131	H313	0.989300	0.141400	0.581500
H3141	H314	0.324500	0.932500	0.860700
H3151	H315	0.524300	0.135600	0.351400
H3161	H316	0.398600	0.155800	0.349100
H3171	H317	0.429000	0.090300	0.340900
H3181	H318	0.741300	0.635800	0.876200
H3191	H319	0.539100	0.434500	0.567700
H3201	H320	0.516200	0.123700	0.946400
H3211	H321	0.936500	0.639000	0.642000
H3221	H322	0.464900	0.132300	0.615400
H3231	H323	0.967600	0.406300	0.611700
H3241	H324	0.260000	0.888000	0.536400
H3251	H325	0.273000	0.852800	0.593200
H3261	H326	0.858300	0.620200	0.535200
H3271	H327	0.850300	0.669500	0.591600
H3281	H328	0.160000	0.811900	0.909800
H3291	H329	0.223500	0.846200	0.855700
H3301	H330	0.820300	0.139400	0.899400
H3311	H331	0.656300	0.175800	0.927500
H3321	H332	0.806200	0.037700	0.889100
H3331	H333	0.966600	0.517500	0.791600
H3341	H334	0.061100	0.477100	0.794500
H3351	H335	0.851100	0.226200	0.962600
H3361	H336	0.928600	0.280700	0.970100
H3371	H337	0.870900	0.253200	0.002700
H3381	H338	0.699400	0.988700	0.927400
C11	C1	0.147100	0.661600	0.061700
C21	C2	0.080800	0.729000	0.128100
C31	C3	0.282800	0.613100	0.099600
C41	C4	0.410800	0.489300	0.052800
C51	C5	0.164100	0.686700	0.128600
C61	C6	0.058800	0.704600	0.060500
C71	C7	0.420400	0.515500	0.954300
C81	C8	0.339700	0.560500	0.948800
C91	C9	0.486400	0.491500	0.924600
C101	C10	0.998500	0.714800	0.025500
C111	C11	0.399700	0.554500	0.885600
C121	C12	0.333100	0.580200	0.912100
C131	C13	0.416500	0.540900	0.082800
C141	C14	0.196700	0.652400	0.096300
C151	C15	0.842300	0.835300	0.415800
C161	C16	0.803300	0.829100	0.451400
C171	C17	0.707100	0.793800	0.456400
C181	C18	0.781300	0.811500	0.384200
C191	C19	0.680600	0.782600	0.389600
C201	C20	0.675800	0.520400	0.448700
C211	C21	0.675800	0.518600	0.513800
C221	C22	0.161400	0.792900	0.319400
C231	C23	0.542600	0.590600	0.598800
C241	C24	0.562300	0.574700	0.561600
C251	C25	0.645300	0.533300	0.550700
C261	C26	0.869200	0.914200	0.950400
C271	C27	0.770900	0.914700	0.098600
C281	C28	0.883800	0.994900	0.085200
C291	C29	0.077300	0.941700	0.419800
C301	C30	0.011000	0.944900	0.556500
C311	C31	0.070900	0.998300	0.446200
C321	C32	0.098700	0.004200	0.510800
C331	C33	0.652700	0.851200	0.057800
C341	C34	0.983500	0.989400	0.056200
C351	C35	0.084000	0.991100	0.547400
C361	C36	0.369400	0.644500	0.423300
C371	C37	0.768500	0.562500	0.440900
C381	C38	0.574800	0.521800	0.422100
C391	C39	0.199400	0.722000	0.439100
C401	C40	0.564900	0.810100	0.054600
C411	C41	0.649400	0.773300	0.425100
C421	C42	0.240200	0.714600	0.403000
C431	C43	0.533200	0.782600	0.085300
C441	C44	0.332800	0.654300	0.459600
C451	C45	0.324200	0.675600	0.395900
C461	C46	0.188100	0.749700	0.377000
C471	C47	0.058400	0.766200	0.160500
C481	C48	0.435600	0.495000	0.988000
C491	C49	0.705300	0.506000	0.577500
C501	C50	0.315300	0.446000	0.060600
C511	C51	0.603300	0.768000	0.359400
C521	C52	0.976800	0.982600	0.991900
C531	C53	0.505500	0.793500	0.017800
C541	C54	0.559100	0.489500	0.862100
C551	C55	0.782100	0.835300	0.904300
C561	C56	0.491600	0.716100	0.149900
C571	C57	0.153800	0.006500	0.609500
C581	C58	0.460300	0.637200	0.611200
C591	C59	0.511800	0.464600	0.418500
C601	C60	0.855300	0.890000	0.913000
C611	C61	0.899400	0.757800	0.031800
C621	C62	0.599600	0.795400	0.328600
C631	C63	0.133600	0.617900	0.914600
C641	C64	0.989100	0.810600	0.164900
C651	C65	0.547800	0.765300	0.150700
C661	C66	0.075000	0.954900	0.067000
C671	C67	0.931500	0.883200	0.605600
C681	C68	0.010100	0.931900	0.594000
C691	C69	0.660000	0.839300	0.124500
C701	C70	0.952400	0.661400	0.005600
C711	C71	0.252800	0.631200	0.904900
C721	C72	0.751800	0.488300	0.640000
C731	C73	0.458700	0.690100	0.182200
C741	C74	0.293800	0.684300	0.928000
C751	C75	0.877100	0.542800	0.436900
C761	C76	0.910600	0.914900	0.885400
C771	C77	0.582400	0.796500	0.119900
C781	C78	0.081000	0.961300	0.618000
C791	C79	0.220900	0.754600	0.341700
C801	C80	0.516800	0.781200	0.299500
C811	C81	0.827500	0.786700	0.925900
C821	C82	0.030000	0.734600	0.093600
C831	C83	0.343300	0.058100	0.689400
C841	C84	0.744400	0.492700	0.675300
C851	C85	0.229100	0.034500	0.635700
C861	C86	0.125800	0.999200	0.802800
C871	C87	0.154100	0.018200	0.574200
C881	C88	0.821000	0.462000	0.697700
C891	C89	0.230400	0.432000	0.035400
C901	C90	0.652500	0.483700	0.804000
C911	C91	0.045000	0.971100	0.826600
C921	C92	0.267500	0.732600	0.531900
C931	C93	0.320000	0.420300	0.093400
C941	C94	0.783000	0.813700	0.864700
C951	C95	0.150200	0.644600	0.519100
C961	C96	0.756500	0.751900	0.513900
C971	C97	0.814100	0.048700	0.085100
C981	C98	0.340300	0.620200	0.599300
C991	C99	0.045000	0.987900	0.862500
C1001	C100	0.256100	0.028100	0.668800
C1011	C101	0.590600	0.762700	0.990400
C1021	C102	0.503500	0.695600	0.597100
C1031	C103	0.151200	0.392200	0.044700
C1041	C104	0.806900	0.899000	0.598600
C1051	C105	0.562700	0.743200	0.490900
C1061	C106	0.628200	0.839600	0.514600
C1071	C107	0.185800	0.702000	0.503900
C1081	C108	0.504600	0.433200	0.384900
C1091	C109	0.560700	0.504900	0.828000
C1101	C110	0.462000	0.847100	0.003200
C1111	C111	0.482300	0.510000	0.890200
C1121	C112	0.664300	0.782200	0.494100
C1131	C113	0.894900	0.058700	0.458300
C1141	C114	0.982500	0.039600	0.435800
C1151	C115	0.529200	0.568800	0.085000
C1161	C116	0.686600	0.519600	0.614100
C1171	C117	0.606200	0.561900	0.623700
C1181	C118	0.192200	0.914200	0.419100
C1191	C119	0.990600	0.063500	0.402600
C1201	C120	0.084100	0.742400	0.998900
C1211	C121	0.562600	0.607800	0.061400
C1221	C122	0.602100	0.556100	0.112700
C1231	C123	0.076700	0.738800	0.504100
C1241	C124	0.263400	0.923800	0.390600
C1251	C125	0.949100	0.635300	0.422800
C1261	C126	0.229700	0.881400	0.446200
C1271	C127	0.963900	0.828200	0.585300
C1281	C128	0.452900	0.445800	0.447500
C1291	C129	0.916900	0.104400	0.392000
C1301	C130	0.372400	0.901100	0.390800
C1311	C131	0.154200	0.366700	0.077100
C1321	C132	0.753800	0.619800	0.435900
C1331	C133	0.455200	0.649800	0.653400
C1341	C134	0.708000	0.581800	0.114800
C1351	C135	0.254000	0.643800	0.866300
C1361	C136	0.841000	0.655000	0.427800
C1371	C137	0.007700	0.984400	0.927800
C1381	C138	0.698000	0.868000	0.092900
C1391	C139	0.950400	0.962100	0.956800
C1401	C140	0.986400	0.962000	0.891400
C1411	C141	0.744400	0.618100	0.089700
C1421	C142	0.662500	0.849500	0.914100
C1431	C143	0.339200	0.859400	0.445700
C1441	C144	0.770400	0.068800	0.053600
C1451	C145	0.669000	0.631200	0.063700
C1461	C146	0.707500	0.119600	0.055800
C1471	C147	0.414600	0.870700	0.418300
C1481	C148	0.795500	0.081200	0.118200
C1491	C149	0.947200	0.874700	0.644400
C1501	C150	0.238700	0.380900	0.101800
C1511	C151	0.965700	0.579300	0.430800
C1521	C152	0.077700	0.896100	0.064300
C1531	C153	0.442600	0.382300	0.380600
C1541	C154	0.937600	0.870200	0.408400
C1551	C155	0.450500	0.601400	0.413000
C1561	C156	0.818100	0.099500	0.447700
C1571	C157	0.826600	0.121500	0.414200
C1581	C158	0.393600	0.393800	0.444800
C1591	C159	0.390700	0.364900	0.411100
C1601	C160	0.695700	0.152400	0.089400
C1611	C161	0.735700	0.133200	0.121700
C1621	C162	0.973600	0.847800	0.196600
C1631	C163	0.261600	0.883000	0.092800
C1641	C164	0.164700	0.864100	0.076200
C1651	C165	0.236800	0.693600	0.467100
C1661	C166	0.254700	0.942000	0.095500
C1671	C167	0.405000	0.754900	0.020900
C1681	C168	0.178500	0.974300	0.077600
C1691	C169	0.647100	0.338400	0.938300
C1701	C170	0.580800	0.271000	0.871900
C1711	C171	0.782800	0.386900	0.900400
C1721	C172	0.910800	0.510700	0.947200
C1731	C173	0.664100	0.313300	0.871400
C1741	C174	0.558800	0.295400	0.939500
C1751	C175	0.920400	0.484500	0.045700
C1761	C176	0.839700	0.439500	0.051200
C1771	C177	0.986400	0.508500	0.075400
C1781	C178	0.498500	0.285200	0.974500
C1791	C179	0.899700	0.445500	0.114400
C1801	C180	0.833100	0.419800	0.087900
C1811	C181	0.916500	0.459100	0.917200
C1821	C182	0.696700	0.347600	0.903700
C1831	C183	0.342300	0.164700	0.584200
C1841	C184	0.303300	0.170900	0.548600
C1851	C185	0.207100	0.206200	0.543600
C1861	C186	0.281300	0.188500	0.615800
C1871	C187	0.180600	0.217400	0.610400
C1881	C188	0.175800	0.479600	0.551300
C1891	C189	0.175800	0.481400	0.486200
C1901	C190	0.661400	0.207100	0.680600
C1911	C191	0.042600	0.409400	0.401200
C1921	C192	0.062300	0.425300	0.438400
C1931	C193	0.145300	0.466700	0.449300
C1941	C194	0.369200	0.085800	0.049600
C1951	C195	0.270900	0.085300	0.901400
C1961	C196	0.383800	0.005100	0.914800
C1971	C197	0.577300	0.058300	0.580200
C1981	C198	0.511000	0.055100	0.443500
C1991	C199	0.570900	0.001700	0.553800
C2001	C200	0.598700	0.995800	0.489200
C2011	C201	0.152700	0.148800	0.942200
C2021	C202	0.483500	0.010600	0.943800
C2031	C203	0.584000	0.008900	0.452600
C2041	C204	0.869400	0.355500	0.576700
C2051	C205	0.268500	0.437500	0.559100
C2061	C206	0.074800	0.478200	0.577900
C2071	C207	0.699400	0.278000	0.560900
C2081	C208	0.064900	0.189900	0.945400
C2091	C209	0.149400	0.226700	0.574900
C2101	C210	0.740200	0.285400	0.597000
C2111	C211	0.033200	0.217400	0.914700
C2121	C212	0.832800	0.345700	0.540400
C2131	C213	0.824200	0.324400	0.604100
C2141	C214	0.688100	0.250300	0.623000
C2151	C215	0.558400	0.233800	0.839500
C2161	C216	0.935600	0.505000	0.012000
C2171	C217	0.205300	0.494000	0.422500
C2181	C218	0.815300	0.554000	0.939400
C2191	C219	0.103300	0.232000	0.640600
C2201	C220	0.476800	0.017400	0.008100
C2211	C221	0.005500	0.206500	0.982200
C2221	C222	0.059100	0.510500	0.137900
C2231	C223	0.282100	0.164700	0.095700
C2241	C224	0.991600	0.283900	0.850100
C2251	C225	0.653800	0.993500	0.390500
C2261	C226	0.960300	0.362800	0.388800
C2271	C227	0.011800	0.535400	0.581500
C2281	C228	0.355300	0.110000	0.087000
C2291	C229	0.399400	0.242200	0.968200
C2301	C230	0.099600	0.204600	0.671400
C2311	C231	0.633600	0.382100	0.085400
C2321	C232	0.489100	0.189400	0.835100
C2331	C233	0.047800	0.234700	0.849300
C2341	C234	0.575000	0.045100	0.933000
C2351	C235	0.431500	0.116800	0.394400
C2361	C236	0.510100	0.068100	0.406000
C2371	C237	0.160000	0.160700	0.875500
C2381	C238	0.452400	0.338600	0.994400
C2391	C239	0.752800	0.368800	0.095100
C2401	C240	0.251800	0.511700	0.360000
C2411	C241	0.958700	0.309900	0.817800
C2421	C242	0.793800	0.315700	0.072000
C2431	C243	0.377100	0.457200	0.563100
C2441	C244	0.410600	0.085100	0.114600
C2451	C245	0.082400	0.203500	0.880100
C2461	C246	0.581000	0.038700	0.382000
C2471	C247	0.720900	0.245400	0.658300
C2481	C248	0.016800	0.218800	0.700500
C2491	C249	0.327500	0.213300	0.074100
C2501	C250	0.530000	0.265400	0.906400
C2511	C251	0.843300	0.941900	0.310600
C2521	C252	0.244400	0.507300	0.324700
C2531	C253	0.729100	0.965500	0.364300
C2541	C254	0.625800	0.000800	0.197200
C2551	C255	0.654100	0.981800	0.425800
C2561	C256	0.321000	0.538000	0.302300
C2571	C257	0.730400	0.568000	0.964600
C2581	C258	0.152500	0.516300	0.196000
C2591	C259	0.545000	0.028900	0.173400
C2601	C260	0.767500	0.267400	0.468100
C2611	C261	0.820000	0.579700	0.906600
C2621	C262	0.283000	0.186300	0.135300
C2631	C263	0.650200	0.355400	0.480900
C2641	C264	0.256500	0.248100	0.486100
C2651	C265	0.314100	0.951300	0.914900
C2661	C266	0.840300	0.379800	0.400700
C2671	C267	0.545000	0.012100	0.137500
C2681	C268	0.756100	0.971900	0.331200
C2691	C269	0.090600	0.237300	0.009600
C2701	C270	0.003500	0.304400	0.402900
C2711	C271	0.651200	0.607800	0.955300
C2721	C272	0.306900	0.101000	0.401400
C2731	C273	0.062700	0.256800	0.509100
C2741	C274	0.128200	0.160400	0.485400
C2751	C275	0.685800	0.298000	0.496100
C2761	C276	0.004600	0.566800	0.615100
C2771	C277	0.060700	0.495100	0.172000
C2781	C278	0.962000	0.152900	0.996800
C2791	C279	0.982300	0.490000	0.109800
C2801	C280	0.164300	0.217800	0.505900
C2811	C281	0.394900	0.941300	0.541700
C2821	C282	0.482500	0.960400	0.564200
C2831	C283	0.029200	0.431200	0.915000
C2841	C284	0.186600	0.480400	0.385900
C2851	C285	0.106200	0.438100	0.376300
C2861	C286	0.692200	0.085800	0.580900
C2871	C287	0.490600	0.936500	0.597400
C2881	C288	0.584100	0.257600	0.001100
C2891	C289	0.062600	0.392200	0.938600
C2901	C290	0.102100	0.443900	0.887300
C2911	C291	0.576700	0.261200	0.495900
C2921	C292	0.763400	0.076200	0.609400
C2931	C293	0.449100	0.364700	0.577200
C2941	C294	0.729700	0.118600	0.553800
C2951	C295	0.463900	0.171800	0.414700
C2961	C296	0.952900	0.554200	0.552500
C2971	C297	0.416900	0.895600	0.608000
C2981	C298	0.872400	0.098900	0.609200
C2991	C299	0.654200	0.633300	0.922900
C3001	C300	0.253800	0.380200	0.564100
C3011	C301	0.955200	0.350200	0.346600
C3021	C302	0.208000	0.418200	0.885200
C3031	C303	0.754000	0.356200	0.133700
C3041	C304	0.341000	0.345000	0.572200
C3051	C305	0.507700	0.015600	0.072200
C3061	C306	0.198000	0.132000	0.907100
C3071	C307	0.450400	0.037900	0.043200
C3081	C308	0.486400	0.038000	0.108600
C3091	C309	0.244400	0.381900	0.910300
C3101	C310	0.162500	0.150500	0.085900
C3111	C311	0.839200	0.140600	0.554300
C3121	C312	0.270400	0.931200	0.946400
C3131	C313	0.169000	0.368800	0.936300
C3141	C314	0.207500	0.880400	0.944200
C3151	C315	0.914600	0.129300	0.581700
C3161	C316	0.295500	0.918800	0.881800
C3171	C317	0.447200	0.125300	0.355600
C3181	C318	0.738700	0.619100	0.898200
C3191	C319	0.465700	0.420700	0.569200
C3201	C320	0.577700	0.103900	0.935700
C3211	C321	0.942600	0.617700	0.619400
C3221	C322	0.437600	0.129800	0.591600
C3231	C323	0.950500	0.398600	0.587000
C3241	C324	0.318100	0.900500	0.552300
C3251	C325	0.326600	0.878500	0.585800
C3261	C326	0.893600	0.606200	0.555200
C3271	C327	0.890700	0.635100	0.588900
C3281	C328	0.195700	0.847600	0.910600
C3291	C329	0.235700	0.866800	0.878300
C3301	C330	0.473600	0.152200	0.803400
C3311	C331	0.761600	0.117000	0.907200
C3321	C332	0.664700	0.135900	0.923800
C3331	C333	0.736800	0.306400	0.532900
C3341	C334	0.754700	0.058000	0.904500
C3351	C335	0.905000	0.245100	0.979100
C3361	C336	0.678500	0.025700	0.922400
N11	N1	0.324700	0.579000	0.073800
N21	N2	0.390400	0.515900	0.018100
N31	N3	0.051000	0.976700	0.483270
N41	N4	0.989100	0.905300	0.432900
N51	N5	0.502900	0.571700	0.436900
N61	N6	0.627300	0.538000	0.485300
N71	N7	0.816100	0.943000	0.074200
N81	N8	0.936100	0.967100	0.021900
N91	N9	0.824700	0.421000	0.926200
N101	N10	0.890400	0.484100	0.981900
N111	N11	0.551000	0.023300	0.516730
N121	N12	0.489100	0.094700	0.567100
N131	N13	0.002900	0.428300	0.563100
N141	N14	0.127300	0.462000	0.514700
N151	N15	0.316100	0.057000	0.925800
N161	N16	0.436100	0.032900	0.978100
Cl11	Cl1	0.211700	0.671740	0.243570
Cl21	Cl2	0.711700	0.328260	0.756430
O11	O1	0.184600	0.635400	0.031180
O21	O2	0.274100	0.582900	0.974530
O31	O3	0.854000	0.853600	0.480360
O41	O4	0.198600	0.800700	0.287600
O51	O5	0.800700	0.461800	0.732100
O61	O6	0.463600	0.716500	0.213340
O71	O7	0.729200	0.453400	0.810900
O81	O8	0.500700	0.623600	0.267990
O91	O9	0.944800	0.917700	0.531540
O101	O10	0.419700	0.638700	0.177300
O111	O11	0.066100	0.814300	0.328600
O121	O12	0.273800	0.825400	0.216200
O131	O13	0.459600	0.735100	0.299290
O141	O14	0.375400	0.629200	0.486420
O151	O15	0.499900	0.598300	0.537120
O161	O16	0.493000	0.817000	0.277400
O171	O17	0.044600	0.849000	0.223730
O181	O18	0.135700	0.984300	0.771000
O191	O19	0.884700	0.877700	0.198900
O201	O20	0.688700	0.866900	0.252700
O211	O21	0.692000	0.873800	0.028790
O221	O22	0.812500	0.894700	0.976210
O231	O23	0.374800	0.049300	0.720210
O241	O24	0.900100	0.432900	0.682600
O251	O25	0.636000	0.500400	0.768700
O261	O26	0.398200	0.094900	0.674400
O271	O27	0.180600	0.044800	0.816700
O281	O28	0.491900	0.516800	0.209800
O291	O29	0.684600	0.364600	0.968820
O301	O30	0.774100	0.417100	0.025470
O311	O31	0.354000	0.146400	0.519640
O321	O32	0.698600	0.199300	0.712400
O331	O33	0.300700	0.538200	0.267900
O341	O34	0.963600	0.283500	0.786660
O351	O35	0.229200	0.546600	0.189100
O361	O36	0.000700	0.376400	0.732010
O371	O37	0.444800	0.082300	0.468460
O381	O38	0.919700	0.361300	0.822700
O391	O39	0.566100	0.185700	0.671400
O401	O40	0.773800	0.174600	0.783800
O411	O41	0.959600	0.264900	0.700710
O421	O42	0.875400	0.370800	0.513580
O431	O43	0.999900	0.401700	0.462880
O441	O44	0.993000	0.183000	0.722600
O451	O45	0.544600	0.151000	0.776270
O461	O46	0.635700	0.015700	0.229000
O471	O47	0.384700	0.122300	0.801100
O481	O48	0.188700	0.133100	0.747300
O491	O49	0.192000	0.126200	0.971210
O501	O50	0.312500	0.105300	0.023790
O511	O51	0.874800	0.950700	0.279790
O521	O52	0.400100	0.567100	0.317400
O531	O53	0.136000	0.499600	0.231300
O541	O54	0.898200	0.905100	0.325600
O551	O55	0.680600	0.955200	0.183300
O561	O56	0.991900	0.483200	0.790200
