data_VIFBOD_freeONLY_PM
_symmetry_space_group_name_H-M	'P1'
_cell_length_a	10.285000
_cell_length_b	11.571700
_cell_length_c	13.511400
_cell_angle_alpha	85.581000
_cell_angle_beta	69.209000
_cell_angle_gamma	63.755000
_symmetry_Int_Tables_number 1

loop_
_symmetry_equiv_pos_as_xyz
'x,y,z'

loop_
_atom_site_label
_atom_site_type_symbol
_atom_site_fract_x
_atom_site_fract_y
_atom_site_fract_z
Tm11	Tm1	0.444610	0.724560	0.679690
Tm21	Tm2	0.468820	0.203020	0.690700
Tm31	Tm3	0.555390	0.275440	0.320310
Tm41	Tm4	0.531180	0.796980	0.309300
H11	H1	0.989500	0.889400	0.602200
H21	H2	0.634600	0.796100	0.908700
H31	H3	0.007000	0.583300	0.389800
H41	H4	0.010500	0.110600	0.397800
H51	H5	0.365400	0.203900	0.091300
H61	H6	0.993000	0.416700	0.610200
C11	C1	0.861800	0.752800	0.481300
C21	C2	0.134500	0.722400	0.507900
C31	C3	0.443300	0.951300	0.816000
C41	C4	0.857200	0.843700	0.547800
C51	C5	0.139700	0.628100	0.445700
C61	C6	0.993300	0.828000	0.559300
C71	C7	0.722200	0.765800	0.461100
C81	C8	0.472000	0.978600	0.910800
C91	C9	0.580000	0.877700	0.946000
C101	C10	0.003100	0.645200	0.432300
C111	C11	0.265600	0.216600	0.939800
C121	C12	0.393200	0.102800	0.965000
C131	C13	0.273700	0.721700	0.522000
C141	C14	0.287300	0.508100	0.396600
C151	C15	0.711900	0.962300	0.604600
C161	C16	0.138200	0.247200	0.518700
C171	C17	0.865500	0.277600	0.492100
C181	C18	0.556700	0.048700	0.184000
C191	C19	0.142800	0.156300	0.452200
C201	C20	0.860300	0.371900	0.554300
C211	C21	0.006700	0.172000	0.440700
C221	C22	0.277800	0.234200	0.538900
C231	C23	0.528000	0.021400	0.089200
C241	C24	0.420000	0.122300	0.054000
C251	C25	0.996900	0.354800	0.567700
C261	C26	0.734400	0.783400	0.060200
C271	C27	0.606800	0.897200	0.035000
C281	C28	0.726300	0.278300	0.478000
C291	C29	0.712700	0.491900	0.603400
C301	C30	0.288100	0.037700	0.395400
O11	O1	0.607100	0.015100	0.564730
O21	O2	0.380400	0.046200	0.768270
O31	O3	0.400700	0.481400	0.426000
O41	O4	0.284800	0.697600	0.611500
O51	O5	0.299700	0.279700	0.861170
O61	O6	0.296700	0.433200	0.328000
O71	O7	0.300500	0.937800	0.642300
O81	O8	0.728400	0.774700	0.365500
O91	O9	0.485600	0.835000	0.788000
O101	O10	0.419400	0.577700	0.806000
O111	O11	0.131800	0.246300	0.003000
O121	O12	0.347100	0.422200	0.674400
O131	O13	0.200800	0.822400	0.819900
O141	O14	0.699500	0.012400	0.689700
O151	O15	0.361700	0.754600	0.448400
O161	O16	0.608700	0.764400	0.536300
O171	O17	0.597200	0.272600	0.772500
O181	O18	0.392900	0.984900	0.435270
O191	O19	0.619600	0.953800	0.231730
O201	O20	0.599300	0.518600	0.574000
O211	O21	0.715200	0.302400	0.388500
O221	O22	0.700300	0.720300	0.138830
O231	O23	0.703300	0.566800	0.672000
O241	O24	0.699500	0.062200	0.357700
O251	O25	0.271600	0.225300	0.634500
O261	O26	0.514400	0.165000	0.212000
O271	O27	0.580600	0.422300	0.194000
O281	O28	0.868200	0.753700	0.997000
O291	O29	0.652900	0.577800	0.325600
O301	O30	0.799200	0.177600	0.180100
O311	O31	0.300500	0.987600	0.310300
O321	O32	0.638300	0.245400	0.551600
O331	O33	0.391300	0.235600	0.463700
O341	O34	0.402800	0.727400	0.227500
