data_VIPXUO_freeONLY_PM
_symmetry_space_group_name_H-M	'P1'
_cell_length_a	8.686400
_cell_length_b	14.241400
_cell_length_c	16.885000
_cell_angle_alpha	90.000000
_cell_angle_beta	100.046000
_cell_angle_gamma	90.000000
_symmetry_Int_Tables_number 1

loop_
_symmetry_equiv_pos_as_xyz
'x,y,z'

loop_
_atom_site_label
_atom_site_type_symbol
_atom_site_fract_x
_atom_site_fract_y
_atom_site_fract_z
Co11	Co1	0.713650	0.240310	0.766850
Co21	Co2	0.786350	0.740310	0.733150
Co31	Co3	0.286350	0.759690	0.233150
Co41	Co4	0.213650	0.259690	0.266850
H11	H1	0.446200	0.143500	0.550700
H21	H2	0.909500	0.577000	0.517100
H31	H3	0.741500	0.452200	0.480500
H41	H4	0.816300	0.431500	0.404200
H51	H5	0.173700	0.569300	0.263800
H61	H6	0.069200	0.481400	0.353000
H71	H7	0.956300	0.720500	0.453700
H81	H8	0.065100	0.800900	0.359600
H91	H9	0.591400	0.606300	0.481900
H101	H10	0.424600	0.707700	0.405400
H111	H11	0.538400	0.611600	0.206600
H121	H12	0.710000	0.507100	0.280400
H131	H13	0.604400	0.211500	0.896300
H141	H14	0.476000	0.233200	0.837900
H151	H15	0.963100	0.145900	0.790700
H161	H16	0.848100	0.087300	0.810600
H171	H17	0.053800	0.643500	0.949300
H181	H18	0.590500	0.077000	0.982900
H191	H19	0.758500	0.952200	0.019500
H201	H20	0.683700	0.931500	0.095800
H211	H21	0.326300	0.069300	0.236200
H221	H22	0.430800	0.981400	0.147000
H231	H23	0.543700	0.220500	0.046300
H241	H24	0.434900	0.300900	0.140400
H251	H25	0.908600	0.106300	0.018100
H261	H26	0.075400	0.207700	0.094600
H271	H27	0.961600	0.111600	0.293400
H281	H28	0.790000	0.007100	0.219600
H291	H29	0.895600	0.711500	0.603700
H301	H30	0.024000	0.733200	0.662100
H311	H31	0.536900	0.645900	0.709300
H321	H32	0.651900	0.587300	0.689400
H331	H33	0.553800	0.856500	0.449300
H341	H34	0.090500	0.423000	0.482900
H351	H35	0.258500	0.547800	0.519500
H361	H36	0.183700	0.568500	0.595800
H371	H37	0.826300	0.430700	0.736200
H381	H38	0.930800	0.518600	0.647000
H391	H39	0.043700	0.279500	0.546300
H401	H40	0.934900	0.199100	0.640400
H411	H41	0.408600	0.393700	0.518100
H421	H42	0.575400	0.292300	0.594600
H431	H43	0.461600	0.388400	0.793400
H441	H44	0.290000	0.492900	0.719600
H451	H45	0.395600	0.788500	0.103700
H461	H46	0.524000	0.766800	0.162100
H471	H47	0.036900	0.854100	0.209300
H481	H48	0.151900	0.912700	0.189400
H491	H49	0.946200	0.356500	0.050700
H501	H50	0.409500	0.923000	0.017100
H511	H51	0.241500	0.047800	0.980500
H521	H52	0.316300	0.068500	0.904200
H531	H53	0.673700	0.930700	0.763800
H541	H54	0.569200	0.018600	0.853000
H551	H55	0.456300	0.779500	0.953700
H561	H56	0.565100	0.699100	0.859600
H571	H57	0.091400	0.893700	0.981900
H581	H58	0.924600	0.792300	0.905400
H591	H59	0.038400	0.888400	0.706600
H601	H60	0.210000	0.992900	0.780400
H611	H61	0.104400	0.288500	0.396300
H621	H62	0.976000	0.266800	0.337900
H631	H63	0.463100	0.354100	0.290700
H641	H64	0.348100	0.412700	0.310600
C11	C1	0.263800	0.124900	0.413880
C21	C2	0.379900	0.055600	0.457980
C31	C3	0.589900	0.032000	0.572380
C41	C4	0.685600	0.073000	0.648120
C51	C5	0.468600	0.085600	0.529990
C61	C6	0.938700	0.533200	0.477500
C71	C7	0.788900	0.481100	0.438620
C81	C8	0.131100	0.600300	0.303440
C91	C9	0.068400	0.546600	0.356710
C101	C10	0.003700	0.590500	0.416350
C111	C11	0.001700	0.687700	0.416080
C121	C12	0.068000	0.735600	0.359170
C131	C13	0.672400	0.545400	0.389850
C141	C14	0.583400	0.606050	0.426220
C151	C15	0.482300	0.666480	0.379450
C161	C16	0.548300	0.610600	0.262300
C171	C17	0.652600	0.547930	0.306950
C181	C18	0.236200	0.624900	0.086120
C191	C19	0.120100	0.555600	0.042020
C201	C20	0.910100	0.532000	0.927620
C211	C21	0.814400	0.573000	0.851880
C221	C22	0.031400	0.585600	0.970010
C231	C23	0.561300	0.033200	0.022500
C241	C24	0.711100	0.981100	0.061380
C251	C25	0.368900	0.100300	0.196560
C261	C26	0.431600	0.046600	0.143290
C271	C27	0.496300	0.090500	0.083650
C281	C28	0.498300	0.187700	0.083920
C291	C29	0.432000	0.235600	0.140830
C301	C30	0.827600	0.045400	0.110150
C311	C31	0.916600	0.106050	0.073780
C321	C32	0.017700	0.166480	0.120550
C331	C33	0.951700	0.110600	0.237700
C341	C34	0.847400	0.047930	0.193050
C351	C35	0.736200	0.875100	0.586120
C361	C36	0.620100	0.944400	0.542020
C371	C37	0.410100	0.968000	0.427620
C381	C38	0.314400	0.927000	0.351880
C391	C39	0.531400	0.914400	0.470010
C401	C40	0.061300	0.466800	0.522500
C411	C41	0.211100	0.518900	0.561380
C421	C42	0.868900	0.399700	0.696560
C431	C43	0.931600	0.453400	0.643290
C441	C44	0.996300	0.409500	0.583650
C451	C45	0.998300	0.312300	0.583920
C461	C46	0.932000	0.264400	0.640830
C471	C47	0.327600	0.454600	0.610150
C481	C48	0.416600	0.393950	0.573780
C491	C49	0.517700	0.333520	0.620550
C501	C50	0.451700	0.389400	0.737700
C511	C51	0.347400	0.452070	0.693050
C521	C52	0.763800	0.375100	0.913880
C531	C53	0.879900	0.444400	0.957980
C541	C54	0.089900	0.468000	0.072380
C551	C55	0.185600	0.427000	0.148120
C561	C56	0.968600	0.414400	0.029990
C571	C57	0.438700	0.966800	0.977500
C581	C58	0.288900	0.018900	0.938620
C591	C59	0.631100	0.899700	0.803440
C601	C60	0.568400	0.953400	0.856710
C611	C61	0.503700	0.909500	0.916350
C621	C62	0.501700	0.812300	0.916080
C631	C63	0.568000	0.764400	0.859170
C641	C64	0.172400	0.954600	0.889850
C651	C65	0.083400	0.893950	0.926220
C661	C66	0.982300	0.833520	0.879450
C671	C67	0.048300	0.889400	0.762300
C681	C68	0.152600	0.952070	0.806950
N11	N1	0.135800	0.693350	0.303820
N21	N2	0.461600	0.669730	0.298860
N31	N3	0.364200	0.193350	0.196180
N41	N4	0.038400	0.169730	0.201140
N51	N5	0.864200	0.306650	0.696180
N61	N6	0.538400	0.330270	0.701140
N71	N7	0.635800	0.806650	0.803820
N81	N8	0.961600	0.830270	0.798860
O11	O1	0.305900	0.162280	0.354020
O21	O2	0.143100	0.145880	0.442060
O31	O3	0.820600	0.042300	0.669260
O41	O4	0.621600	0.136140	0.682660
O51	O5	0.559600	0.201080	0.848170
O61	O6	0.886200	0.142340	0.815550
O71	O7	0.194100	0.662280	0.145980
O81	O8	0.356900	0.645880	0.057940
O91	O9	0.679400	0.542300	0.830740
O101	O10	0.878400	0.636140	0.817340
O111	O11	0.940400	0.701080	0.651830
O121	O12	0.613800	0.642340	0.684450
O131	O13	0.694100	0.837720	0.645980
O141	O14	0.856900	0.854120	0.557940
O151	O15	0.179400	0.957700	0.330740
O161	O16	0.378400	0.863860	0.317340
O171	O17	0.440400	0.798920	0.151830
O181	O18	0.113800	0.857660	0.184450
O191	O19	0.805900	0.337720	0.854020
O201	O20	0.643100	0.354120	0.942060
O211	O21	0.320600	0.457700	0.169260
O221	O22	0.121600	0.363860	0.182660
O231	O23	0.059600	0.298920	0.348170
O241	O24	0.386200	0.357660	0.315550
