data_VIRVEY_freeONLY_PM
_symmetry_space_group_name_H-M	'P1'
_cell_length_a	12.766000
_cell_length_b	23.340000
_cell_length_c	14.903000
_cell_angle_alpha	90.000000
_cell_angle_beta	90.000000
_cell_angle_gamma	90.000000
_symmetry_Int_Tables_number 1

loop_
_symmetry_equiv_pos_as_xyz
'x,y,z'

loop_
_atom_site_label
_atom_site_type_symbol
_atom_site_fract_x
_atom_site_fract_y
_atom_site_fract_z
Zn11	Zn1	0.849440	0.098630	0.488280
Zn21	Zn2	0.747460	0.984680	0.605800
Zn31	Zn3	0.150560	0.901370	0.988280
Zn41	Zn4	0.252540	0.015320	0.105800
Zn51	Zn5	0.650560	0.598630	0.488280
Zn61	Zn6	0.752540	0.484680	0.605800
Zn71	Zn7	0.349440	0.401370	0.988280
Zn81	Zn8	0.247460	0.515320	0.105800
H11	H1	0.932100	0.169400	0.733600
H21	H2	0.978400	0.011800	0.831200
H31	H3	0.101400	0.150900	0.951600
H41	H4	0.123000	0.354900	0.956000
H51	H5	0.002800	0.500600	0.860400
H61	H6	0.921700	0.349700	0.756100
H71	H7	0.867600	0.225700	0.436100
H81	H8	0.711700	0.249600	0.617500
H91	H9	0.717800	0.316100	0.612200
H101	H10	0.805900	0.281700	0.661700
H111	H11	0.902300	0.321900	0.439300
H121	H12	0.818500	0.359900	0.487600
H131	H13	0.919800	0.342100	0.538700
H141	H14	0.042700	0.178100	0.532900
H151	H15	0.285200	0.218900	0.452200
H161	H16	0.232400	0.208800	0.546200
H171	H17	0.187900	0.255800	0.480600
H181	H18	0.124700	0.140600	0.325400
H191	H19	0.228400	0.120500	0.374200
H201	H20	0.222400	0.181700	0.329800
H211	H21	0.922400	0.074800	0.306900
H221	H22	0.939100	0.132800	0.096700
H231	H23	0.951900	0.071600	0.139500
H241	H24	0.024500	0.122100	0.172100
H251	H25	0.835700	0.192300	0.142600
H261	H26	0.740400	0.160800	0.187400
H271	H27	0.811500	0.201500	0.245800
H281	H28	0.067900	0.830600	0.233600
H291	H29	0.021600	0.988200	0.331200
H301	H30	0.898600	0.849100	0.451600
H311	H31	0.877000	0.645100	0.456000
H321	H32	0.997200	0.499400	0.360400
H331	H33	0.078300	0.650300	0.256100
H341	H34	0.132400	0.774300	0.936100
H351	H35	0.288300	0.750400	0.117500
H361	H36	0.282200	0.683900	0.112200
H371	H37	0.194100	0.718300	0.161700
H381	H38	0.097700	0.678100	0.939300
H391	H39	0.181500	0.640100	0.987600
H401	H40	0.080200	0.657900	0.038700
H411	H41	0.957300	0.821900	0.032900
H421	H42	0.714800	0.781100	0.952200
H431	H43	0.767600	0.791200	0.046200
H441	H44	0.812100	0.744200	0.980600
H451	H45	0.875300	0.859400	0.825400
H461	H46	0.771600	0.879500	0.874200
H471	H47	0.777600	0.818300	0.829800
H481	H48	0.077600	0.925200	0.806900
H491	H49	0.060900	0.867200	0.596700
H501	H50	0.048100	0.928400	0.639500
H511	H51	0.975500	0.877900	0.672100
H521	H52	0.164300	0.807700	0.642600
H531	H53	0.259600	0.839200	0.687400
H541	H54	0.188500	0.798500	0.745800
H551	H55	0.567900	0.669400	0.733600
H561	H56	0.521600	0.511800	0.831200
H571	H57	0.398600	0.650900	0.951600
H581	H58	0.377000	0.854900	0.956000
H591	H59	0.497200	0.000600	0.860400
H601	H60	0.578300	0.849700	0.756100
H611	H61	0.632400	0.725700	0.436100
H621	H62	0.788300	0.749600	0.617500
H631	H63	0.782200	0.816100	0.612200
H641	H64	0.694100	0.781700	0.661700
H651	H65	0.597700	0.821900	0.439300
H661	H66	0.681500	0.859900	0.487600
H671	H67	0.580200	0.842100	0.538700
H681	H68	0.457300	0.678100	0.532900
H691	H69	0.214800	0.718900	0.452200
H701	H70	0.267600	0.708800	0.546200
H711	H71	0.312100	0.755800	0.480600
H721	H72	0.375300	0.640600	0.325400
H731	H73	0.271600	0.620500	0.374200
H741	H74	0.277600	0.681700	0.329800
H751	H75	0.577600	0.574800	0.306900
H761	H76	0.560900	0.632800	0.096700
H771	H77	0.548100	0.571600	0.139500
H781	H78	0.475500	0.622100	0.172100
H791	H79	0.664300	0.692300	0.142600
H801	H80	0.759600	0.660800	0.187400
H811	H81	0.688500	0.701500	0.245800
H821	H82	0.432100	0.330600	0.233600
H831	H83	0.478400	0.488200	0.331200
H841	H84	0.601400	0.349100	0.451600
H851	H85	0.623000	0.145100	0.456000
H861	H86	0.502800	0.999400	0.360400
H871	H87	0.421700	0.150300	0.256100
H881	H88	0.367600	0.274300	0.936100
H891	H89	0.211700	0.250400	0.117500
H901	H90	0.217800	0.183900	0.112200
H911	H91	0.305900	0.218300	0.161700
H921	H92	0.402300	0.178100	0.939300
H931	H93	0.318500	0.140100	0.987600
H941	H94	0.419800	0.157900	0.038700
H951	H95	0.542700	0.321900	0.032900
H961	H96	0.785200	0.281100	0.952200
H971	H97	0.732400	0.291200	0.046200
H981	H98	0.687900	0.244200	0.980600
H991	H99	0.624700	0.359400	0.825400
H1001	H100	0.728400	0.379500	0.874200
H1011	H101	0.722400	0.318300	0.829800
H1021	H102	0.422400	0.425200	0.806900
H1031	H103	0.439100	0.367200	0.596700
H1041	H104	0.451900	0.428400	0.639500
H1051	H105	0.524500	0.377900	0.672100
H1061	H106	0.335700	0.307700	0.642600
H1071	H107	0.240400	0.339200	0.687400
H1081	H108	0.311500	0.298500	0.745800
Pt11	Pt1	0.026660	0.255890	0.850730
Pt21	Pt2	0.973340	0.744110	0.350730
Pt31	Pt3	0.473340	0.755890	0.850730
Pt41	Pt4	0.526660	0.244110	0.350730
C11	C1	0.963100	0.145400	0.776000
C21	C2	0.948900	0.087000	0.767800
C31	C3	0.990400	0.051000	0.833100
C41	C4	0.050100	0.075200	0.901300
C51	C5	0.062600	0.134400	0.905700
C61	C6	0.894000	0.065000	0.685200
C71	C7	0.105400	0.036800	0.968000
C81	C8	0.080500	0.374000	0.915100
C91	C9	0.074300	0.433100	0.917700
C101	C10	0.009300	0.461100	0.858600
C111	C11	0.954200	0.428900	0.796200
C121	C12	0.961300	0.370600	0.796400
C131	C13	0.133900	0.467200	0.984800
C141	C14	0.883900	0.458000	0.727300
C151	C15	0.828300	0.226700	0.489000
C161	C16	0.758200	0.281600	0.612000
C171	C17	0.868400	0.329800	0.495800
C181	C18	0.059900	0.160500	0.478400
C191	C19	0.219600	0.218400	0.484200
C201	C20	0.183400	0.152700	0.361800
C211	C21	0.870400	0.102000	0.295200
C221	C22	0.955400	0.112000	0.150700
C231	C23	0.810700	0.174500	0.196900
C241	C24	0.036900	0.854600	0.276000
C251	C25	0.051100	0.913000	0.267800
C261	C26	0.009600	0.949000	0.333100
C271	C27	0.949900	0.924800	0.401300
C281	C28	0.937400	0.865600	0.405700
C291	C29	0.106000	0.935000	0.185200
C301	C30	0.894600	0.963200	0.468000
C311	C31	0.919500	0.626000	0.415100
C321	C32	0.925700	0.566900	0.417700
C331	C33	0.990700	0.538900	0.358600
C341	C34	0.045800	0.571100	0.296200
C351	C35	0.038700	0.629400	0.296400
C361	C36	0.866100	0.532800	0.484800
C371	C37	0.116100	0.542000	0.227300
C381	C38	0.171700	0.773300	0.989000
C391	C39	0.241800	0.718400	0.112000
C401	C40	0.131600	0.670200	0.995800
C411	C41	0.940100	0.839500	0.978400
C421	C42	0.780400	0.781600	0.984200
C431	C43	0.816600	0.847300	0.861800
C441	C44	0.129600	0.898000	0.795200
C451	C45	0.044600	0.888000	0.650700
C461	C46	0.189300	0.825500	0.696900
C471	C47	0.536900	0.645400	0.776000
C481	C48	0.551100	0.587000	0.767800
C491	C49	0.509600	0.551000	0.833100
C501	C50	0.449900	0.575200	0.901300
C511	C51	0.437400	0.634400	0.905700
C521	C52	0.606000	0.565000	0.685200
C531	C53	0.394600	0.536800	0.968000
C541	C54	0.419500	0.874000	0.915100
C551	C55	0.425700	0.933100	0.917700
C561	C56	0.490700	0.961100	0.858600
C571	C57	0.545800	0.928900	0.796200
C581	C58	0.538700	0.870600	0.796400
C591	C59	0.366100	0.967200	0.984800
C601	C60	0.616100	0.958000	0.727300
C611	C61	0.671700	0.726700	0.489000
C621	C62	0.741800	0.781600	0.612000
C631	C63	0.631600	0.829800	0.495800
C641	C64	0.440100	0.660500	0.478400
C651	C65	0.280400	0.718400	0.484200
C661	C66	0.316600	0.652700	0.361800
C671	C67	0.629600	0.602000	0.295200
C681	C68	0.544600	0.612000	0.150700
C691	C69	0.689300	0.674500	0.196900
C701	C70	0.463100	0.354600	0.276000
C711	C71	0.448900	0.413000	0.267800
C721	C72	0.490400	0.449000	0.333100
C731	C73	0.550100	0.424800	0.401300
C741	C74	0.562600	0.365600	0.405700
C751	C75	0.394000	0.435000	0.185200
C761	C76	0.605400	0.463200	0.468000
C771	C77	0.580500	0.126000	0.415100
C781	C78	0.574300	0.066900	0.417700
C791	C79	0.509300	0.038900	0.358600
C801	C80	0.454200	0.071100	0.296200
C811	C81	0.461300	0.129400	0.296400
C821	C82	0.633900	0.032800	0.484800
C831	C83	0.383900	0.042000	0.227300
C841	C84	0.328300	0.273300	0.989000
C851	C85	0.258200	0.218400	0.112000
C861	C86	0.368400	0.170200	0.995800
C871	C87	0.559900	0.339500	0.978400
C881	C88	0.719600	0.281600	0.984200
C891	C89	0.683400	0.347300	0.861800
C901	C90	0.370400	0.398000	0.795200
C911	C91	0.455400	0.388000	0.650700
C921	C92	0.310700	0.325500	0.696900
N11	N1	0.019300	0.168720	0.842900
N21	N2	0.024300	0.342250	0.853700
N31	N3	0.816000	0.277300	0.528600
N41	N4	0.148300	0.174800	0.442800
N51	N5	0.878000	0.126200	0.218500
N61	N6	0.980700	0.831280	0.342900
N71	N7	0.975700	0.657750	0.353700
N81	N8	0.184000	0.722700	0.028600
N91	N9	0.851700	0.825200	0.942800
N101	N10	0.122000	0.873800	0.718500
N111	N11	0.480700	0.668720	0.842900
N121	N12	0.475700	0.842250	0.853700
N131	N13	0.684000	0.777300	0.528600
N141	N14	0.351700	0.674800	0.442800
N151	N15	0.622000	0.626200	0.218500
N161	N16	0.519300	0.331280	0.342900
N171	N17	0.524300	0.157750	0.353700
N181	N18	0.316000	0.222700	0.028600
N191	N19	0.648300	0.325200	0.942800
N201	N20	0.378000	0.373800	0.718500
Cl11	Cl1	0.057800	0.261130	0.698380
Cl21	Cl2	0.994030	0.251200	0.002270
Cl31	Cl3	0.942200	0.738870	0.198380
Cl41	Cl4	0.005970	0.748800	0.502270
Cl51	Cl5	0.442200	0.761130	0.698380
Cl61	Cl6	0.505970	0.751200	0.002270
Cl71	Cl7	0.557800	0.238870	0.198380
Cl81	Cl8	0.494030	0.248800	0.502270
O11	O1	0.893700	0.097930	0.618500
O21	O2	0.850900	0.016220	0.691900
O31	O3	0.092800	0.983900	0.957800
O41	O4	0.160900	0.061810	0.025400
O51	O5	0.207700	0.442300	0.029900
O61	O6	0.112200	0.517900	0.997600
O71	O7	0.891300	0.510400	0.715200
O81	O8	0.822900	0.425300	0.682900
O91	O9	0.792700	0.182100	0.516400
O101	O10	0.997400	0.127100	0.448500
O111	O11	0.805500	0.109300	0.354300
O121	O12	0.106300	0.902070	0.118500
O131	O13	0.149100	0.983780	0.191900
O141	O14	0.907200	0.016100	0.457800
O151	O15	0.839100	0.938190	0.525400
O161	O16	0.792300	0.557700	0.529900
O171	O17	0.887800	0.482100	0.497600
O181	O18	0.108700	0.489600	0.215200
O191	O19	0.177100	0.574700	0.182900
O201	O20	0.207300	0.817900	0.016400
O211	O21	0.002600	0.872900	0.948500
O221	O22	0.194500	0.890700	0.854300
O231	O23	0.606300	0.597930	0.618500
O241	O24	0.649100	0.516220	0.691900
O251	O25	0.407200	0.483900	0.957800
O261	O26	0.339100	0.561810	0.025400
O271	O27	0.292300	0.942300	0.029900
O281	O28	0.387800	0.017900	0.997600
O291	O29	0.608700	0.010400	0.715200
O301	O30	0.677100	0.925300	0.682900
O311	O31	0.707300	0.682100	0.516400
O321	O32	0.502600	0.627100	0.448500
O331	O33	0.694500	0.609300	0.354300
O341	O34	0.393700	0.402070	0.118500
O351	O35	0.350900	0.483780	0.191900
O361	O36	0.592800	0.516100	0.457800
O371	O37	0.660900	0.438190	0.525400
O381	O38	0.707700	0.057700	0.529900
O391	O39	0.612200	0.982100	0.497600
O401	O40	0.391300	0.989600	0.215200
O411	O41	0.322900	0.074700	0.182900
O421	O42	0.292700	0.317900	0.016400
O431	O43	0.497400	0.372900	0.948500
O441	O44	0.305500	0.390700	0.854300
