data_VIWKOD_freeONLY_PM
_symmetry_space_group_name_H-M	'P1'
_cell_length_a	10.994000
_cell_length_b	19.838000
_cell_length_c	23.098000
_cell_angle_alpha	90.000000
_cell_angle_beta	90.000000
_cell_angle_gamma	99.890000
_symmetry_Int_Tables_number 1

loop_
_symmetry_equiv_pos_as_xyz
'x,y,z'

loop_
_atom_site_label
_atom_site_type_symbol
_atom_site_fract_x
_atom_site_fract_y
_atom_site_fract_z
Ce11	Ce1	0.960370	0.101030	0.645280
Ce21	Ce2	0.647350	0.354040	0.644200
Ce31	Ce3	0.039630	0.898970	0.354720
Ce41	Ce4	0.460370	0.601030	0.854720
Ce51	Ce5	0.352650	0.645960	0.355800
Ce61	Ce6	0.539630	0.398970	0.145280
Ce71	Ce7	0.852650	0.145960	0.144200
Ce81	Ce8	0.147350	0.854040	0.855800
Cu11	Cu1	0.591320	0.398490	0.321390
Cu21	Cu2	0.408680	0.601510	0.678610
Cu31	Cu3	0.302920	0.651180	0.179300
Cu41	Cu4	0.091320	0.898490	0.178610
Cu51	Cu5	0.197080	0.848820	0.679300
Cu61	Cu6	0.697080	0.348820	0.820700
Cu71	Cu7	0.802920	0.151180	0.320700
Cu81	Cu8	0.908680	0.101510	0.821390
H11	H1	0.017500	0.491400	0.304500
H21	H2	0.879000	0.557200	0.195500
H31	H3	0.982500	0.508600	0.695500
H41	H4	0.918200	0.541500	0.917900
H51	H5	0.081800	0.458500	0.082100
H61	H6	0.418200	0.041500	0.582100
H71	H7	0.773000	0.742900	0.294100
H81	H8	0.379000	0.057200	0.304500
H91	H9	0.482500	0.008600	0.804500
H101	H10	0.621000	0.942800	0.695500
H111	H11	0.581800	0.958500	0.417900
H121	H12	0.121000	0.442800	0.804500
H131	H13	0.227000	0.257100	0.705900
H141	H14	0.110100	0.307300	0.199700
H151	H15	0.610100	0.807300	0.300300
H161	H16	0.389900	0.192700	0.699700
H171	H17	0.727000	0.757100	0.794100
H181	H18	0.517500	0.991400	0.195500
H191	H19	0.273000	0.242900	0.205900
H201	H20	0.889900	0.692700	0.800300
C11	C1	0.898700	0.863500	0.812200
C21	C2	0.791200	0.465000	0.760900
C31	C3	0.752800	0.585000	0.250300
C41	C4	0.592800	0.843900	0.278500
C51	C5	0.639200	0.963600	0.253200
C61	C6	0.212500	0.087300	0.683300
C71	C7	0.315200	0.486300	0.740200
C81	C8	0.929000	0.659200	0.208500
C91	C9	0.657700	0.053800	0.595000
C101	C10	0.206500	0.294200	0.726000
C111	C11	0.407200	0.156100	0.721500
C121	C12	0.706500	0.794200	0.774000
C131	C13	0.101300	0.136500	0.187800
C141	C14	0.126300	0.498900	0.003700
C151	C15	0.360800	0.036400	0.746800
C161	C16	0.578400	0.024300	0.545500
C171	C17	0.184800	0.013700	0.240200
C181	C18	0.842300	0.446200	0.095000
C191	C19	0.149900	0.613400	0.672200
C201	C20	0.536600	0.109900	0.790400
C211	C21	0.626300	0.998900	0.496300
C221	C22	0.071000	0.340800	0.791500
C231	C23	0.167400	0.407200	0.216000
C241	C24	0.873700	0.501100	0.996300
C251	C25	0.357100	0.094400	0.285000
C261	C26	0.423200	0.763300	0.231500
C271	C27	0.507800	0.165900	0.759000
C281	C28	0.342300	0.946200	0.405000
C291	C29	0.463300	0.045700	0.784000
C301	C30	0.850100	0.386600	0.327800
C311	C31	0.157700	0.553800	0.905000
C321	C32	0.046300	0.664300	0.173900
C331	C33	0.546300	0.164300	0.326100
C341	C34	0.078400	0.524300	0.954500
C351	C35	0.465000	0.286300	0.270900
C361	C36	0.761200	0.991900	0.490300
C371	C37	0.450800	0.024900	0.548900
C381	C38	0.907200	0.656100	0.778500
C391	C39	0.291200	0.965000	0.739100
C401	C40	0.857100	0.594400	0.215000
C411	C41	0.603100	0.784900	0.737900
C421	C42	0.549200	0.975100	0.451100
C431	C43	0.332600	0.092800	0.716000
C441	C44	0.787500	0.912700	0.316700
C451	C45	0.293500	0.205800	0.226000
C461	C46	0.396900	0.215100	0.262100
C471	C47	0.221100	0.141600	0.219900
C481	C48	0.398700	0.363500	0.687800
C491	C49	0.923200	0.263300	0.268500
C501	C50	0.421600	0.975700	0.454500
C511	C51	0.103100	0.284900	0.762100
C521	C52	0.535000	0.713700	0.729100
C531	C53	0.953700	0.335700	0.826100
C541	C54	0.963300	0.545700	0.716000
C551	C55	0.238800	0.008100	0.509700
C561	C56	0.139200	0.463600	0.246800
C571	C57	0.815200	0.986300	0.759800
C581	C58	0.453700	0.835700	0.673900
C591	C59	0.036700	0.454300	0.284000
C601	C60	0.747200	0.915000	0.750300
C611	C61	0.992200	0.334100	0.259000
C621	C62	0.287500	0.412700	0.183300
C631	C63	0.576800	0.236700	0.768500
C641	C64	0.463400	0.890100	0.209600
C651	C65	0.208800	0.535000	0.239100
C661	C66	0.965000	0.786300	0.229100
C671	C67	0.035000	0.213700	0.770900
C681	C68	0.712500	0.587300	0.816700
C691	C69	0.252800	0.085000	0.249700
C701	C70	0.429000	0.159200	0.291500
C711	C71	0.350100	0.886600	0.172200
C721	C72	0.092800	0.343900	0.221500
C731	C73	0.778900	0.858400	0.780100
C741	C74	0.708800	0.035000	0.260900
C751	C75	0.571000	0.840800	0.708500
C761	C76	0.142900	0.405600	0.785000
C771	C77	0.247200	0.415000	0.749700
C781	C78	0.896900	0.715100	0.237900
C791	C79	0.950800	0.524900	0.951100
C801	C80	0.721100	0.641600	0.280100
C811	C81	0.832600	0.592800	0.784000
C821	C82	0.667400	0.907200	0.284000
C831	C83	0.963400	0.390100	0.290400
C841	C84	0.373700	0.001100	0.503700
C851	C85	0.049200	0.475100	0.048900
C861	C86	0.536700	0.954300	0.216000
C871	C87	0.642900	0.905600	0.715000
C881	C88	0.793500	0.705800	0.274000
C891	C89	0.007800	0.665900	0.741000
C901	C90	0.492200	0.834100	0.241000
C911	C91	0.278900	0.358400	0.719900
C921	C92	0.684800	0.513700	0.259800
C931	C93	0.601300	0.636500	0.312200
C941	C94	0.860800	0.536400	0.753200
C951	C95	0.076800	0.736700	0.731500
C961	C96	0.649900	0.113400	0.827800
C971	C97	0.738800	0.508100	0.990300
C981	C98	0.921600	0.475700	0.045500
C991	C99	0.036600	0.609900	0.709600
C1001	C100	0.261200	0.491900	0.009700
O11	O1	0.720200	0.345000	0.186800
O21	O2	0.089900	0.778000	0.772900
O31	O3	0.275800	0.943790	0.688000
O41	O4	0.329100	0.899700	0.919000
O51	O5	0.093500	0.172300	0.144300
O61	O6	0.769700	0.150100	0.415700
O71	O7	0.772900	0.060300	0.589200
O81	O8	0.826400	0.006500	0.811600
O91	O9	0.992000	0.903400	0.791500
O101	O10	0.227100	0.939700	0.410800
O111	O11	0.752100	0.133500	0.802600
O121	O12	0.240100	0.570000	0.283600
O131	O13	0.070700	0.067900	0.819200
O141	O14	0.473300	0.326700	0.228700
O151	O15	0.660400	0.195300	0.177000
O161	O16	0.670900	0.100300	0.081000
O171	O17	0.992700	0.197000	0.820410
O181	O18	0.279800	0.655000	0.813200
O191	O19	0.361900	0.906200	0.121600
O201	O20	0.203800	0.122600	0.638700
O211	O21	0.618900	0.549000	0.795700
O221	O22	0.259900	0.930000	0.783600
O231	O23	0.517000	0.612900	0.961500
O241	O24	0.355600	0.821100	0.703240
O251	O25	0.881100	0.951000	0.295700
O261	O26	0.526700	0.673300	0.771300
O271	O27	0.114200	0.905700	0.084200
O281	O28	0.605300	0.072000	0.638600
O291	O29	0.224200	0.556210	0.188000
O301	O30	0.775800	0.443790	0.812000
O311	O31	0.138100	0.593800	0.621600
O321	O32	0.376700	0.767400	0.393200
O331	O33	0.977100	0.982000	0.602450
O341	O34	0.269700	0.650100	0.084300
O351	O35	0.381100	0.451000	0.204300
O361	O36	0.123300	0.732600	0.893200
O371	O37	0.521500	0.277000	0.108300
O381	O38	0.105300	0.572000	0.861400
O391	O39	0.894700	0.428000	0.138600
O401	O40	0.394700	0.928000	0.361400
O411	O41	0.614300	0.253200	0.818860
O421	O42	0.492700	0.697000	0.679590
O431	O43	0.160400	0.695300	0.323000
O441	O44	0.039200	0.650900	0.121400
O451	O45	0.759900	0.430000	0.716400
O461	O46	0.147200	0.978200	0.283400
O471	O47	0.876700	0.267400	0.106800
O481	O48	0.570700	0.567900	0.680800
O491	O49	0.483000	0.387100	0.038500
O501	O50	0.272900	0.560300	0.910800
O511	O51	0.220200	0.845000	0.313200
O521	O52	0.673600	0.493500	0.311600
O531	O53	0.852800	0.021800	0.716600
O541	O54	0.960800	0.349100	0.878600
O551	O55	0.970400	0.120300	0.321100
O561	O56	0.529600	0.379700	0.821100
O571	O57	0.973300	0.826700	0.271300
O581	O58	0.978500	0.223000	0.608300
O591	O59	0.522900	0.518000	0.102450
O601	O60	0.007300	0.803000	0.179590
O611	O61	0.022900	0.018000	0.397550
O621	O62	0.460800	0.849100	0.621400
O631	O63	0.797600	0.941400	0.512600
O641	O64	0.425300	0.658200	0.460700
O651	O65	0.702400	0.558600	0.012600
O661	O66	0.507300	0.303000	0.320410
O671	O67	0.779800	0.155000	0.686800
O681	O68	0.724200	0.056210	0.312000
O691	O69	0.144400	0.678900	0.203240
O701	O70	0.108500	0.965300	0.895700
O711	O71	0.589900	0.278000	0.727100
O721	O72	0.910100	0.222000	0.227100
O731	O73	0.252100	0.633500	0.697400
O741	O74	0.202400	0.058600	0.487400
O751	O75	0.539200	0.150900	0.378600
O761	O76	0.593500	0.672300	0.355700
O771	O77	0.385800	0.594300	0.584200
O781	O78	0.623300	0.232600	0.606800
O791	O79	0.730300	0.349900	0.915700
O801	O80	0.391500	0.534700	0.395700
O811	O81	0.508000	0.596600	0.291500
O821	O82	0.329600	0.537000	0.039700
O831	O83	0.008000	0.096600	0.208500
O841	O84	0.727100	0.439700	0.089200
O851	O85	0.406500	0.327700	0.644300
O861	O86	0.170400	0.963000	0.539700
O871	O87	0.855600	0.321100	0.796760
O881	O88	0.644400	0.178900	0.296760
O891	O89	0.614200	0.405700	0.415800
O901	O90	0.173600	0.993500	0.188400
O911	O91	0.492000	0.403400	0.708500
O921	O92	0.478500	0.723000	0.891700
O931	O93	0.829600	0.037000	0.460300
O941	O94	0.026700	0.173300	0.728700
O951	O95	0.021500	0.777000	0.391700
O961	O96	0.017000	0.112900	0.538500
O971	O97	0.703800	0.622600	0.861300
O981	O98	0.747900	0.366500	0.302600
O991	O99	0.114300	0.753200	0.681140
O1001	O100	0.170900	0.600300	0.419000
O1011	O101	0.410100	0.722000	0.272900
O1021	O102	0.839600	0.304700	0.677000
O1031	O103	0.829100	0.399700	0.581000
O1041	O104	0.638100	0.093800	0.878400
O1051	O105	0.983000	0.887100	0.461500
O1061	O106	0.029600	0.879700	0.678900
O1071	O107	0.429300	0.432100	0.319200
O1081	O108	0.074700	0.841800	0.960700
O1091	O109	0.477100	0.482000	0.897550
O1101	O110	0.647200	0.478200	0.216600
O1111	O111	0.906500	0.827700	0.855700
O1121	O112	0.796200	0.877400	0.361300
O1131	O113	0.670400	0.463000	0.960300
O1141	O114	0.574700	0.341800	0.539300
O1151	O115	0.929300	0.932100	0.180800
O1161	O116	0.385700	0.746800	0.181140
O1171	O117	0.470400	0.620300	0.178900
O1181	O118	0.230300	0.849900	0.584300
O1191	O119	0.247900	0.866500	0.197400
O1201	O120	0.296200	0.377400	0.138700
O1211	O121	0.885700	0.246800	0.318860
O1221	O122	0.326400	0.506500	0.688400
O1231	O123	0.352800	0.521800	0.783400
O1241	O124	0.740100	0.070000	0.216400
O1251	O125	0.297600	0.441400	0.987400
O1261	O126	0.339600	0.804700	0.823000
O1271	O127	0.861900	0.406200	0.378400
O1281	O128	0.885800	0.094300	0.915800
O1291	O129	0.925300	0.158200	0.039300
O1301	O130	0.608500	0.465300	0.604300
O1311	O131	0.891500	0.034700	0.104300
O1321	O132	0.118900	0.049000	0.704300
