data_VIWLEU_freeONLY_PM
_symmetry_space_group_name_H-M	'P1'
_cell_length_a	10.923000
_cell_length_b	19.758000
_cell_length_c	22.771000
_cell_angle_alpha	90.000000
_cell_angle_beta	90.000000
_cell_angle_gamma	99.640000
_symmetry_Int_Tables_number 1

loop_
_symmetry_equiv_pos_as_xyz
'x,y,z'

loop_
_atom_site_label
_atom_site_type_symbol
_atom_site_fract_x
_atom_site_fract_y
_atom_site_fract_z
Sm11	Sm1	0.853340	0.147340	0.146440
Sm21	Sm2	0.459210	0.599910	0.853120
Sm31	Sm3	0.959210	0.099910	0.646880
Sm41	Sm4	0.040790	0.900090	0.353120
Sm51	Sm5	0.353340	0.647340	0.353560
Sm61	Sm6	0.146660	0.852660	0.853560
Sm71	Sm7	0.646660	0.352660	0.646440
Sm81	Sm8	0.540790	0.400090	0.146870
Cu11	Cu1	0.695150	0.346620	0.822790
Cu21	Cu2	0.195150	0.846620	0.677210
Cu31	Cu3	0.304850	0.653380	0.177210
Cu41	Cu4	0.804850	0.153380	0.322790
Cu51	Cu5	0.590790	0.399740	0.323960
Cu61	Cu6	0.090790	0.899740	0.176040
Cu71	Cu7	0.409210	0.600260	0.676040
Cu81	Cu8	0.909210	0.100260	0.823960
H11	H1	0.418200	0.045600	0.581700
H21	H2	0.727700	0.756600	0.796200
H31	H3	0.120500	0.442200	0.804500
H41	H4	0.272300	0.243400	0.203800
H51	H5	0.019900	0.493800	0.305500
H61	H6	0.111600	0.308800	0.199200
H71	H7	0.888400	0.691200	0.800800
H81	H8	0.620500	0.942200	0.695500
H91	H9	0.581800	0.954400	0.418300
H101	H10	0.388400	0.191200	0.699200
H111	H11	0.081800	0.454400	0.081700
H121	H12	0.980100	0.506200	0.694500
H131	H13	0.227700	0.256600	0.703800
H141	H14	0.879500	0.557800	0.195500
H151	H15	0.772300	0.743400	0.296200
H161	H16	0.379500	0.057800	0.304500
H171	H17	0.918200	0.545600	0.918300
H181	H18	0.480100	0.006200	0.805500
H191	H19	0.611600	0.808800	0.300800
H201	H20	0.519900	0.993800	0.194500
C11	C1	0.034500	0.607700	0.709000
C21	C2	0.993400	0.336400	0.259100
C31	C3	0.829200	0.590000	0.785000
C41	C4	0.454000	0.834800	0.673100
C51	C5	0.658400	0.057100	0.594600
C61	C6	0.670800	0.910000	0.285000
C71	C7	0.594300	0.845800	0.278900
C81	C8	0.711000	0.036900	0.261100
C91	C9	0.789000	0.463100	0.761100
C101	C10	0.039000	0.456700	0.284400
C111	C11	0.493400	0.836400	0.240900
C121	C12	0.357100	0.095300	0.285100
C131	C13	0.963800	0.787500	0.229400
C141	C14	0.961000	0.543300	0.715600
C151	C15	0.575100	0.234900	0.769100
C161	C16	0.539000	0.956700	0.215600
C171	C17	0.006600	0.663600	0.740900
C181	C18	0.315800	0.486000	0.739700
C191	C19	0.289000	0.963100	0.738900
C201	C20	0.405700	0.154200	0.721100
C211	C21	0.549200	0.972800	0.451200
C221	C22	0.571200	0.840000	0.707800
C231	C23	0.141200	0.466100	0.246600
C241	C24	0.578700	0.026600	0.545800
C251	C25	0.396200	0.216400	0.262000
C261	C26	0.841600	0.442900	0.094600
C271	C27	0.747300	0.913900	0.750600
C281	C28	0.900600	0.862600	0.812700
C291	C29	0.075100	0.734900	0.730900
C301	C30	0.921300	0.473400	0.045800
C311	C31	0.071200	0.340000	0.792200
C321	C32	0.341600	0.942900	0.405400
C331	C33	0.779900	0.858000	0.780500
C341	C34	0.184200	0.014000	0.239700
C351	C35	0.208400	0.085100	0.682300
C361	C36	0.099400	0.137400	0.187300
C371	C37	0.905700	0.654200	0.778900
C381	C38	0.791600	0.914900	0.317700
C391	C39	0.450800	0.027200	0.548800
C401	C40	0.924900	0.265100	0.269100
C411	C41	0.358800	0.033900	0.746600
C421	C42	0.599400	0.637400	0.312700
C431	C43	0.954000	0.334800	0.826900
C441	C44	0.707300	0.793400	0.775000
C451	C45	0.506600	0.163600	0.759100
C461	C46	0.262700	0.492600	0.010100
C471	C47	0.373200	0.001400	0.504200
C481	C48	0.950800	0.527200	0.951200
C491	C49	0.126800	0.498600	0.004200
C501	C50	0.752700	0.586100	0.250600
C511	C51	0.252700	0.086100	0.249400
C521	C52	0.237300	0.007400	0.510100
C531	C53	0.292700	0.206600	0.225000
C541	C54	0.078700	0.526600	0.954200
C551	C55	0.147700	0.611100	0.670300
C561	C56	0.291600	0.414900	0.182300
C571	C57	0.211000	0.536900	0.238900
C581	C58	0.352300	0.888900	0.170300
C591	C59	0.792700	0.706600	0.275000
C601	C60	0.720100	0.642000	0.280500
C611	C61	0.737300	0.507400	0.989900
C621	C62	0.428800	0.160000	0.292200
C631	C63	0.857100	0.595300	0.214900
C641	C64	0.158400	0.557100	0.905400
C651	C65	0.049200	0.472800	0.048800
C661	C66	0.536200	0.712500	0.729400
C671	C67	0.815800	0.986000	0.760300
C681	C68	0.684200	0.514000	0.260300
C691	C69	0.220100	0.142000	0.219500
C701	C70	0.708400	0.585100	0.817700
C711	C71	0.641200	0.966100	0.253400
C721	C72	0.400600	0.362600	0.687300
C731	C73	0.965500	0.392300	0.291000
C741	C74	0.046000	0.665200	0.173100
C751	C75	0.247300	0.413900	0.749400
C761	C76	0.642900	0.904700	0.714900
C771	C77	0.142900	0.404700	0.785100
C781	C78	0.762700	0.992600	0.489900
C791	C79	0.546000	0.165200	0.326900
C801	C80	0.463800	0.287500	0.270600
C811	C81	0.603800	0.783600	0.738000
C821	C82	0.852300	0.388900	0.329700
C831	C83	0.421300	0.973400	0.454200
C841	C84	0.873200	0.501400	0.995800
C851	C85	0.461000	0.043300	0.784400
C861	C86	0.896200	0.716400	0.238000
C871	C87	0.279900	0.358000	0.719500
C881	C88	0.858800	0.533900	0.753400
C891	C89	0.036200	0.212500	0.770600
C901	C90	0.647700	0.111100	0.829700
C911	C91	0.928800	0.660000	0.207800
C921	C92	0.207300	0.293400	0.725000
C931	C93	0.626800	0.998600	0.495800
C941	C94	0.534500	0.107700	0.791000
C951	C95	0.103800	0.283600	0.762000
C961	C96	0.094300	0.345800	0.221100
C971	C97	0.424900	0.765100	0.230900
C981	C98	0.465500	0.892300	0.209000
C991	C99	0.329200	0.090000	0.715000
C1001	C100	0.170800	0.410000	0.215000
O11	O1	0.412400	0.723900	0.273400
O21	O2	0.392900	0.540200	0.395700
O31	O3	0.006700	0.803700	0.178400
O41	O4	0.027400	0.877400	0.676500
O51	O5	0.892500	0.420900	0.137700
O61	O6	0.724600	0.438300	0.090300
O71	O7	0.201400	0.059500	0.487800
O81	O8	0.227900	0.557800	0.186500
O91	O9	0.529000	0.671200	0.771500
O101	O10	0.775400	0.061700	0.590300
O111	O11	0.168500	0.962000	0.539500
O121	O12	0.715300	0.345300	0.188200
O131	O13	0.525300	0.517300	0.104400
O141	O14	0.911200	0.826600	0.856900
O151	O15	0.538500	0.151900	0.380500
O161	O16	0.427800	0.433400	0.321400
O171	O17	0.215300	0.845300	0.311800
O181	O18	0.575100	0.339500	0.540700
O191	O19	0.250400	0.631700	0.694700
O201	O20	0.494500	0.401300	0.709100
O211	O21	0.284700	0.654700	0.811800
O221	O22	0.038500	0.651900	0.119500
O231	O23	0.301000	0.379600	0.137400
O241	O24	0.506700	0.303700	0.321600
O251	O25	0.480500	0.719000	0.890400
O261	O26	0.994500	0.901300	0.790900
O271	O27	0.645100	0.180300	0.298300
O281	O28	0.321800	0.896400	0.917300
O291	O29	0.392500	0.920900	0.362300
O301	O30	0.759100	0.426900	0.716600
O311	O31	0.472600	0.622600	0.176500
O321	O32	0.350900	0.522300	0.783200
O331	O33	0.029000	0.171200	0.728500
O341	O34	0.333000	0.802300	0.823300
O351	O35	0.199000	0.120400	0.637400
O361	O36	0.769000	0.152900	0.419400
O371	O37	0.971000	0.828800	0.271500
O381	O38	0.607100	0.459800	0.604300
O391	O39	0.474700	0.482700	0.895600
O401	O40	0.005500	0.098700	0.209100
O411	O41	0.731000	0.347100	0.919400
O421	O42	0.588800	0.673400	0.356900
O431	O43	0.821800	0.396400	0.582700
O441	O44	0.527400	0.377400	0.823500
O451	O45	0.019500	0.781000	0.390400
O461	O46	0.614900	0.547400	0.795500
O471	O47	0.172500	0.995000	0.187200
O481	O48	0.887900	0.249500	0.320300
O491	O49	0.886600	0.093600	0.921200
O501	O50	0.727900	0.057800	0.313500
O511	O51	0.750400	0.131700	0.805300
O521	O52	0.298600	0.440500	0.987800
O531	O53	0.883200	0.263700	0.104900
O541	O54	0.354900	0.819700	0.701700
O551	O55	0.519500	0.281000	0.109600
O561	O56	0.134700	0.591100	0.619100
O571	O57	0.331500	0.538000	0.039500
O581	O58	0.107500	0.579100	0.862300
O591	O59	0.634700	0.091100	0.880900
O601	O60	0.987800	0.889300	0.459100
O611	O61	0.831500	0.038000	0.460500
O621	O62	0.327500	0.505000	0.687200
O631	O63	0.699000	0.620400	0.862600
O641	O64	0.993300	0.196300	0.821600
O651	O65	0.088800	0.173400	0.143100
O661	O66	0.411200	0.326600	0.643100
O671	O67	0.505500	0.598700	0.290900
O681	O68	0.892900	0.040200	0.104300
O691	O69	0.269000	0.652900	0.080600
O701	O70	0.116800	0.736300	0.895100
O711	O71	0.259100	0.926900	0.783400
O721	O72	0.231000	0.847100	0.580600
O731	O73	0.149100	0.977700	0.283200
O741	O74	0.833000	0.302300	0.676700
O751	O75	0.885100	0.952600	0.295500
O761	O76	0.167000	0.697700	0.323300
O771	O77	0.107100	0.959800	0.895700
O781	O78	0.386600	0.593600	0.578800
O791	O79	0.672500	0.495000	0.312800
O801	O80	0.980500	0.219000	0.609600
O811	O81	0.784700	0.154700	0.688200
O821	O82	0.649100	0.477700	0.216800
O831	O83	0.025300	0.017300	0.395600
O841	O84	0.487800	0.389300	0.040900
O851	O85	0.145100	0.680300	0.201700
O861	O86	0.249600	0.868300	0.194700
O871	O87	0.927800	0.933400	0.178600
O881	O88	0.240900	0.573100	0.283400
O891	O89	0.113400	0.906400	0.078800
O901	O90	0.387900	0.749500	0.179700
O911	O91	0.607500	0.079100	0.637700
O921	O92	0.772100	0.442200	0.813500
O931	O93	0.668500	0.462000	0.960500
O941	O94	0.424900	0.660500	0.459300
O951	O95	0.112100	0.750500	0.679700
O961	O96	0.974700	0.982700	0.604400
O971	O97	0.012200	0.110700	0.540900
O981	O98	0.087600	0.776100	0.773400
O991	O99	0.365300	0.908900	0.119100
O1001	O100	0.749600	0.368300	0.305300
O1011	O101	0.275400	0.561700	0.909700
O1021	O102	0.224600	0.938300	0.409700
O1031	O103	0.678200	0.103600	0.082700
O1041	O104	0.701400	0.559500	0.012200
O1051	O105	0.385100	0.452600	0.204500
O1061	O106	0.493300	0.696300	0.678400
O1071	O107	0.072200	0.066600	0.821400
O1081	O108	0.383200	0.763700	0.395100
O1091	O109	0.667000	0.197700	0.176700
O1101	O110	0.114900	0.047400	0.704500
O1111	O111	0.827500	0.005000	0.812800
O1121	O112	0.178200	0.603600	0.417300
O1131	O113	0.972600	0.122600	0.323500
O1141	O114	0.924900	0.160500	0.040700
O1151	O115	0.272100	0.942200	0.686500
O1161	O116	0.912400	0.223900	0.226600
O1171	O117	0.512200	0.610700	0.959100
O1181	O118	0.587600	0.276100	0.726600
O1191	O119	0.850900	0.022300	0.716800
O1201	O120	0.961500	0.348100	0.880500
O1211	O121	0.854900	0.319700	0.798300
O1221	O122	0.471000	0.328800	0.228500
O1231	O123	0.801000	0.879600	0.362600
O1241	O124	0.798600	0.940500	0.512200
O1251	O125	0.075100	0.839500	0.959300
O1261	O126	0.612100	0.250500	0.820300
O1271	O127	0.865300	0.408900	0.380900
O1281	O128	0.616800	0.236300	0.604900
O1291	O129	0.740900	0.073100	0.216600
O1301	O130	0.572200	0.566600	0.678600
O1311	O131	0.461500	0.848100	0.619500
O1321	O132	0.613400	0.406400	0.421200
