data_VIXTUT_freeONLY_PM
_symmetry_space_group_name_H-M	'P1'
_cell_length_a	10.895000
_cell_length_b	13.052000
_cell_length_c	13.536000
_cell_angle_alpha	90.000000
_cell_angle_beta	95.740000
_cell_angle_gamma	90.000000
_symmetry_Int_Tables_number 1

loop_
_symmetry_equiv_pos_as_xyz
'x,y,z'

loop_
_atom_site_label
_atom_site_type_symbol
_atom_site_fract_x
_atom_site_fract_y
_atom_site_fract_z
Zn11	Zn1	0.701010	0.119750	0.172660
Zn21	Zn2	0.201010	0.380250	0.672660
H11	H1	0.922000	0.797100	0.116300
H21	H2	0.923400	0.180600	0.511800
H31	H3	0.735500	0.014400	0.374700
H41	H4	0.030600	0.268500	0.346700
H51	H5	0.422000	0.702900	0.616300
H61	H6	0.530600	0.231500	0.846700
H71	H7	0.451400	0.026700	0.172500
H81	H8	0.922600	0.657900	0.008900
H91	H9	0.818200	0.672000	0.917800
H101	H10	0.340600	0.917500	0.263100
H111	H11	0.748600	0.080500	0.957200
H121	H12	0.031800	0.124600	0.460400
H131	H13	0.840600	0.582500	0.763100
H141	H14	0.339800	0.541700	0.366300
H151	H15	0.423400	0.319400	0.011800
H161	H16	0.839800	0.958300	0.866300
H171	H17	0.235500	0.485600	0.874700
H181	H18	0.951400	0.473300	0.672500
H191	H19	0.410100	0.190200	0.892400
H201	H20	0.542500	0.713600	0.441400
H211	H21	0.328600	0.577900	0.701400
H221	H22	0.042500	0.786400	0.941400
H231	H23	0.910100	0.309800	0.392400
H241	H24	0.129000	0.592000	0.971600
H251	H25	0.938000	0.800600	0.850900
H261	H26	0.318200	0.828000	0.417800
H271	H27	0.531800	0.375400	0.960400
H281	H28	0.629000	0.908000	0.471600
H291	H29	0.438000	0.699400	0.350900
H301	H30	0.828600	0.922100	0.201400
H311	H31	0.248600	0.419500	0.457200
H321	H32	0.422600	0.842100	0.508900
C11	C1	0.330800	0.570130	0.631850
C21	C2	0.908100	0.675860	0.937700
C31	C3	0.952500	0.783580	0.922350
C41	C4	0.784200	0.021830	0.990370
C51	C5	0.386400	0.645110	0.581630
C61	C6	0.390800	0.636740	0.480530
C71	C7	0.376600	0.317550	0.805200
C81	C8	0.973500	0.600650	0.878070
C91	C9	0.886400	0.854890	0.081630
C101	C10	0.489000	0.001060	0.233930
C111	C11	0.589700	0.244130	0.035260
C121	C12	0.089700	0.255870	0.535260
C131	C13	0.408100	0.824140	0.437700
C141	C14	0.838500	0.949090	0.935770
C151	C15	0.890800	0.863260	0.980530
C161	C16	0.590800	0.930600	0.409280
C171	C17	0.922100	0.563440	0.787770
C181	C18	0.653800	0.994470	0.351390
C191	C19	0.989000	0.498940	0.733930
C201	C20	0.338500	0.550910	0.435770
C211	C21	0.495900	0.307870	0.974470
C221	C22	0.090800	0.569400	0.909280
C231	C23	0.452500	0.716420	0.422350
C241	C24	0.830800	0.929870	0.131850
C251	C25	0.456100	0.252880	0.877730
C261	C26	0.284200	0.478170	0.490370
C271	C27	0.422100	0.936560	0.287770
C281	C28	0.995900	0.192130	0.474470
C291	C29	0.473500	0.899350	0.378070
C301	C30	0.956100	0.247120	0.377730
C311	C31	0.876600	0.182450	0.305200
C321	C32	0.153800	0.505530	0.851390
N11	N1	0.604390	0.029580	0.263530
N21	N2	0.279460	0.486660	0.588580
N31	N3	0.779460	0.013340	0.088580
N41	N4	0.104390	0.470420	0.763530
O11	O1	0.287330	0.273990	0.754840
O21	O2	0.899650	0.089860	0.296000
O31	O3	0.698020	0.243140	0.016140
O41	O4	0.399650	0.410140	0.796000
O51	O5	0.553480	0.189210	0.104850
O61	O6	0.787330	0.226010	0.254840
O71	O7	0.198020	0.256860	0.516140
O81	O8	0.053480	0.310790	0.604850
Zn31	Zn3	0.298990	0.880250	0.827340
Zn41	Zn4	0.798990	0.619750	0.327340
H331	H33	0.078000	0.202900	0.883700
H341	H34	0.077400	0.342100	0.991100
H351	H35	0.764500	0.514400	0.125300
H361	H36	0.969400	0.731500	0.653300
H371	H37	0.171400	0.077900	0.798600
H381	H38	0.048600	0.526700	0.327500
H391	H39	0.160200	0.041700	0.133700
H401	H40	0.577400	0.157900	0.491100
H411	H41	0.468200	0.624600	0.039600
H421	H42	0.548600	0.973300	0.827500
H431	H43	0.957500	0.213600	0.058600
H441	H44	0.659400	0.082500	0.736900
H451	H45	0.159400	0.417500	0.236900
H461	H46	0.062000	0.199400	0.149100
H471	H47	0.251400	0.919500	0.042800
H481	H48	0.681800	0.172000	0.582200
H491	H49	0.264500	0.985600	0.625300
H501	H50	0.871000	0.408000	0.028400
H511	H51	0.968200	0.875400	0.539600
H521	H52	0.457500	0.286400	0.558600
H531	H53	0.589900	0.809800	0.107600
H541	H54	0.562000	0.300600	0.649100
H551	H55	0.671400	0.422100	0.298600
H561	H56	0.371000	0.092000	0.528400
H571	H57	0.660200	0.458300	0.633700
H581	H58	0.181800	0.328000	0.082200
H591	H59	0.751400	0.580500	0.542800
H601	H60	0.089900	0.690200	0.607600
H611	H61	0.576600	0.680600	0.988200
H621	H62	0.578000	0.297100	0.383700
H631	H63	0.076600	0.819400	0.488200
H641	H64	0.469400	0.768500	0.153300
C331	C33	0.047500	0.216420	0.077650
C341	C34	0.113600	0.145110	0.918370
C351	C35	0.623400	0.682450	0.194800
C361	C36	0.123400	0.817550	0.694800
C371	C37	0.547500	0.283580	0.577650
C381	C38	0.004100	0.807870	0.525530
C391	C39	0.091900	0.324140	0.062300
C401	C40	0.077900	0.436560	0.212230
C411	C41	0.526500	0.100650	0.621930
C421	C42	0.215800	0.978170	0.009630
C431	C43	0.669200	0.429870	0.368150
C441	C44	0.346200	0.005530	0.648610
C451	C45	0.504100	0.692130	0.025530
C461	C46	0.543900	0.747120	0.122270
C471	C47	0.011000	0.501060	0.266070
C481	C48	0.909200	0.430600	0.090720
C491	C49	0.109200	0.136740	0.019470
C501	C50	0.169200	0.070130	0.868150
C511	C51	0.026500	0.399350	0.121930
C521	C52	0.846200	0.494470	0.148610
C531	C53	0.409200	0.069400	0.590720
C541	C54	0.043900	0.752880	0.622270
C551	C55	0.715800	0.521830	0.509630
C561	C56	0.609200	0.363260	0.519470
C571	C57	0.613600	0.354890	0.418370
C581	C58	0.511000	0.998940	0.766070
C591	C59	0.661500	0.449090	0.564230
C601	C60	0.410300	0.755870	0.964740
C611	C61	0.591900	0.175860	0.562300
C621	C62	0.910300	0.744130	0.464740
C631	C63	0.577900	0.063440	0.712230
C641	C64	0.161500	0.050910	0.064230
N51	N5	0.720540	0.513340	0.411420
N61	N6	0.895610	0.529580	0.236470
N71	N7	0.220540	0.986660	0.911420
N81	N8	0.395610	0.970420	0.736470
O91	O9	0.801980	0.743140	0.483860
O101	O10	0.100350	0.910140	0.704000
O111	O11	0.212670	0.773990	0.745160
O121	O12	0.446520	0.810790	0.895150
O131	O13	0.712670	0.726010	0.245160
O141	O14	0.946520	0.689210	0.395150
O151	O15	0.600350	0.589860	0.204000
O161	O16	0.301980	0.756860	0.983860
