data_VIXVUV_freeONLY_PM
_symmetry_space_group_name_H-M	'P1'
_cell_length_a	10.508100
_cell_length_b	12.296000
_cell_length_c	16.671400
_cell_angle_alpha	90.000000
_cell_angle_beta	90.000000
_cell_angle_gamma	90.000000
_symmetry_Int_Tables_number 1

loop_
_symmetry_equiv_pos_as_xyz
'x,y,z'

loop_
_atom_site_label
_atom_site_type_symbol
_atom_site_fract_x
_atom_site_fract_y
_atom_site_fract_z
Zn11	Zn1	0.400950	0.250000	0.750000
Zn21	Zn2	0.599050	0.750000	0.250000
H11	H1	0.567800	0.972900	0.632500
H21	H2	0.432200	0.472900	0.132500
H31	H3	0.095900	0.554300	0.455000
H41	H4	0.126400	0.941100	0.837000
H51	H5	0.390100	0.943600	0.519400
H61	H6	0.077100	0.210800	0.966400
H71	H7	0.040000	0.440300	0.431400
H81	H8	0.316600	0.543100	0.104900
H91	H9	0.761000	0.710100	0.104500
H101	H10	0.567800	0.527100	0.867500
H111	H11	0.609900	0.056400	0.480600
H121	H12	0.095900	0.945700	0.045000
H131	H13	0.239000	0.289900	0.895500
H141	H14	0.904100	0.054300	0.955000
H151	H15	0.280800	0.469700	0.734900
H161	H16	0.761000	0.789900	0.395500
H171	H17	0.683400	0.456900	0.895100
H181	H18	0.719200	0.969700	0.234900
H191	H19	0.683400	0.043100	0.604900
H201	H20	0.432200	0.027100	0.367500
H211	H21	0.719200	0.530300	0.265100
H221	H22	0.040000	0.059700	0.068600
H231	H23	0.239000	0.210100	0.604500
H241	H24	0.606500	0.933900	0.504800
H251	H25	0.606500	0.566100	0.995200
H261	H26	0.960000	0.559700	0.568600
H271	H27	0.390100	0.556400	0.980600
H281	H28	0.873600	0.058900	0.163000
H291	H29	0.280800	0.030300	0.765100
H301	H30	0.609900	0.443600	0.019400
H311	H31	0.904100	0.445700	0.545000
H321	H32	0.393500	0.433900	0.004800
H331	H33	0.960000	0.940300	0.931400
H341	H34	0.077100	0.289200	0.533600
H351	H35	0.922900	0.789200	0.033600
H361	H36	0.873600	0.441100	0.337000
H371	H37	0.316600	0.956900	0.395100
H381	H38	0.126400	0.558900	0.663000
H391	H39	0.922900	0.710800	0.466400
H401	H40	0.393500	0.066100	0.495200
C11	C1	0.019900	0.509600	0.456200
C21	C2	0.785900	0.719500	0.382600
C31	C3	0.214100	0.219500	0.882600
C41	C4	0.980100	0.490400	0.543800
C51	C5	0.118300	0.328000	0.573900
C61	C6	0.592200	0.034100	0.599200
C71	C7	0.760200	0.566900	0.306500
C81	C8	0.881700	0.828000	0.073900
C91	C9	0.239800	0.433100	0.693500
C101	C10	0.980100	0.009600	0.956200
C111	C11	0.118300	0.172000	0.926100
C121	C12	0.760200	0.933100	0.193500
C131	C13	0.470000	0.633100	0.132900
C141	C14	0.146100	0.487100	0.650600
C151	C15	0.239800	0.066900	0.806500
C161	C16	0.881700	0.672000	0.426100
C171	C17	0.566500	0.496200	0.985700
C181	C18	0.407800	0.534100	0.099200
C191	C19	0.530000	0.366900	0.867100
C201	C20	0.214100	0.280500	0.617400
C211	C21	0.083100	0.064300	0.909400
C221	C22	0.853900	0.512900	0.349400
C231	C23	0.566500	0.003800	0.514300
C241	C24	0.407800	0.965900	0.400800
C251	C25	0.916900	0.935700	0.090600
C261	C26	0.146100	0.012900	0.849400
C271	C27	0.853900	0.987100	0.150600
C281	C28	0.916900	0.564300	0.409400
C291	C29	0.592200	0.465900	0.900800
C301	C30	0.019900	0.990400	0.043800
C311	C31	0.785900	0.780500	0.117400
C321	C32	0.083100	0.435700	0.590600
C331	C33	0.433500	0.996200	0.485700
C341	C34	0.433500	0.503800	0.014300
C351	C35	0.470000	0.866900	0.367100
C361	C36	0.530000	0.133100	0.632900
N11	N1	0.726800	0.831300	0.177790
N21	N2	0.273200	0.331300	0.677790
N31	N3	0.273200	0.168700	0.822210
N41	N4	0.726800	0.668700	0.322210
O11	O1	0.456100	0.778200	0.402800
O21	O2	0.523300	0.872900	0.300450
O31	O3	0.543900	0.278200	0.902800
O41	O4	0.476700	0.372900	0.800450
O51	O5	0.476700	0.127100	0.699550
O61	O6	0.456100	0.721800	0.097200
O71	O7	0.543900	0.221800	0.597200
O81	O8	0.523300	0.627100	0.199550
Zn31	Zn3	0.900950	0.750000	0.750000
Zn41	Zn4	0.099050	0.250000	0.250000
H411	H41	0.261000	0.289900	0.104500
H421	H42	0.780800	0.530300	0.734900
H431	H43	0.577100	0.710800	0.533600
H441	H44	0.932200	0.972900	0.367500
H451	H45	0.932200	0.527100	0.132500
H461	H46	0.893500	0.933900	0.495200
H471	H47	0.404100	0.945700	0.955000
H481	H48	0.067800	0.472900	0.867500
H491	H49	0.373600	0.941100	0.163000
H501	H50	0.422900	0.289200	0.466400
H511	H51	0.739000	0.710100	0.895500
H521	H52	0.109900	0.556400	0.019400
H531	H53	0.067800	0.027100	0.632500
H541	H54	0.893500	0.566100	0.004800
H551	H55	0.109900	0.943600	0.480600
H561	H56	0.460000	0.440300	0.568600
H571	H57	0.261000	0.210100	0.395500
H581	H58	0.780800	0.969700	0.765100
H591	H59	0.595900	0.445700	0.455000
H601	H60	0.106500	0.066100	0.504800
H611	H61	0.890100	0.443600	0.980600
H621	H62	0.626400	0.441100	0.663000
H631	H63	0.540000	0.940300	0.068600
H641	H64	0.219200	0.030300	0.234900
H651	H65	0.106500	0.433900	0.995200
H661	H66	0.373600	0.558900	0.337000
H671	H67	0.816600	0.043100	0.395100
H681	H68	0.422900	0.210800	0.033600
H691	H69	0.626400	0.058900	0.837000
H701	H70	0.219200	0.469700	0.265100
H711	H71	0.595900	0.054300	0.045000
H721	H72	0.460000	0.059700	0.931400
H731	H73	0.404100	0.554300	0.545000
H741	H74	0.816600	0.456900	0.104900
H751	H75	0.540000	0.559700	0.431400
H761	H76	0.183400	0.956900	0.604900
H771	H77	0.739000	0.789900	0.604500
H781	H78	0.183400	0.543100	0.895100
H791	H79	0.890100	0.056400	0.519400
H801	H80	0.577100	0.789200	0.966400
C371	C37	0.739800	0.566900	0.693500
C381	C38	0.066500	0.996200	0.514300
C391	C39	0.646100	0.512900	0.650600
C401	C40	0.066500	0.503800	0.985700
C411	C41	0.381700	0.172000	0.073900
C421	C42	0.092200	0.534100	0.900800
C431	C43	0.285900	0.280500	0.382600
C441	C44	0.416900	0.064300	0.090600
C451	C45	0.907800	0.034100	0.400800
C461	C46	0.030000	0.633100	0.867100
C471	C47	0.618300	0.828000	0.926100
C481	C48	0.618300	0.672000	0.573900
C491	C49	0.381700	0.328000	0.426100
C501	C50	0.714100	0.780500	0.882600
C511	C51	0.646100	0.987100	0.849400
C521	C52	0.970000	0.366900	0.132900
C531	C53	0.353900	0.012900	0.150600
C541	C54	0.480100	0.990400	0.956200
C551	C55	0.583100	0.564300	0.590600
C561	C56	0.519900	0.490400	0.456200
C571	C57	0.092200	0.965900	0.599200
C581	C58	0.416900	0.435700	0.409400
C591	C59	0.933500	0.496200	0.014300
C601	C60	0.519900	0.009600	0.043800
C611	C61	0.714100	0.719500	0.617400
C621	C62	0.353900	0.487100	0.349400
C631	C63	0.480100	0.509600	0.543800
C641	C64	0.285900	0.219500	0.117400
C651	C65	0.907800	0.465900	0.099200
C661	C66	0.583100	0.935700	0.909400
C671	C67	0.739800	0.933100	0.806500
C681	C68	0.933500	0.003800	0.485700
C691	C69	0.030000	0.866900	0.632900
C701	C70	0.970000	0.133100	0.367100
C711	C71	0.260200	0.066900	0.193500
C721	C72	0.260200	0.433100	0.306500
N51	N5	0.773200	0.831300	0.822210
N61	N6	0.226800	0.331300	0.322210
N71	N7	0.226800	0.168700	0.177790
N81	N8	0.773200	0.668700	0.677790
O91	O9	0.976700	0.872900	0.699550
O101	O10	0.976700	0.627100	0.800450
O111	O11	0.023300	0.372900	0.199550
O121	O12	0.043900	0.778200	0.597200
O131	O13	0.956100	0.278200	0.097200
O141	O14	0.043900	0.721800	0.902800
O151	O15	0.956100	0.221800	0.402800
O161	O16	0.023300	0.127100	0.300450
