data_VIYZIO_freeONLY_PM
_symmetry_space_group_name_H-M	'P1'
_cell_length_a	10.239000
_cell_length_b	12.191000
_cell_length_c	13.910000
_cell_angle_alpha	94.600000
_cell_angle_beta	93.750000
_cell_angle_gamma	99.870000
_symmetry_Int_Tables_number 1

loop_
_symmetry_equiv_pos_as_xyz
'x,y,z'

loop_
_atom_site_label
_atom_site_type_symbol
_atom_site_fract_x
_atom_site_fract_y
_atom_site_fract_z
Zn11	Zn1	0.261080	0.696190	0.460480
Zn21	Zn2	0.222020	0.519090	0.228250
H11	H1	0.094400	0.694500	0.933200
H21	H2	0.338100	0.856400	0.072400
H31	H3	0.076600	0.701200	0.612200
H41	H4	0.379900	0.513800	0.896700
H51	H5	0.866500	0.569400	0.472200
H61	H6	0.527200	0.731300	0.197700
H71	H7	0.358000	0.463000	0.050700
H81	H8	0.640800	0.804100	0.074400
H91	H9	0.137500	0.069200	0.463300
H101	H10	0.868000	0.808900	0.074400
H111	H11	0.979500	0.734600	0.191800
H121	H12	0.320100	0.180800	0.098700
H131	H13	0.061300	0.666100	0.770300
H141	H14	0.452200	0.676400	0.628600
H151	H15	0.161300	0.242000	0.402400
H161	H16	0.642700	0.578000	0.479500
H171	H17	0.445600	0.638400	0.786100
H181	H18	0.363800	0.028500	0.011500
H191	H19	0.081600	0.639400	0.085300
H201	H20	0.271100	0.836300	0.224900
C11	C1	0.232800	0.198700	0.276900
C21	C2	0.372200	0.673000	0.657300
C31	C3	0.682200	0.680500	0.270700
C41	C4	0.368700	0.649400	0.751700
C51	C5	0.141200	0.665500	0.742300
C61	C6	0.685500	0.774600	0.123800
C71	C7	0.886700	0.628700	0.342800
C81	C8	0.195600	0.882100	0.403000
C91	C9	0.888200	0.731100	0.193000
C101	C10	0.821800	0.776200	0.123300
C111	C11	0.144100	0.614800	0.047300
C121	C12	0.252200	0.999900	0.259300
C131	C13	0.241200	0.611300	0.896300
C141	C14	0.335300	0.021600	0.073200
C151	C15	0.821200	0.678500	0.268000
C161	C16	0.820800	0.595300	0.421200
C171	C17	0.309300	0.112500	0.125200
C181	C18	0.171300	0.077700	0.403300
C191	C19	0.685300	0.599800	0.425300
C201	C20	0.318500	0.541500	0.934000
C211	C21	0.467100	0.625000	0.355100
C221	C22	0.206800	0.988400	0.352800
C231	C23	0.265400	0.105400	0.220500
C241	C24	0.617600	0.729600	0.196700
C251	C25	0.320500	0.918000	0.109900
C261	C26	0.280300	0.906000	0.200900
C271	C27	0.250600	0.641900	0.796200
C281	C28	0.026800	0.606200	0.337900
C291	C29	0.150400	0.647900	0.955500
C301	C30	0.244700	0.312900	0.244500
C311	C31	0.615100	0.635700	0.350500
C321	C32	0.185000	0.182100	0.366000
C331	C33	0.305500	0.511800	0.027500
C341	C34	0.151600	0.687900	0.647600
N11	N1	0.222200	0.549400	0.085400
N21	N2	0.265100	0.691400	0.604200
O11	O1	0.091300	0.598000	0.416200
O21	O2	0.323700	0.348400	0.184300
O31	O3	0.292600	0.828100	0.393100
O41	O4	0.395400	0.604100	0.276900
O51	O5	0.105400	0.853400	0.452400
O61	O6	0.423600	0.633000	0.437100
O71	O7	0.069400	0.593800	0.256000
O81	O8	0.175300	0.378400	0.283500
Zn31	Zn3	0.777980	0.480910	0.771750
Zn41	Zn4	0.738920	0.303810	0.539520
H211	H21	0.905600	0.305500	0.066800
H221	H22	0.679900	0.819200	0.901300
H231	H23	0.862500	0.930800	0.536700
H241	H24	0.359200	0.195900	0.925600
H251	H25	0.620100	0.486200	0.103300
H261	H26	0.020500	0.265400	0.808200
H271	H27	0.642000	0.537000	0.949300
H281	H28	0.132000	0.191100	0.925600
H291	H29	0.357300	0.422000	0.520500
H301	H30	0.728900	0.163700	0.775100
H311	H31	0.938700	0.333900	0.229700
H321	H32	0.636200	0.971500	0.988500
H331	H33	0.918400	0.360600	0.914700
H341	H34	0.554400	0.361600	0.213900
H351	H35	0.472800	0.268700	0.802300
H361	H36	0.838700	0.758000	0.597600
H371	H37	0.133500	0.430600	0.527800
H381	H38	0.547800	0.323600	0.371400
H391	H39	0.923400	0.298800	0.387800
H401	H40	0.661900	0.143600	0.927600
C351	C35	0.179200	0.404700	0.578800
C361	C36	0.793200	0.011600	0.647200
C371	C37	0.532900	0.375000	0.644900
C381	C38	0.858800	0.334500	0.257700
C391	C39	0.747800	0.000100	0.740700
C401	C40	0.631300	0.350600	0.248300
C411	C41	0.828700	0.922300	0.596700
C421	C42	0.627800	0.327000	0.342700
C431	C43	0.384900	0.364300	0.649500
C441	C44	0.113300	0.371300	0.657200
C451	C45	0.815000	0.817900	0.634000
C461	C46	0.317800	0.319500	0.729300
C471	C47	0.758800	0.388700	0.103700
C481	C48	0.314500	0.225400	0.876200
C491	C49	0.755300	0.687100	0.755500
C501	C50	0.849600	0.352100	0.044500
C511	C51	0.767200	0.801300	0.723100
C521	C52	0.111800	0.268900	0.807000
C531	C53	0.734600	0.894600	0.779500
C541	C54	0.382400	0.270400	0.803300
C551	C55	0.719700	0.094000	0.799100
C561	C56	0.848400	0.312100	0.352400
C571	C57	0.804400	0.117900	0.597000
C581	C58	0.178800	0.321500	0.732000
C591	C59	0.679500	0.082000	0.890100
C601	C60	0.694500	0.488200	0.972500
C611	C61	0.664700	0.978400	0.926800
C621	C62	0.690700	0.887500	0.874800
C631	C63	0.855900	0.385200	0.952700
C641	C64	0.314700	0.400200	0.574700
C651	C65	0.178200	0.223800	0.876700
C661	C66	0.973200	0.393800	0.662100
C671	C67	0.681500	0.458500	0.066000
C681	C68	0.749400	0.358100	0.203800
N31	N3	0.777800	0.450600	0.914600
N41	N4	0.734900	0.308600	0.395800
O91	O9	0.930600	0.406200	0.744000
O101	O10	0.707400	0.171900	0.606900
O111	O11	0.604600	0.395900	0.723100
O121	O12	0.676300	0.651600	0.815700
O131	O13	0.908700	0.402000	0.583800
O141	O14	0.824700	0.621600	0.716500
O151	O15	0.576400	0.367000	0.562900
O161	O16	0.894600	0.146600	0.547600
