data_VOCKUT_freeONLY_PM
_symmetry_space_group_name_H-M	'P1'
_cell_length_a	10.534400
_cell_length_b	11.907300
_cell_length_c	14.046100
_cell_angle_alpha	106.645000
_cell_angle_beta	101.977000
_cell_angle_gamma	112.078000
_symmetry_Int_Tables_number 1

loop_
_symmetry_equiv_pos_as_xyz
'x,y,z'

loop_
_atom_site_label
_atom_site_type_symbol
_atom_site_fract_x
_atom_site_fract_y
_atom_site_fract_z
Co11	Co1	0.808510	0.008640	0.787200
Co21	Co2	0.448710	0.729200	0.688370
Co31	Co3	0.191490	0.991360	0.212800
Co41	Co4	0.551290	0.270800	0.311630
H11	H1	0.564000	0.975000	0.790000
H21	H2	0.524000	0.955000	0.689000
H31	H3	0.845800	0.850600	0.469900
H41	H4	0.861200	0.723100	0.315100
H51	H5	0.744900	0.496000	0.253600
H61	H6	0.614200	0.512300	0.496400
H71	H7	0.861800	0.430400	0.638800
H81	H8	0.006300	0.481600	0.811700
H91	H9	0.982700	0.312500	0.866800
H101	H10	0.694400	0.044300	0.585600
H111	H11	0.560400	0.819400	0.038900
H121	H12	0.676800	0.894100	0.223900
H131	H13	0.923200	0.956200	0.292500
H141	H14	0.952700	0.892800	0.010200
H151	H15	0.006700	0.226200	0.138400
H161	H16	0.059400	0.307400	0.323200
H171	H17	0.882100	0.325400	0.389300
H181	H18	0.592900	0.165800	0.100400
H191	H19	0.436000	0.025000	0.210000
H201	H20	0.476000	0.045000	0.311000
H211	H21	0.154200	0.149400	0.530100
H221	H22	0.138800	0.276900	0.684900
H231	H23	0.255100	0.504000	0.746400
H241	H24	0.385800	0.487700	0.503600
H251	H25	0.138200	0.569600	0.361200
H261	H26	0.993700	0.518400	0.188300
H271	H27	0.017300	0.687500	0.133200
H281	H28	0.305600	0.955700	0.414400
H291	H29	0.439600	0.180600	0.961100
H301	H30	0.323200	0.105900	0.776100
H311	H31	0.076800	0.043800	0.707500
H321	H32	0.047300	0.107200	0.989800
H331	H33	0.993300	0.773800	0.861600
H341	H34	0.940600	0.692600	0.676800
H351	H35	0.117900	0.674600	0.610700
H361	H36	0.407100	0.834200	0.899600
C11	C1	0.700400	0.766700	0.593900
C21	C2	0.724200	0.692400	0.498100
C31	C3	0.800400	0.756800	0.444400
C41	C4	0.808900	0.681600	0.353200
C51	C5	0.741100	0.546400	0.318000
C61	C6	0.663800	0.556400	0.458400
C71	C7	0.666900	0.190600	0.481300
C81	C8	0.762900	0.230000	0.593900
C91	C9	0.856100	0.361900	0.662200
C101	C10	0.940200	0.392400	0.764400
C111	C11	0.926000	0.291000	0.796000
C121	C12	0.757200	0.134500	0.632100
C131	C13	0.690800	0.817000	0.888200
C141	C14	0.747400	0.850300	0.005600
C151	C15	0.662500	0.848700	0.068900
C161	C16	0.731200	0.891200	0.177900
C171	C17	0.878200	0.928800	0.218200
C181	C18	0.894600	0.891100	0.053700
C191	C19	0.743100	0.130700	0.980400
C201	C20	0.792400	0.189200	0.100100
C211	C21	0.933500	0.231000	0.166700
C221	C22	0.964600	0.280100	0.275700
C231	C23	0.858000	0.289100	0.314500
C241	C24	0.690300	0.197800	0.146000
C251	C25	0.299600	0.233300	0.406100
C261	C26	0.275800	0.307600	0.501900
C271	C27	0.199600	0.243200	0.555600
C281	C28	0.191100	0.318400	0.646800
C291	C29	0.258900	0.453600	0.682000
C301	C30	0.336200	0.443600	0.541600
C311	C31	0.333100	0.809400	0.518700
C321	C32	0.237100	0.770000	0.406100
C331	C33	0.143900	0.638100	0.337800
C341	C34	0.059800	0.607600	0.235600
C351	C35	0.074000	0.709000	0.204000
C361	C36	0.242800	0.865500	0.367900
C371	C37	0.309200	0.183000	0.111800
C381	C38	0.252600	0.149700	0.994400
C391	C39	0.337500	0.151300	0.931100
C401	C40	0.268800	0.108800	0.822100
C411	C41	0.121800	0.071200	0.781800
C421	C42	0.105400	0.108900	0.946300
C431	C43	0.256900	0.869300	0.019600
C441	C44	0.207600	0.810800	0.899900
C451	C45	0.066500	0.769000	0.833300
C461	C46	0.035400	0.719900	0.724300
C471	C47	0.142000	0.710900	0.685500
C481	C48	0.309700	0.802200	0.854000
N11	N1	0.670700	0.482300	0.369000
N21	N2	0.836000	0.162400	0.732100
N31	N3	0.960500	0.928600	0.158100
N41	N4	0.721400	0.248900	0.251600
N51	N5	0.329300	0.517700	0.631000
N61	N6	0.164000	0.837600	0.267900
N71	N7	0.039500	0.071400	0.841900
N81	N8	0.278600	0.751100	0.748400
O11	O1	0.598800	0.699500	0.618200
O21	O2	0.784800	0.888800	0.639800
O31	O3	0.597300	0.070500	0.423700
O41	O4	0.666500	0.284300	0.456500
O51	O5	0.784100	0.864200	0.849200
O61	O6	0.553400	0.745900	0.837700
O71	O7	0.839000	0.133600	0.940200
O81	O8	0.608200	0.080500	0.930800
O91	O9	0.574800	0.939800	0.741600
O101	O10	0.401200	0.300500	0.381800
O111	O11	0.215200	0.111200	0.360200
O121	O12	0.402700	0.929500	0.576300
O131	O13	0.333500	0.715700	0.543500
O141	O14	0.215900	0.135800	0.150800
O151	O15	0.446600	0.254100	0.162300
O161	O16	0.161000	0.866400	0.059800
O171	O17	0.391800	0.919500	0.069200
O181	O18	0.425200	0.060200	0.258400
