data_VUNYUZ_freeONLY_PM
_symmetry_space_group_name_H-M	'P1'
_cell_length_a	20.522300
_cell_length_b	20.522300
_cell_length_c	20.522300
_cell_angle_alpha	90.000000
_cell_angle_beta	90.000000
_cell_angle_gamma	90.000000
_symmetry_Int_Tables_number 1

loop_
_symmetry_equiv_pos_as_xyz
'x,y,z'

loop_
_atom_site_label
_atom_site_type_symbol
_atom_site_fract_x
_atom_site_fract_y
_atom_site_fract_z
Zn11	Zn1	0.162830	0.100870	0.642020
Zn21	Zn2	0.277180	0.005490	0.561260
Zn31	Zn3	0.337170	0.899130	0.142020
Zn41	Zn4	0.222820	0.994510	0.061260
Zn51	Zn5	0.837170	0.600870	0.857980
Zn61	Zn6	0.722820	0.505490	0.938740
Zn71	Zn7	0.662830	0.399130	0.357980
Zn81	Zn8	0.777180	0.494510	0.438740
Zn91	Zn9	0.642020	0.162830	0.100870
Zn101	Zn10	0.561260	0.277180	0.005490
Zn111	Zn11	0.142020	0.337170	0.899130
Zn121	Zn12	0.061260	0.222820	0.994510
Zn131	Zn13	0.857980	0.837170	0.600870
Zn141	Zn14	0.938740	0.722820	0.505490
Zn151	Zn15	0.357980	0.662830	0.399130
Zn161	Zn16	0.438740	0.777180	0.494510
Zn171	Zn17	0.100870	0.642020	0.162830
Zn181	Zn18	0.005490	0.561260	0.277180
Zn191	Zn19	0.899130	0.142020	0.337170
Zn201	Zn20	0.994510	0.061260	0.222820
Zn211	Zn21	0.600870	0.857980	0.837170
Zn221	Zn22	0.505490	0.938740	0.722820
Zn231	Zn23	0.399130	0.357980	0.662830
Zn241	Zn24	0.494510	0.438740	0.777180
Zn251	Zn25	0.837170	0.899130	0.357980
Zn261	Zn26	0.722820	0.994510	0.438740
Zn271	Zn27	0.662830	0.100870	0.857980
Zn281	Zn28	0.777180	0.005490	0.938740
Zn291	Zn29	0.162830	0.399130	0.142020
Zn301	Zn30	0.277180	0.494510	0.061260
Zn311	Zn31	0.337170	0.600870	0.642020
Zn321	Zn32	0.222820	0.505490	0.561260
Zn331	Zn33	0.357980	0.837170	0.899130
Zn341	Zn34	0.438740	0.722820	0.994510
Zn351	Zn35	0.857980	0.662830	0.100870
Zn361	Zn36	0.938740	0.777180	0.005490
Zn371	Zn37	0.142020	0.162830	0.399130
Zn381	Zn38	0.061260	0.277180	0.494510
Zn391	Zn39	0.642020	0.337170	0.600870
Zn401	Zn40	0.561260	0.222820	0.505490
Zn411	Zn41	0.899130	0.357980	0.837170
Zn421	Zn42	0.994510	0.438740	0.722820
Zn431	Zn43	0.100870	0.857980	0.662830
Zn441	Zn44	0.005490	0.938740	0.777180
Zn451	Zn45	0.399130	0.142020	0.162830
Zn461	Zn46	0.494510	0.061260	0.277180
Zn471	Zn47	0.600870	0.642020	0.337170
Zn481	Zn48	0.505490	0.561260	0.222820
H11	H1	0.338800	0.192600	0.502700
H21	H2	0.378100	0.200100	0.620500
H31	H3	0.236900	0.305800	0.610900
H41	H4	0.300500	0.292800	0.491400
H51	H5	0.394200	0.001100	0.586200
H61	H6	0.374400	0.941500	0.565200
H71	H7	0.165000	0.993000	0.569000
H81	H8	0.167000	0.045000	0.528000
H91	H9	0.161200	0.807400	0.002700
H101	H10	0.121900	0.799900	0.120500
H111	H11	0.263100	0.694200	0.110900
H121	H12	0.199500	0.707200	0.991400
H131	H13	0.105800	0.998900	0.086200
H141	H14	0.125600	0.058500	0.065200
H151	H15	0.335000	0.007000	0.069000
H161	H16	0.333000	0.955000	0.028000
H171	H17	0.661200	0.692600	0.997300
H181	H18	0.621900	0.700100	0.879500
H191	H19	0.763100	0.805800	0.889100
H201	H20	0.699500	0.792800	0.008600
H211	H21	0.605800	0.501100	0.913800
H221	H22	0.625600	0.441500	0.934800
H231	H23	0.835000	0.493000	0.931000
H241	H24	0.833000	0.545000	0.972000
H251	H25	0.838800	0.307400	0.497300
H261	H26	0.878100	0.299900	0.379500
H271	H27	0.736900	0.194200	0.389100
H281	H28	0.800500	0.207200	0.508600
H291	H29	0.894200	0.498900	0.413800
H301	H30	0.874400	0.558500	0.434800
H311	H31	0.665000	0.507000	0.431000
H321	H32	0.667000	0.455000	0.472000
H331	H33	0.502700	0.338800	0.192600
H341	H34	0.620500	0.378100	0.200100
H351	H35	0.610900	0.236900	0.305800
H361	H36	0.491400	0.300500	0.292800
H371	H37	0.586200	0.394200	0.001100
H381	H38	0.565200	0.374400	0.941500
H391	H39	0.569000	0.165000	0.993000
H401	H40	0.528000	0.167000	0.045000
H411	H41	0.002700	0.161200	0.807400
H421	H42	0.120500	0.121900	0.799900
H431	H43	0.110900	0.263100	0.694200
H441	H44	0.991400	0.199500	0.707200
H451	H45	0.086200	0.105800	0.998900
H461	H46	0.065200	0.125600	0.058500
H471	H47	0.069000	0.335000	0.007000
H481	H48	0.028000	0.333000	0.955000
H491	H49	0.997300	0.661200	0.692600
H501	H50	0.879500	0.621900	0.700100
H511	H51	0.889100	0.763100	0.805800
H521	H52	0.008600	0.699500	0.792800
H531	H53	0.913800	0.605800	0.501100
H541	H54	0.934800	0.625600	0.441500
H551	H55	0.931000	0.835000	0.493000
H561	H56	0.972000	0.833000	0.545000
H571	H57	0.497300	0.838800	0.307400
H581	H58	0.379500	0.878100	0.299900
H591	H59	0.389100	0.736900	0.194200
H601	H60	0.508600	0.800500	0.207200
H611	H61	0.413800	0.894200	0.498900
H621	H62	0.434800	0.874400	0.558500
H631	H63	0.431000	0.665000	0.507000
H641	H64	0.472000	0.667000	0.455000
H651	H65	0.192600	0.502700	0.338800
H661	H66	0.200100	0.620500	0.378100
H671	H67	0.305800	0.610900	0.236900
H681	H68	0.292800	0.491400	0.300500
H691	H69	0.001100	0.586200	0.394200
H701	H70	0.941500	0.565200	0.374400
H711	H71	0.993000	0.569000	0.165000
H721	H72	0.045000	0.528000	0.167000
H731	H73	0.807400	0.002700	0.161200
H741	H74	0.799900	0.120500	0.121900
H751	H75	0.694200	0.110900	0.263100
H761	H76	0.707200	0.991400	0.199500
H771	H77	0.998900	0.086200	0.105800
H781	H78	0.058500	0.065200	0.125600
H791	H79	0.007000	0.069000	0.335000
H801	H80	0.955000	0.028000	0.333000
H811	H81	0.692600	0.997300	0.661200
H821	H82	0.700100	0.879500	0.621900
H831	H83	0.805800	0.889100	0.763100
H841	H84	0.792800	0.008600	0.699500
H851	H85	0.501100	0.913800	0.605800
H861	H86	0.441500	0.934800	0.625600
H871	H87	0.493000	0.931000	0.835000
H881	H88	0.545000	0.972000	0.833000
H891	H89	0.307400	0.497300	0.838800
H901	H90	0.299900	0.379500	0.878100
H911	H91	0.194200	0.389100	0.736900
H921	H92	0.207200	0.508600	0.800500
H931	H93	0.498900	0.413800	0.894200
H941	H94	0.558500	0.434800	0.874400
H951	H95	0.507000	0.431000	0.665000
H961	H96	0.455000	0.472000	0.667000
H971	H97	0.661200	0.807400	0.497300
H981	H98	0.621900	0.799900	0.379500
H991	H99	0.763100	0.694200	0.389100
H1001	H100	0.699500	0.707200	0.508600
H1011	H101	0.605800	0.998900	0.413800
H1021	H102	0.625600	0.058500	0.434800
H1031	H103	0.835000	0.007000	0.431000
H1041	H104	0.833000	0.955000	0.472000
H1051	H105	0.838800	0.192600	0.997300
H1061	H106	0.878100	0.200100	0.879500
H1071	H107	0.736900	0.305800	0.889100
H1081	H108	0.800500	0.292800	0.008600
H1091	H109	0.894200	0.001100	0.913800
H1101	H110	0.874400	0.941500	0.934800
H1111	H111	0.665000	0.993000	0.931000
H1121	H112	0.667000	0.045000	0.972000
H1131	H113	0.338800	0.307400	0.002700
H1141	H114	0.378100	0.299900	0.120500
H1151	H115	0.236900	0.194200	0.110900
H1161	H116	0.300500	0.207200	0.991400
H1171	H117	0.394200	0.498900	0.086200
H1181	H118	0.374400	0.558500	0.065200
H1191	H119	0.165000	0.507000	0.069000
H1201	H120	0.167000	0.455000	0.028000
H1211	H121	0.161200	0.692600	0.502700
H1221	H122	0.121900	0.700100	0.620500
H1231	H123	0.263100	0.805800	0.610900
H1241	H124	0.199500	0.792800	0.491400
H1251	H125	0.105800	0.501100	0.586200
H1261	H126	0.125600	0.441500	0.565200
H1271	H127	0.335000	0.493000	0.569000
H1281	H128	0.333000	0.545000	0.528000
H1291	H129	0.497300	0.661200	0.807400
H1301	H130	0.379500	0.621900	0.799900
H1311	H131	0.389100	0.763100	0.694200
H1321	H132	0.508600	0.699500	0.707200
H1331	H133	0.413800	0.605800	0.998900
H1341	H134	0.434800	0.625600	0.058500
H1351	H135	0.431000	0.835000	0.007000
H1361	H136	0.472000	0.833000	0.955000
H1371	H137	0.997300	0.838800	0.192600
H1381	H138	0.879500	0.878100	0.200100
H1391	H139	0.889100	0.736900	0.305800
H1401	H140	0.008600	0.800500	0.292800
H1411	H141	0.913800	0.894200	0.001100
H1421	H142	0.934800	0.874400	0.941500
H1431	H143	0.931000	0.665000	0.993000
H1441	H144	0.972000	0.667000	0.045000
H1451	H145	0.002700	0.338800	0.307400
H1461	H146	0.120500	0.378100	0.299900
H1471	H147	0.110900	0.236900	0.194200
H1481	H148	0.991400	0.300500	0.207200
H1491	H149	0.086200	0.394200	0.498900
H1501	H150	0.065200	0.374400	0.558500
H1511	H151	0.069000	0.165000	0.507000
H1521	H152	0.028000	0.167000	0.455000
H1531	H153	0.502700	0.161200	0.692600
H1541	H154	0.620500	0.121900	0.700100
H1551	H155	0.610900	0.263100	0.805800
H1561	H156	0.491400	0.199500	0.792800
H1571	H157	0.586200	0.105800	0.501100
H1581	H158	0.565200	0.125600	0.441500
H1591	H159	0.569000	0.335000	0.493000
H1601	H160	0.528000	0.333000	0.545000
H1611	H161	0.807400	0.497300	0.661200
H1621	H162	0.799900	0.379500	0.621900
H1631	H163	0.694200	0.389100	0.763100
H1641	H164	0.707200	0.508600	0.699500
H1651	H165	0.998900	0.413800	0.605800
H1661	H166	0.058500	0.434800	0.625600
H1671	H167	0.007000	0.431000	0.835000
H1681	H168	0.955000	0.472000	0.833000
H1691	H169	0.192600	0.997300	0.838800
H1701	H170	0.200100	0.879500	0.878100
H1711	H171	0.305800	0.889100	0.736900
H1721	H172	0.292800	0.008600	0.800500
H1731	H173	0.001100	0.913800	0.894200
H1741	H174	0.941500	0.934800	0.874400
H1751	H175	0.993000	0.931000	0.665000
H1761	H176	0.045000	0.972000	0.667000
H1771	H177	0.307400	0.002700	0.338800
H1781	H178	0.299900	0.120500	0.378100
H1791	H179	0.194200	0.110900	0.236900
H1801	H180	0.207200	0.991400	0.300500
H1811	H181	0.498900	0.086200	0.394200
H1821	H182	0.558500	0.065200	0.374400
H1831	H183	0.507000	0.069000	0.165000
H1841	H184	0.455000	0.028000	0.167000
H1851	H185	0.692600	0.502700	0.161200
H1861	H186	0.700100	0.620500	0.121900
H1871	H187	0.805800	0.610900	0.263100
H1881	H188	0.792800	0.491400	0.199500
H1891	H189	0.501100	0.586200	0.105800
H1901	H190	0.441500	0.565200	0.125600
H1911	H191	0.493000	0.569000	0.335000
H1921	H192	0.545000	0.528000	0.333000
C11	C1	0.316380	0.208760	0.541580
C21	C2	0.366160	0.235500	0.590700
C31	C3	0.278300	0.310380	0.587580
C41	C4	0.276240	0.268810	0.524750
C51	C5	0.278760	0.153410	0.574360
C61	C6	0.290740	0.382070	0.573830
C71	C7	0.428650	0.262900	0.561110
C81	C8	0.209340	0.253400	0.495980
C91	C9	0.183620	0.791240	0.041580
C101	C10	0.133840	0.764500	0.090700
C111	C11	0.221700	0.689620	0.087580
C121	C12	0.223760	0.731190	0.024750
C131	C13	0.221240	0.846590	0.074360
C141	C14	0.209260	0.617930	0.073830
C151	C15	0.071350	0.737100	0.061110
C161	C16	0.290660	0.746600	0.995980
C171	C17	0.683620	0.708760	0.958420
C181	C18	0.633840	0.735500	0.909300
C191	C19	0.721700	0.810380	0.912420
C201	C20	0.723760	0.768810	0.975250
C211	C21	0.721240	0.653410	0.925640
C221	C22	0.709260	0.882070	0.926170
C231	C23	0.571350	0.762900	0.938890
C241	C24	0.790660	0.753400	0.004020
C251	C25	0.816380	0.291240	0.458420
C261	C26	0.866160	0.264500	0.409300
C271	C27	0.778300	0.189620	0.412420
C281	C28	0.776240	0.231190	0.475250
C291	C29	0.778760	0.346590	0.425640
C301	C30	0.790740	0.117930	0.426170
C311	C31	0.928650	0.237100	0.438890
C321	C32	0.709340	0.246600	0.504020
C331	C33	0.541580	0.316380	0.208760
C341	C34	0.590700	0.366160	0.235500
C351	C35	0.587580	0.278300	0.310380
C361	C36	0.524750	0.276240	0.268810
C371	C37	0.574360	0.278760	0.153410
C381	C38	0.573830	0.290740	0.382070
C391	C39	0.561110	0.428650	0.262900
C401	C40	0.495980	0.209340	0.253400
C411	C41	0.041580	0.183620	0.791240
C421	C42	0.090700	0.133840	0.764500
C431	C43	0.087580	0.221700	0.689620
C441	C44	0.024750	0.223760	0.731190
C451	C45	0.074360	0.221240	0.846590
C461	C46	0.073830	0.209260	0.617930
C471	C47	0.061110	0.071350	0.737100
C481	C48	0.995980	0.290660	0.746600
C491	C49	0.958420	0.683620	0.708760
C501	C50	0.909300	0.633840	0.735500
C511	C51	0.912420	0.721700	0.810380
C521	C52	0.975250	0.723760	0.768810
C531	C53	0.925640	0.721240	0.653410
C541	C54	0.926170	0.709260	0.882070
C551	C55	0.938890	0.571350	0.762900
C561	C56	0.004020	0.790660	0.753400
C571	C57	0.458420	0.816380	0.291240
C581	C58	0.409300	0.866160	0.264500
C591	C59	0.412420	0.778300	0.189620
C601	C60	0.475250	0.776240	0.231190
C611	C61	0.425640	0.778760	0.346590
C621	C62	0.426170	0.790740	0.117930
C631	C63	0.438890	0.928650	0.237100
C641	C64	0.504020	0.709340	0.246600
C651	C65	0.208760	0.541580	0.316380
C661	C66	0.235500	0.590700	0.366160
C671	C67	0.310380	0.587580	0.278300
C681	C68	0.268810	0.524750	0.276240
C691	C69	0.153410	0.574360	0.278760
C701	C70	0.382070	0.573830	0.290740
C711	C71	0.262900	0.561110	0.428650
C721	C72	0.253400	0.495980	0.209340
C731	C73	0.791240	0.041580	0.183620
C741	C74	0.764500	0.090700	0.133840
C751	C75	0.689620	0.087580	0.221700
C761	C76	0.731190	0.024750	0.223760
C771	C77	0.846590	0.074360	0.221240
C781	C78	0.617930	0.073830	0.209260
C791	C79	0.737100	0.061110	0.071350
C801	C80	0.746600	0.995980	0.290660
C811	C81	0.708760	0.958420	0.683620
C821	C82	0.735500	0.909300	0.633840
C831	C83	0.810380	0.912420	0.721700
C841	C84	0.768810	0.975250	0.723760
C851	C85	0.653410	0.925640	0.721240
C861	C86	0.882070	0.926170	0.709260
C871	C87	0.762900	0.938890	0.571350
C881	C88	0.753400	0.004020	0.790660
C891	C89	0.291240	0.458420	0.816380
C901	C90	0.264500	0.409300	0.866160
C911	C91	0.189620	0.412420	0.778300
C921	C92	0.231190	0.475250	0.776240
C931	C93	0.346590	0.425640	0.778760
C941	C94	0.117930	0.426170	0.790740
C951	C95	0.237100	0.438890	0.928650
C961	C96	0.246600	0.504020	0.709340
C971	C97	0.683620	0.791240	0.458420
C981	C98	0.633840	0.764500	0.409300
C991	C99	0.721700	0.689620	0.412420
C1001	C100	0.723760	0.731190	0.475250
C1011	C101	0.721240	0.846590	0.425640
C1021	C102	0.709260	0.617930	0.426170
C1031	C103	0.571350	0.737100	0.438890
C1041	C104	0.790660	0.746600	0.504020
C1051	C105	0.816380	0.208760	0.958420
C1061	C106	0.866160	0.235500	0.909300
C1071	C107	0.778300	0.310380	0.912420
C1081	C108	0.776240	0.268810	0.975250
C1091	C109	0.778760	0.153410	0.925640
C1101	C110	0.790740	0.382070	0.926170
C1111	C111	0.928650	0.262900	0.938890
C1121	C112	0.709340	0.253400	0.004020
C1131	C113	0.316380	0.291240	0.041580
C1141	C114	0.366160	0.264500	0.090700
C1151	C115	0.278300	0.189620	0.087580
C1161	C116	0.276240	0.231190	0.024750
C1171	C117	0.278760	0.346590	0.074360
C1181	C118	0.290740	0.117930	0.073830
C1191	C119	0.428650	0.237100	0.061110
C1201	C120	0.209340	0.246600	0.995980
C1211	C121	0.183620	0.708760	0.541580
C1221	C122	0.133840	0.735500	0.590700
C1231	C123	0.221700	0.810380	0.587580
C1241	C124	0.223760	0.768810	0.524750
C1251	C125	0.221240	0.653410	0.574360
C1261	C126	0.209260	0.882070	0.573830
C1271	C127	0.071350	0.762900	0.561110
C1281	C128	0.290660	0.753400	0.495980
C1291	C129	0.458420	0.683620	0.791240
C1301	C130	0.409300	0.633840	0.764500
C1311	C131	0.412420	0.721700	0.689620
C1321	C132	0.475250	0.723760	0.731190
C1331	C133	0.425640	0.721240	0.846590
C1341	C134	0.426170	0.709260	0.617930
C1351	C135	0.438890	0.571350	0.737100
C1361	C136	0.504020	0.790660	0.746600
C1371	C137	0.958420	0.816380	0.208760
C1381	C138	0.909300	0.866160	0.235500
C1391	C139	0.912420	0.778300	0.310380
C1401	C140	0.975250	0.776240	0.268810
C1411	C141	0.925640	0.778760	0.153410
C1421	C142	0.926170	0.790740	0.382070
C1431	C143	0.938890	0.928650	0.262900
C1441	C144	0.004020	0.709340	0.253400
C1451	C145	0.041580	0.316380	0.291240
C1461	C146	0.090700	0.366160	0.264500
C1471	C147	0.087580	0.278300	0.189620
C1481	C148	0.024750	0.276240	0.231190
C1491	C149	0.074360	0.278760	0.346590
C1501	C150	0.073830	0.290740	0.117930
C1511	C151	0.061110	0.428650	0.237100
C1521	C152	0.995980	0.209340	0.246600
C1531	C153	0.541580	0.183620	0.708760
C1541	C154	0.590700	0.133840	0.735500
C1551	C155	0.587580	0.221700	0.810380
C1561	C156	0.524750	0.223760	0.768810
C1571	C157	0.574360	0.221240	0.653410
C1581	C158	0.573830	0.209260	0.882070
C1591	C159	0.561110	0.071350	0.762900
C1601	C160	0.495980	0.290660	0.753400
C1611	C161	0.791240	0.458420	0.683620
C1621	C162	0.764500	0.409300	0.633840
C1631	C163	0.689620	0.412420	0.721700
C1641	C164	0.731190	0.475250	0.723760
C1651	C165	0.846590	0.425640	0.721240
C1661	C166	0.617930	0.426170	0.709260
C1671	C167	0.737100	0.438890	0.571350
C1681	C168	0.746600	0.504020	0.790660
C1691	C169	0.208760	0.958420	0.816380
C1701	C170	0.235500	0.909300	0.866160
C1711	C171	0.310380	0.912420	0.778300
C1721	C172	0.268810	0.975250	0.776240
C1731	C173	0.153410	0.925640	0.778760
C1741	C174	0.382070	0.926170	0.790740
C1751	C175	0.262900	0.938890	0.928650
C1761	C176	0.253400	0.004020	0.709340
C1771	C177	0.291240	0.041580	0.316380
C1781	C178	0.264500	0.090700	0.366160
C1791	C179	0.189620	0.087580	0.278300
C1801	C180	0.231190	0.024750	0.276240
C1811	C181	0.346590	0.074360	0.278760
C1821	C182	0.117930	0.073830	0.290740
C1831	C183	0.237100	0.061110	0.428650
C1841	C184	0.246600	0.995980	0.209340
C1851	C185	0.708760	0.541580	0.183620
C1861	C186	0.735500	0.590700	0.133840
C1871	C187	0.810380	0.587580	0.221700
C1881	C188	0.768810	0.524750	0.223760
C1891	C189	0.653410	0.574360	0.221240
C1901	C190	0.882070	0.573830	0.209260
C1911	C191	0.762900	0.561110	0.071350
C1921	C192	0.753400	0.495980	0.290660
O11	O1	0.227650	0.166390	0.604510
O21	O2	0.304190	0.099080	0.570600
O31	O3	0.245430	0.410450	0.543040
O41	O4	0.341900	0.408450	0.592590
O51	O5	0.447760	0.318260	0.579610
O61	O6	0.458050	0.227450	0.521930
O71	O7	0.210530	0.213970	0.449100
O81	O8	0.159790	0.280950	0.518530
O91	O9	0.330760	0.283920	0.627420
O101	O10	0.374700	0.981700	0.555200
O111	O11	0.171700	0.033580	0.567400
O121	O12	0.272350	0.833610	0.104510
O131	O13	0.195810	0.900920	0.070600
O141	O14	0.254570	0.589550	0.043040
O151	O15	0.158100	0.591550	0.092590
O161	O16	0.052240	0.681740	0.079610
O171	O17	0.041950	0.772550	0.021930
O181	O18	0.289470	0.786030	0.949100
O191	O19	0.340210	0.719050	0.018530
O201	O20	0.169240	0.716080	0.127420
O211	O21	0.125300	0.018300	0.055200
O221	O22	0.328300	0.966420	0.067400
O231	O23	0.772350	0.666390	0.895490
O241	O24	0.695810	0.599080	0.929400
O251	O25	0.754570	0.910450	0.956960
O261	O26	0.658100	0.908450	0.907410
O271	O27	0.552240	0.818260	0.920390
O281	O28	0.541950	0.727450	0.978070
O291	O29	0.789470	0.713970	0.050900
O301	O30	0.840210	0.780950	0.981470
O311	O31	0.669240	0.783920	0.872580
O321	O32	0.625300	0.481700	0.944800
O331	O33	0.828300	0.533580	0.932600
O341	O34	0.727650	0.333610	0.395490
O351	O35	0.804190	0.400920	0.429400
O361	O36	0.745430	0.089550	0.456960
O371	O37	0.841900	0.091550	0.407410
O381	O38	0.947760	0.181740	0.420390
O391	O39	0.958050	0.272550	0.478070
O401	O40	0.710530	0.286030	0.550900
O411	O41	0.659790	0.219050	0.481470
O421	O42	0.830760	0.216080	0.372580
O431	O43	0.874700	0.518300	0.444800
O441	O44	0.671700	0.466420	0.432600
O451	O45	0.604510	0.227650	0.166390
O461	O46	0.570600	0.304190	0.099080
O471	O47	0.543040	0.245430	0.410450
O481	O48	0.592590	0.341900	0.408450
O491	O49	0.579610	0.447760	0.318260
O501	O50	0.521930	0.458050	0.227450
O511	O51	0.449100	0.210530	0.213970
O521	O52	0.518530	0.159790	0.280950
O531	O53	0.627420	0.330760	0.283920
O541	O54	0.555200	0.374700	0.981700
O551	O55	0.567400	0.171700	0.033580
O561	O56	0.104510	0.272350	0.833610
O571	O57	0.070600	0.195810	0.900920
O581	O58	0.043040	0.254570	0.589550
O591	O59	0.092590	0.158100	0.591550
O601	O60	0.079610	0.052240	0.681740
O611	O61	0.021930	0.041950	0.772550
O621	O62	0.949100	0.289470	0.786030
O631	O63	0.018530	0.340210	0.719050
O641	O64	0.127420	0.169240	0.716080
O651	O65	0.055200	0.125300	0.018300
O661	O66	0.067400	0.328300	0.966420
O671	O67	0.895490	0.772350	0.666390
O681	O68	0.929400	0.695810	0.599080
O691	O69	0.956960	0.754570	0.910450
O701	O70	0.907410	0.658100	0.908450
O711	O71	0.920390	0.552240	0.818260
O721	O72	0.978070	0.541950	0.727450
O731	O73	0.050900	0.789470	0.713970
O741	O74	0.981470	0.840210	0.780950
O751	O75	0.872580	0.669240	0.783920
O761	O76	0.944800	0.625300	0.481700
O771	O77	0.932600	0.828300	0.533580
O781	O78	0.395490	0.727650	0.333610
O791	O79	0.429400	0.804190	0.400920
O801	O80	0.456960	0.745430	0.089550
O811	O81	0.407410	0.841900	0.091550
O821	O82	0.420390	0.947760	0.181740
O831	O83	0.478070	0.958050	0.272550
O841	O84	0.550900	0.710530	0.286030
O851	O85	0.481470	0.659790	0.219050
O861	O86	0.372580	0.830760	0.216080
O871	O87	0.444800	0.874700	0.518300
O881	O88	0.432600	0.671700	0.466420
O891	O89	0.166390	0.604510	0.227650
O901	O90	0.099080	0.570600	0.304190
O911	O91	0.410450	0.543040	0.245430
O921	O92	0.408450	0.592590	0.341900
O931	O93	0.318260	0.579610	0.447760
O941	O94	0.227450	0.521930	0.458050
O951	O95	0.213970	0.449100	0.210530
O961	O96	0.280950	0.518530	0.159790
O971	O97	0.283920	0.627420	0.330760
O981	O98	0.981700	0.555200	0.374700
O991	O99	0.033580	0.567400	0.171700
O1001	O100	0.833610	0.104510	0.272350
O1011	O101	0.900920	0.070600	0.195810
O1021	O102	0.589550	0.043040	0.254570
O1031	O103	0.591550	0.092590	0.158100
O1041	O104	0.681740	0.079610	0.052240
O1051	O105	0.772550	0.021930	0.041950
O1061	O106	0.786030	0.949100	0.289470
O1071	O107	0.719050	0.018530	0.340210
O1081	O108	0.716080	0.127420	0.169240
O1091	O109	0.018300	0.055200	0.125300
O1101	O110	0.966420	0.067400	0.328300
O1111	O111	0.666390	0.895490	0.772350
O1121	O112	0.599080	0.929400	0.695810
O1131	O113	0.910450	0.956960	0.754570
O1141	O114	0.908450	0.907410	0.658100
O1151	O115	0.818260	0.920390	0.552240
O1161	O116	0.727450	0.978070	0.541950
O1171	O117	0.713970	0.050900	0.789470
O1181	O118	0.780950	0.981470	0.840210
O1191	O119	0.783920	0.872580	0.669240
O1201	O120	0.481700	0.944800	0.625300
O1211	O121	0.533580	0.932600	0.828300
O1221	O122	0.333610	0.395490	0.727650
O1231	O123	0.400920	0.429400	0.804190
O1241	O124	0.089550	0.456960	0.745430
O1251	O125	0.091550	0.407410	0.841900
O1261	O126	0.181740	0.420390	0.947760
O1271	O127	0.272550	0.478070	0.958050
O1281	O128	0.286030	0.550900	0.710530
O1291	O129	0.219050	0.481470	0.659790
O1301	O130	0.216080	0.372580	0.830760
O1311	O131	0.518300	0.444800	0.874700
O1321	O132	0.466420	0.432600	0.671700
O1331	O133	0.772350	0.833610	0.395490
O1341	O134	0.695810	0.900920	0.429400
O1351	O135	0.754570	0.589550	0.456960
O1361	O136	0.658100	0.591550	0.407410
O1371	O137	0.552240	0.681740	0.420390
O1381	O138	0.541950	0.772550	0.478070
O1391	O139	0.789470	0.786030	0.550900
O1401	O140	0.840210	0.719050	0.481470
O1411	O141	0.669240	0.716080	0.372580
O1421	O142	0.625300	0.018300	0.444800
O1431	O143	0.828300	0.966420	0.432600
O1441	O144	0.727650	0.166390	0.895490
O1451	O145	0.804190	0.099080	0.929400
O1461	O146	0.745430	0.410450	0.956960
O1471	O147	0.841900	0.408450	0.907410
O1481	O148	0.947760	0.318260	0.920390
O1491	O149	0.958050	0.227450	0.978070
O1501	O150	0.710530	0.213970	0.050900
O1511	O151	0.659790	0.280950	0.981470
O1521	O152	0.830760	0.283920	0.872580
O1531	O153	0.874700	0.981700	0.944800
O1541	O154	0.671700	0.033580	0.932600
O1551	O155	0.227650	0.333610	0.104510
O1561	O156	0.304190	0.400920	0.070600
O1571	O157	0.245430	0.089550	0.043040
O1581	O158	0.341900	0.091550	0.092590
O1591	O159	0.447760	0.181740	0.079610
O1601	O160	0.458050	0.272550	0.021930
O1611	O161	0.210530	0.286030	0.949100
O1621	O162	0.159790	0.219050	0.018530
O1631	O163	0.330760	0.216080	0.127420
O1641	O164	0.374700	0.518300	0.055200
O1651	O165	0.171700	0.466420	0.067400
O1661	O166	0.272350	0.666390	0.604510
O1671	O167	0.195810	0.599080	0.570600
O1681	O168	0.254570	0.910450	0.543040
O1691	O169	0.158100	0.908450	0.592590
O1701	O170	0.052240	0.818260	0.579610
O1711	O171	0.041950	0.727450	0.521930
O1721	O172	0.289470	0.713970	0.449100
O1731	O173	0.340210	0.780950	0.518530
O1741	O174	0.169240	0.783920	0.627420
O1751	O175	0.125300	0.481700	0.555200
O1761	O176	0.328300	0.533580	0.567400
O1771	O177	0.395490	0.772350	0.833610
O1781	O178	0.429400	0.695810	0.900920
O1791	O179	0.456960	0.754570	0.589550
O1801	O180	0.407410	0.658100	0.591550
O1811	O181	0.420390	0.552240	0.681740
O1821	O182	0.478070	0.541950	0.772550
O1831	O183	0.550900	0.789470	0.786030
O1841	O184	0.481470	0.840210	0.719050
O1851	O185	0.372580	0.669240	0.716080
O1861	O186	0.444800	0.625300	0.018300
O1871	O187	0.432600	0.828300	0.966420
O1881	O188	0.895490	0.727650	0.166390
O1891	O189	0.929400	0.804190	0.099080
O1901	O190	0.956960	0.745430	0.410450
O1911	O191	0.907410	0.841900	0.408450
O1921	O192	0.920390	0.947760	0.318260
O1931	O193	0.978070	0.958050	0.227450
O1941	O194	0.050900	0.710530	0.213970
O1951	O195	0.981470	0.659790	0.280950
O1961	O196	0.872580	0.830760	0.283920
O1971	O197	0.944800	0.874700	0.981700
O1981	O198	0.932600	0.671700	0.033580
O1991	O199	0.104510	0.227650	0.333610
O2001	O200	0.070600	0.304190	0.400920
O2011	O201	0.043040	0.245430	0.089550
O2021	O202	0.092590	0.341900	0.091550
O2031	O203	0.079610	0.447760	0.181740
O2041	O204	0.021930	0.458050	0.272550
O2051	O205	0.949100	0.210530	0.286030
O2061	O206	0.018530	0.159790	0.219050
O2071	O207	0.127420	0.330760	0.216080
O2081	O208	0.055200	0.374700	0.518300
O2091	O209	0.067400	0.171700	0.466420
O2101	O210	0.604510	0.272350	0.666390
O2111	O211	0.570600	0.195810	0.599080
O2121	O212	0.543040	0.254570	0.910450
O2131	O213	0.592590	0.158100	0.908450
O2141	O214	0.579610	0.052240	0.818260
O2151	O215	0.521930	0.041950	0.727450
O2161	O216	0.449100	0.289470	0.713970
O2171	O217	0.518530	0.340210	0.780950
O2181	O218	0.627420	0.169240	0.783920
O2191	O219	0.555200	0.125300	0.481700
O2201	O220	0.567400	0.328300	0.533580
O2211	O221	0.833610	0.395490	0.772350
O2221	O222	0.900920	0.429400	0.695810
O2231	O223	0.589550	0.456960	0.754570
O2241	O224	0.591550	0.407410	0.658100
O2251	O225	0.681740	0.420390	0.552240
O2261	O226	0.772550	0.478070	0.541950
O2271	O227	0.786030	0.550900	0.789470
O2281	O228	0.719050	0.481470	0.840210
O2291	O229	0.716080	0.372580	0.669240
O2301	O230	0.018300	0.444800	0.625300
O2311	O231	0.966420	0.432600	0.828300
O2321	O232	0.166390	0.895490	0.727650
O2331	O233	0.099080	0.929400	0.804190
O2341	O234	0.410450	0.956960	0.745430
O2351	O235	0.408450	0.907410	0.841900
O2361	O236	0.318260	0.920390	0.947760
O2371	O237	0.227450	0.978070	0.958050
O2381	O238	0.213970	0.050900	0.710530
O2391	O239	0.280950	0.981470	0.659790
O2401	O240	0.283920	0.872580	0.830760
O2411	O241	0.981700	0.944800	0.874700
O2421	O242	0.033580	0.932600	0.671700
O2431	O243	0.333610	0.104510	0.227650
O2441	O244	0.400920	0.070600	0.304190
O2451	O245	0.089550	0.043040	0.245430
O2461	O246	0.091550	0.092590	0.341900
O2471	O247	0.181740	0.079610	0.447760
O2481	O248	0.272550	0.021930	0.458050
O2491	O249	0.286030	0.949100	0.210530
O2501	O250	0.219050	0.018530	0.159790
O2511	O251	0.216080	0.127420	0.330760
O2521	O252	0.518300	0.055200	0.374700
O2531	O253	0.466420	0.067400	0.171700
O2541	O254	0.666390	0.604510	0.272350
O2551	O255	0.599080	0.570600	0.195810
O2561	O256	0.910450	0.543040	0.254570
O2571	O257	0.908450	0.592590	0.158100
O2581	O258	0.818260	0.579610	0.052240
O2591	O259	0.727450	0.521930	0.041950
O2601	O260	0.713970	0.449100	0.289470
O2611	O261	0.780950	0.518530	0.340210
O2621	O262	0.783920	0.627420	0.169240
O2631	O263	0.481700	0.555200	0.125300
O2641	O264	0.533580	0.567400	0.328300
