data_VURYOX_freeONLY_PM
_symmetry_space_group_name_H-M	'P1'
_cell_length_a	4.708300
_cell_length_b	10.980000
_cell_length_c	31.011000
_cell_angle_alpha	90.000000
_cell_angle_beta	90.000000
_cell_angle_gamma	96.145000
_symmetry_Int_Tables_number 1

loop_
_symmetry_equiv_pos_as_xyz
'x,y,z'

loop_
_atom_site_label
_atom_site_type_symbol
_atom_site_fract_x
_atom_site_fract_y
_atom_site_fract_z
Cu11	Cu1	0.518730	0.397260	0.806170
Cu21	Cu2	0.481270	0.102740	0.306170
Cu31	Cu3	0.481270	0.602740	0.193830
Cu41	Cu4	0.518730	0.897260	0.693830
H11	H1	0.630000	0.461000	0.708000
H21	H2	0.450000	0.364000	0.646000
H31	H3	0.770000	0.297000	0.869400
H41	H4	0.455800	0.610700	0.878000
H51	H5	0.656200	0.636600	0.946600
H61	H6	0.958600	0.320700	0.937600
H71	H7	0.370000	0.039000	0.208000
H81	H8	0.550000	0.136000	0.146000
H91	H9	0.230000	0.203000	0.369400
H101	H10	0.544200	0.889300	0.378000
H111	H11	0.343800	0.863400	0.446600
H121	H12	0.041400	0.179300	0.437600
H131	H13	0.370000	0.539000	0.292000
H141	H14	0.550000	0.636000	0.354000
H151	H15	0.230000	0.703000	0.130600
H161	H16	0.544200	0.389300	0.122000
H171	H17	0.343800	0.363400	0.053400
H181	H18	0.041400	0.679300	0.062400
H191	H19	0.630000	0.961000	0.792000
H201	H20	0.450000	0.864000	0.854000
H211	H21	0.770000	0.797000	0.630600
H221	H22	0.455800	0.110700	0.622000
H231	H23	0.656200	0.136600	0.553400
H241	H24	0.958600	0.820700	0.562400
C11	C1	0.216500	0.177000	0.794700
C21	C2	0.267400	0.229400	0.749300
C31	C3	0.509500	0.386700	0.709800
C41	C4	0.397500	0.328600	0.673300
C51	C5	0.155200	0.175300	0.712100
C61	C6	0.968300	0.057200	0.708400
C71	C7	0.746340	0.369420	0.885530
C81	C8	0.564970	0.550380	0.889550
C91	C9	0.676210	0.564020	0.930700
C101	C10	0.852810	0.381830	0.925820
C111	C11	0.810990	0.475910	0.948120
C121	C12	0.783500	0.323000	0.294700
C131	C13	0.732600	0.270600	0.249300
C141	C14	0.490500	0.113300	0.209800
C151	C15	0.602500	0.171400	0.173300
C161	C16	0.844800	0.324700	0.212100
C171	C17	0.031700	0.442800	0.208400
C181	C18	0.253660	0.130580	0.385530
C191	C19	0.435030	0.949620	0.389550
C201	C20	0.323790	0.935980	0.430700
C211	C21	0.147190	0.118170	0.425820
C221	C22	0.189010	0.024090	0.448120
C231	C23	0.783500	0.823000	0.205300
C241	C24	0.732600	0.770600	0.250700
C251	C25	0.490500	0.613300	0.290200
C261	C26	0.602500	0.671400	0.326700
C271	C27	0.844800	0.824700	0.287900
C281	C28	0.031700	0.942800	0.291600
C291	C29	0.253660	0.630580	0.114470
C301	C30	0.435030	0.449620	0.110450
C311	C31	0.323790	0.435980	0.069300
C321	C32	0.147190	0.618170	0.074180
C331	C33	0.189010	0.524090	0.051880
C341	C34	0.216500	0.677000	0.705300
C351	C35	0.267400	0.729400	0.750700
C361	C36	0.509500	0.886700	0.790200
C371	C37	0.397500	0.828600	0.826700
C381	C38	0.155200	0.675300	0.787900
C391	C39	0.968300	0.557200	0.791600
C401	C40	0.746340	0.869420	0.614470
C411	C41	0.564970	0.050380	0.610450
C421	C42	0.676210	0.064020	0.569300
C431	C43	0.852810	0.881830	0.574180
C441	C44	0.810990	0.975910	0.551880
N11	N1	0.439500	0.334000	0.748100
N21	N2	0.223300	0.226400	0.674300
N31	N3	0.606880	0.460600	0.867880
N41	N4	0.877750	0.479050	0.995830
N51	N5	0.560500	0.166000	0.248100
N61	N6	0.776700	0.273600	0.174300
N71	N7	0.393120	0.039400	0.367880
N81	N8	0.122250	0.020950	0.495830
N91	N9	0.560500	0.666000	0.251900
N101	N10	0.776700	0.773600	0.325700
N111	N11	0.393120	0.539400	0.132120
N121	N12	0.122250	0.520950	0.004170
N131	N13	0.439500	0.834000	0.751900
N141	N14	0.223300	0.726400	0.825700
N151	N15	0.606880	0.960600	0.632120
N161	N16	0.877750	0.979050	0.504170
O11	O1	0.313400	0.248050	0.824240
O21	O2	0.043820	0.067310	0.799990
O31	O3	0.682420	0.010070	0.708590
O41	O4	0.126910	0.978110	0.703160
O51	O5	0.686600	0.251950	0.324240
O61	O6	0.956180	0.432690	0.299990
O71	O7	0.317580	0.489930	0.208590
O81	O8	0.873090	0.521890	0.203160
O91	O9	0.686600	0.751950	0.175760
O101	O10	0.956180	0.932690	0.200010
O111	O11	0.317580	0.989930	0.291410
O121	O12	0.873090	0.021890	0.296840
O131	O13	0.313400	0.748050	0.675760
O141	O14	0.043820	0.567310	0.700010
O151	O15	0.682420	0.510070	0.791410
O161	O16	0.126910	0.478110	0.796840
