data_VUSKAW_freeONLY_PM
_symmetry_space_group_name_H-M	'P1'
_cell_length_a	18.251900
_cell_length_b	18.251900
_cell_length_c	18.252000
_cell_angle_alpha	60.003700
_cell_angle_beta	60.003700
_cell_angle_gamma	60.000500
_symmetry_Int_Tables_number 1

loop_
_symmetry_equiv_pos_as_xyz
'x,y,z'

loop_
_atom_site_label
_atom_site_type_symbol
_atom_site_fract_x
_atom_site_fract_y
_atom_site_fract_z
Zn11	Zn1	0.880880	0.706520	0.206310
Zn21	Zn2	0.293480	0.119120	0.793690
Zn31	Zn3	0.119120	0.293480	0.793690
Zn41	Zn4	0.706520	0.880880	0.206310
Zn51	Zn5	0.706330	0.706330	0.380800
Zn61	Zn6	0.706450	0.706450	0.206100
Zn71	Zn7	0.293670	0.293670	0.619200
Zn81	Zn8	0.293550	0.293550	0.793900
H11	H1	0.543800	0.063800	0.347700
H21	H2	0.540700	0.847700	0.561600
H31	H3	0.547400	0.061800	0.045200
H41	H4	0.546900	0.846500	0.039900
H51	H5	0.062900	0.847100	0.047000
H61	H6	0.936200	0.456200	0.652300
H71	H7	0.152300	0.459300	0.438400
H81	H8	0.938200	0.452600	0.954800
H91	H9	0.153500	0.453100	0.960100
H101	H10	0.152900	0.937100	0.953000
H111	H11	0.456200	0.936200	0.652300
H121	H12	0.459300	0.152300	0.438400
H131	H13	0.452600	0.938200	0.954800
H141	H14	0.453100	0.153500	0.960100
H151	H15	0.937100	0.152900	0.953000
H161	H16	0.063800	0.543800	0.347700
H171	H17	0.847700	0.540700	0.561600
H181	H18	0.061800	0.547400	0.045200
H191	H19	0.846500	0.546900	0.039900
H201	H20	0.847100	0.062900	0.047000
H211	H21	0.545100	0.545100	0.347000
H221	H22	0.542400	0.542400	0.565500
H231	H23	0.454900	0.454900	0.653000
H241	H24	0.457600	0.457600	0.434500
C11	C1	0.611800	0.890600	0.386400
C21	C2	0.553000	0.947600	0.446800
C31	C3	0.526900	0.037300	0.410000
C41	C4	0.525100	0.909900	0.536000
C51	C5	0.612200	0.889400	0.109800
C61	C6	0.556300	0.945100	0.052900
C71	C7	0.528500	0.036100	0.027700
C81	C8	0.528100	0.908500	0.024300
C91	C9	0.036600	0.909200	0.027500
C101	C10	0.109400	0.388200	0.613600
C111	C11	0.052400	0.447000	0.553200
C121	C12	0.962700	0.473100	0.590000
C131	C13	0.090100	0.474900	0.464000
C141	C14	0.110600	0.387800	0.890200
C151	C15	0.054900	0.443700	0.947100
C161	C16	0.963900	0.471500	0.972300
C171	C17	0.091500	0.471900	0.975700
C181	C18	0.090800	0.963400	0.972500
C191	C19	0.388200	0.109400	0.613600
C201	C20	0.447000	0.052400	0.553200
C211	C21	0.473100	0.962700	0.590000
C221	C22	0.474900	0.090100	0.464000
C231	C23	0.387800	0.110600	0.890200
C241	C24	0.443700	0.054900	0.947100
C251	C25	0.471500	0.963900	0.972300
C261	C26	0.471900	0.091500	0.975700
C271	C27	0.963400	0.090800	0.972500
C281	C28	0.890600	0.611800	0.386400
C291	C29	0.947600	0.553000	0.446800
C301	C30	0.037300	0.526900	0.410000
C311	C31	0.909900	0.525100	0.536000
C321	C32	0.889400	0.612200	0.109800
C331	C33	0.945100	0.556300	0.052900
C341	C34	0.036100	0.528500	0.027700
C351	C35	0.908500	0.528100	0.024300
C361	C36	0.909200	0.036600	0.027500
C371	C37	0.610100	0.610100	0.393000
C381	C38	0.554000	0.554000	0.446000
C391	C39	0.527400	0.527400	0.409000
C401	C40	0.525000	0.525000	0.538000
C411	C41	0.886500	0.886500	0.115000
C421	C42	0.946700	0.946700	0.053000
C431	C43	0.389900	0.389900	0.607000
C441	C44	0.446000	0.446000	0.554000
C451	C45	0.472600	0.472600	0.591000
C461	C46	0.475000	0.475000	0.462000
C471	C47	0.113500	0.113500	0.885000
C481	C48	0.053300	0.053300	0.947000
O11	O1	0.631900	0.804900	0.429900
O21	O2	0.634300	0.931100	0.303700
O31	O3	0.631600	0.803800	0.135100
O41	O4	0.633800	0.929600	0.132300
O51	O5	0.928900	0.803500	0.134600
O61	O6	0.195100	0.368100	0.570100
O71	O7	0.068900	0.365700	0.696300
O81	O8	0.196200	0.368400	0.864900
O91	O9	0.070400	0.366200	0.867700
O101	O10	0.196500	0.071100	0.865400
O111	O11	0.368100	0.195100	0.570100
O121	O12	0.365700	0.068900	0.696300
O131	O13	0.368400	0.196200	0.864900
O141	O14	0.366200	0.070400	0.867700
O151	O15	0.071100	0.196500	0.865400
O161	O16	0.804900	0.631900	0.429900
O171	O17	0.931100	0.634300	0.303700
O181	O18	0.803800	0.631600	0.135100
O191	O19	0.929600	0.633800	0.132300
O201	O20	0.803500	0.928900	0.134600
O211	O21	0.749900	0.749900	0.250200
O221	O22	0.633300	0.633300	0.428900
O231	O23	0.631700	0.631700	0.308400
O241	O24	0.250100	0.250100	0.749800
O251	O25	0.366700	0.366700	0.571100
O261	O26	0.368300	0.368300	0.691600
