data_WAGZEL_freeONLY_PM
_symmetry_space_group_name_H-M	'P1'
_cell_length_a	9.097000
_cell_length_b	10.923000
_cell_length_c	17.877000
_cell_angle_alpha	90.000000
_cell_angle_beta	90.000000
_cell_angle_gamma	111.264000
_symmetry_Int_Tables_number 1

loop_
_symmetry_equiv_pos_as_xyz
'x,y,z'

loop_
_atom_site_label
_atom_site_type_symbol
_atom_site_fract_x
_atom_site_fract_y
_atom_site_fract_z
Nd11	Nd1	0.432300	0.392990	0.698670
Nd21	Nd2	0.067700	0.607010	0.198670
Nd31	Nd3	0.567700	0.607010	0.301330
Nd41	Nd4	0.932300	0.392990	0.801330
H11	H1	0.203600	0.177500	0.450200
H21	H2	0.962700	0.981300	0.627900
H31	H3	0.449000	0.872100	0.472100
H41	H4	0.127600	0.771600	0.633500
H51	H5	0.245300	0.906900	0.533300
H61	H6	0.793000	0.571300	0.522500
H71	H7	0.040900	0.346600	0.578200
H81	H8	0.296400	0.822500	0.950200
H91	H9	0.537300	0.018700	0.127900
H101	H10	0.051000	0.127900	0.972100
H111	H11	0.372400	0.228400	0.133500
H121	H12	0.254700	0.093100	0.033300
H131	H13	0.707000	0.428700	0.022500
H141	H14	0.459100	0.653400	0.078200
H151	H15	0.796400	0.822500	0.549800
H161	H16	0.037300	0.018700	0.372100
H171	H17	0.551000	0.127900	0.527900
H181	H18	0.872400	0.228400	0.366500
H191	H19	0.754700	0.093100	0.466700
H201	H20	0.207000	0.428700	0.477500
H211	H21	0.959100	0.653400	0.421800
H221	H22	0.703600	0.177500	0.049800
H231	H23	0.462700	0.981300	0.872100
H241	H24	0.949000	0.872100	0.027900
H251	H25	0.627600	0.771600	0.866500
H261	H26	0.745300	0.906900	0.966700
H271	H27	0.293000	0.571300	0.977500
H281	H28	0.540900	0.346600	0.921800
C11	C1	0.899200	0.449500	0.560530
C21	C2	0.264300	0.664600	0.634320
C31	C3	0.395500	0.646800	0.597130
C41	C4	0.100200	0.095900	0.547310
C51	C5	0.209300	0.196800	0.598720
C61	C6	0.122000	0.106400	0.470390
C71	C7	0.977800	0.989000	0.576420
C81	C8	0.402200	0.821000	0.513300
C91	C9	0.177000	0.573900	0.695430
C101	C10	0.212200	0.760300	0.609200
C111	C11	0.281100	0.841300	0.548800
C121	C12	0.875800	0.542400	0.513530
C131	C13	0.024200	0.408100	0.546740
C141	C14	0.791000	0.395500	0.626040
C151	C15	0.600800	0.550500	0.060530
C161	C16	0.235700	0.335400	0.134320
C171	C17	0.104500	0.353200	0.097130
C181	C18	0.399800	0.904100	0.047310
C191	C19	0.290700	0.803200	0.098720
C201	C20	0.378000	0.893600	0.970390
C211	C21	0.522200	0.011000	0.076420
C221	C22	0.097800	0.179000	0.013300
C231	C23	0.323000	0.426100	0.195430
C241	C24	0.287800	0.239700	0.109200
C251	C25	0.218900	0.158700	0.048800
C261	C26	0.624200	0.457600	0.013530
C271	C27	0.475800	0.591900	0.046740
C281	C28	0.709000	0.604500	0.126040
C291	C29	0.100800	0.550500	0.439470
C301	C30	0.735700	0.335400	0.365680
C311	C31	0.604500	0.353200	0.402870
C321	C32	0.899800	0.904100	0.452690
C331	C33	0.790700	0.803200	0.401280
C341	C34	0.878000	0.893600	0.529610
C351	C35	0.022200	0.011000	0.423580
C361	C36	0.597800	0.179000	0.486700
C371	C37	0.823000	0.426100	0.304570
C381	C38	0.787800	0.239700	0.390800
C391	C39	0.718900	0.158700	0.451200
C401	C40	0.124200	0.457600	0.486470
C411	C41	0.975800	0.591900	0.453260
C421	C42	0.209000	0.604500	0.373960
C431	C43	0.399200	0.449500	0.939470
C441	C44	0.764300	0.664600	0.865680
C451	C45	0.895500	0.646800	0.902870
C461	C46	0.600200	0.095900	0.952690
C471	C47	0.709300	0.196800	0.901280
C481	C48	0.622000	0.106400	0.029610
C491	C49	0.477800	0.989000	0.923580
C501	C50	0.902200	0.821000	0.986700
C511	C51	0.677000	0.573900	0.804570
C521	C52	0.712200	0.760300	0.890800
C531	C53	0.781100	0.841300	0.951200
C541	C54	0.375800	0.542400	0.986470
C551	C55	0.524200	0.408100	0.953260
C561	C56	0.291000	0.395500	0.873960
N11	N1	0.455500	0.727200	0.537290
N21	N2	0.044500	0.272800	0.037290
N31	N3	0.544500	0.272800	0.462710
N41	N4	0.955500	0.727200	0.962710
O11	O1	0.662400	0.411600	0.626570
O21	O2	0.207300	0.473100	0.712240
O31	O3	0.172200	0.201300	0.665620
O41	O4	0.458400	0.565700	0.612860
O51	O5	0.337600	0.276100	0.574010
O61	O6	0.454600	0.173200	0.728450
O71	O7	0.836800	0.335200	0.675920
O81	O8	0.067800	0.597900	0.728090
O91	O9	0.837600	0.588400	0.126570
O101	O10	0.292700	0.526900	0.212240
O111	O11	0.327800	0.798700	0.165620
O121	O12	0.041600	0.434300	0.112860
O131	O13	0.162400	0.723900	0.074010
O141	O14	0.045400	0.826800	0.228450
O151	O15	0.663200	0.664800	0.175920
O161	O16	0.432200	0.402100	0.228090
O171	O17	0.337600	0.588400	0.373430
O181	O18	0.792700	0.526900	0.287760
O191	O19	0.827800	0.798700	0.334380
O201	O20	0.541600	0.434300	0.387140
O211	O21	0.662400	0.723900	0.425990
O221	O22	0.545400	0.826800	0.271550
O231	O23	0.163200	0.664800	0.324080
O241	O24	0.932200	0.402100	0.271910
O251	O25	0.162400	0.411600	0.873430
O261	O26	0.707300	0.473100	0.787760
O271	O27	0.672200	0.201300	0.834380
O281	O28	0.958400	0.565700	0.887140
O291	O29	0.837600	0.276100	0.925990
O301	O30	0.954600	0.173200	0.771550
O311	O31	0.336800	0.335200	0.824080
O321	O32	0.567800	0.597900	0.771910
