data_WALBOC_freeONLY_PM
_symmetry_space_group_name_H-M	'P1'
_cell_length_a	12.930500
_cell_length_b	13.796100
_cell_length_c	16.829500
_cell_angle_alpha	90.000000
_cell_angle_beta	90.000000
_cell_angle_gamma	90.000000
_symmetry_Int_Tables_number 1

loop_
_symmetry_equiv_pos_as_xyz
'x,y,z'

loop_
_atom_site_label
_atom_site_type_symbol
_atom_site_fract_x
_atom_site_fract_y
_atom_site_fract_z
Zn11	Zn1	0.475690	0.407300	0.423900
Zn21	Zn2	0.427070	0.477930	0.096490
Zn31	Zn3	0.524310	0.092700	0.923900
Zn41	Zn4	0.572930	0.022070	0.596490
Zn51	Zn5	0.975690	0.592700	0.076100
Zn61	Zn6	0.927070	0.522070	0.403510
Zn71	Zn7	0.024310	0.907300	0.576100
Zn81	Zn8	0.072930	0.977930	0.903510
Zn91	Zn9	0.524310	0.592700	0.576100
Zn101	Zn10	0.572930	0.522070	0.903510
Zn111	Zn11	0.475690	0.907300	0.076100
Zn121	Zn12	0.427070	0.977930	0.403510
Zn131	Zn13	0.024310	0.407300	0.923900
Zn141	Zn14	0.072930	0.477930	0.596490
Zn151	Zn15	0.975690	0.092700	0.423900
Zn161	Zn16	0.927070	0.022070	0.096490
H11	H1	0.248300	0.362600	0.500400
H21	H2	0.444800	0.195000	0.352800
H31	H3	0.327800	0.670100	0.644600
H41	H4	0.218800	0.632700	0.660500
H51	H5	0.588700	0.237900	0.625200
H61	H6	0.564500	0.333600	0.584000
H71	H7	0.751700	0.137400	0.000400
H81	H8	0.555200	0.305000	0.852800
H91	H9	0.672200	0.829900	0.144600
H101	H10	0.781200	0.867300	0.160500
H111	H11	0.411300	0.262100	0.125200
H121	H12	0.435500	0.166400	0.084000
H131	H13	0.748300	0.637400	0.999600
H141	H14	0.944800	0.805000	0.147200
H151	H15	0.827800	0.329900	0.855400
H161	H16	0.718800	0.367300	0.839500
H171	H17	0.088700	0.762100	0.874800
H181	H18	0.064500	0.666400	0.916000
H191	H19	0.251700	0.862600	0.499600
H201	H20	0.055200	0.695000	0.647200
H211	H21	0.172200	0.170100	0.355400
H221	H22	0.281200	0.132700	0.339500
H231	H23	0.911300	0.737900	0.374800
H241	H24	0.935500	0.833600	0.416000
H251	H25	0.751700	0.637400	0.499600
H261	H26	0.555200	0.805000	0.647200
H271	H27	0.672200	0.329900	0.355400
H281	H28	0.781200	0.367300	0.339500
H291	H29	0.411300	0.762100	0.374800
H301	H30	0.435500	0.666400	0.416000
H311	H31	0.248300	0.862600	0.999600
H321	H32	0.444800	0.695000	0.147200
H331	H33	0.327800	0.170100	0.855400
H341	H34	0.218800	0.132700	0.839500
H351	H35	0.588700	0.737900	0.874800
H361	H36	0.564500	0.833600	0.916000
H371	H37	0.251700	0.362600	0.000400
H381	H38	0.055200	0.195000	0.852800
H391	H39	0.172200	0.670100	0.144600
H401	H40	0.281200	0.632700	0.160500
H411	H41	0.911300	0.237900	0.125200
H421	H42	0.935500	0.333600	0.084000
H431	H43	0.748300	0.137400	0.500400
H441	H44	0.944800	0.305000	0.352800
H451	H45	0.827800	0.829900	0.644600
H461	H46	0.718800	0.867300	0.660500
H471	H47	0.088700	0.262100	0.625200
H481	H48	0.064500	0.166400	0.584000
C11	C1	0.423100	0.506200	0.277200
C21	C2	0.473700	0.408700	0.253200
C31	C3	0.298400	0.547500	0.589800
C41	C4	0.278000	0.419100	0.523200
C51	C5	0.527600	0.221200	0.520900
C61	C6	0.470600	0.188000	0.405300
C71	C7	0.576900	0.993800	0.777200
C81	C8	0.526300	0.091300	0.753200
C91	C9	0.701600	0.952500	0.089800
C101	C10	0.722000	0.080900	0.023200
C111	C11	0.472400	0.278800	0.020900
C121	C12	0.529400	0.312000	0.905300
C131	C13	0.923100	0.493800	0.222800
C141	C14	0.973700	0.591300	0.246800
C151	C15	0.798400	0.452500	0.910200
C161	C16	0.778000	0.580900	0.976800
C171	C17	0.027600	0.778800	0.979100
C181	C18	0.970600	0.812000	0.094700
C191	C19	0.076900	0.006200	0.722800
C201	C20	0.026300	0.908700	0.746800
C211	C21	0.201600	0.047500	0.410200
C221	C22	0.222000	0.919100	0.476800
C231	C23	0.972400	0.721200	0.479100
C241	C24	0.029400	0.688000	0.594700
C251	C25	0.576900	0.493800	0.722800
C261	C26	0.526300	0.591300	0.746800
C271	C27	0.701600	0.452500	0.410200
C281	C28	0.722000	0.580900	0.476800
C291	C29	0.472400	0.778800	0.479100
C301	C30	0.529400	0.812000	0.594700
C311	C31	0.423100	0.006200	0.222800
C321	C32	0.473700	0.908700	0.246800
C331	C33	0.298400	0.047500	0.910200
C341	C34	0.278000	0.919100	0.976800
C351	C35	0.527600	0.721200	0.979100
C361	C36	0.470600	0.688000	0.094700
C371	C37	0.076900	0.506200	0.777200
C381	C38	0.026300	0.408700	0.753200
C391	C39	0.201600	0.547500	0.089800
C401	C40	0.222000	0.419100	0.023200
C411	C41	0.972400	0.221200	0.020900
C421	C42	0.029400	0.188000	0.905300
C431	C43	0.923100	0.993800	0.277200
C441	C44	0.973700	0.091300	0.253200
C451	C45	0.798400	0.952500	0.589800
C461	C46	0.778000	0.080900	0.523200
C471	C47	0.027600	0.278800	0.520900
C481	C48	0.970600	0.312000	0.405300
N11	N1	0.225600	0.478500	0.573500
N21	N2	0.372300	0.446700	0.509300
N31	N3	0.386400	0.531700	0.552800
N41	N4	0.279400	0.626100	0.637300
N51	N5	0.487100	0.104000	0.439600
N61	N6	0.524400	0.123600	0.515300
N71	N7	0.494200	0.263200	0.452800
N81	N8	0.564500	0.269800	0.583900
N91	N9	0.774400	0.021500	0.073500
N101	N10	0.627700	0.053300	0.009300
N111	N11	0.613600	0.968300	0.052800
N121	N12	0.720600	0.873900	0.137300
N131	N13	0.512900	0.396000	0.939600
N141	N14	0.475600	0.376400	0.015300
N151	N15	0.505800	0.236800	0.952800
N161	N16	0.435500	0.230200	0.083900
N171	N17	0.725600	0.521500	0.926500
N181	N18	0.872300	0.553300	0.990700
N191	N19	0.886400	0.468300	0.947200
N201	N20	0.779400	0.373900	0.862700
N211	N21	0.987100	0.896000	0.060400
N221	N22	0.024400	0.876400	0.984700
N231	N23	0.994200	0.736800	0.047200
N241	N24	0.064500	0.730200	0.916100
N251	N25	0.274400	0.978500	0.426500
N261	N26	0.127700	0.946700	0.490700
N271	N27	0.113600	0.031700	0.447200
N281	N28	0.220600	0.126100	0.362700
N291	N29	0.012900	0.604000	0.560400
N301	N30	0.975600	0.623600	0.484700
N311	N31	0.005800	0.763200	0.547200
N321	N32	0.935500	0.769800	0.416100
N331	N33	0.774400	0.521500	0.426500
N341	N34	0.627700	0.553300	0.490700
N351	N35	0.613600	0.468300	0.447200
N361	N36	0.720600	0.373900	0.362700
N371	N37	0.512900	0.896000	0.560400
N381	N38	0.475600	0.876400	0.484700
N391	N39	0.505800	0.736800	0.547200
N401	N40	0.435500	0.730200	0.416100
N411	N41	0.225600	0.978500	0.926500
N421	N42	0.372300	0.946700	0.990700
N431	N43	0.386400	0.031700	0.947200
N441	N44	0.279400	0.126100	0.862700
N451	N45	0.487100	0.604000	0.060400
N461	N46	0.524400	0.623600	0.984700
N471	N47	0.494200	0.763200	0.047200
N481	N48	0.564500	0.769800	0.916100
N491	N49	0.274400	0.478500	0.073500
N501	N50	0.127700	0.446700	0.009300
N511	N51	0.113600	0.531700	0.052800
N521	N52	0.220600	0.626100	0.137300
N531	N53	0.012900	0.104000	0.939600
N541	N54	0.975600	0.123600	0.015300
N551	N55	0.005800	0.263200	0.952800
N561	N56	0.935500	0.269800	0.083900
N571	N57	0.725600	0.021500	0.573500
N581	N58	0.872300	0.053300	0.509300
N591	N59	0.886400	0.968300	0.552800
N601	N60	0.779400	0.873900	0.637300
N611	N61	0.987100	0.396000	0.439600
N621	N62	0.024400	0.376400	0.515300
N631	N63	0.994200	0.236800	0.452800
N641	N64	0.064500	0.230200	0.583900
O11	O1	0.484400	0.391100	0.181500
O21	O2	0.395000	0.558600	0.220800
O31	O3	0.501900	0.354300	0.309000
O41	O4	0.415500	0.522300	0.350200
O51	O5	0.515600	0.108900	0.681500
O61	O6	0.605000	0.941400	0.720800
O71	O7	0.498100	0.145700	0.809000
O81	O8	0.584500	0.977700	0.850200
O91	O9	0.984400	0.608900	0.318500
O101	O10	0.895000	0.441400	0.279200
O111	O11	0.001900	0.645700	0.191000
O121	O12	0.915500	0.477700	0.149800
O131	O13	0.015600	0.891100	0.818500
O141	O14	0.105000	0.058600	0.779200
O151	O15	0.998100	0.854300	0.691000
O161	O16	0.084500	0.022300	0.649800
O171	O17	0.515600	0.608900	0.818500
O181	O18	0.605000	0.441400	0.779200
O191	O19	0.498100	0.645700	0.691000
O201	O20	0.584500	0.477700	0.649800
O211	O21	0.484400	0.891100	0.318500
O221	O22	0.395000	0.058600	0.279200
O231	O23	0.501900	0.854300	0.191000
O241	O24	0.415500	0.022300	0.149800
O251	O25	0.015600	0.391100	0.681500
O261	O26	0.105000	0.558600	0.720800
O271	O27	0.998100	0.354300	0.809000
O281	O28	0.084500	0.522300	0.850200
O291	O29	0.984400	0.108900	0.181500
O301	O30	0.895000	0.941400	0.220800
O311	O31	0.001900	0.145700	0.309000
O321	O32	0.915500	0.977700	0.350200
