data_WARJAC_freeONLY_PM
_symmetry_space_group_name_H-M	'P1'
_cell_length_a	11.924500
_cell_length_b	11.924500
_cell_length_c	16.302000
_cell_angle_alpha	90.000000
_cell_angle_beta	90.000000
_cell_angle_gamma	120.000000
_symmetry_Int_Tables_number 1

loop_
_symmetry_equiv_pos_as_xyz
'x,y,z'

loop_
_atom_site_label
_atom_site_type_symbol
_atom_site_fract_x
_atom_site_fract_y
_atom_site_fract_z
Ni11	Ni1	0.456620	0.504880	0.858930
Ni21	Ni2	0.048260	0.543380	0.525600
Ni31	Ni3	0.495120	0.951740	0.192260
Ni41	Ni4	0.951740	0.495120	0.141070
Ni51	Ni5	0.504880	0.456620	0.474400
Ni61	Ni6	0.543380	0.048260	0.807740
Ni71	Ni7	0.373250	0.000000	0.000000
Ni81	Ni8	0.626750	0.626750	0.666670
Ni91	Ni9	0.000000	0.373250	0.333330
H11	H1	0.303900	0.456200	0.995500
H21	H2	0.426800	0.531300	0.974100
H31	H3	0.300800	0.488800	0.753000
H41	H4	0.600100	0.595000	0.968600
H51	H5	0.246800	0.362300	0.768200
H61	H6	0.689700	0.649800	0.912400
H71	H7	0.152300	0.696100	0.662170
H81	H8	0.104500	0.573200	0.640770
H91	H9	0.188000	0.699200	0.419670
H101	H10	0.994900	0.399900	0.635270
H111	H11	0.115500	0.753200	0.434870
H121	H12	0.960100	0.310300	0.579070
H131	H13	0.543800	0.847700	0.328830
H141	H14	0.468700	0.895500	0.307430
H151	H15	0.511200	0.812000	0.086330
H161	H16	0.405000	0.005100	0.301930
H171	H17	0.637700	0.884500	0.101530
H181	H18	0.350200	0.039900	0.245730
H191	H19	0.847700	0.543800	0.004500
H201	H20	0.895500	0.468700	0.025900
H211	H21	0.812000	0.511200	0.247000
H221	H22	0.005100	0.405000	0.031400
H231	H23	0.884500	0.637700	0.231800
H241	H24	0.039900	0.350200	0.087600
H251	H25	0.456200	0.303900	0.337830
H261	H26	0.531300	0.426800	0.359230
H271	H27	0.488800	0.300800	0.580330
H281	H28	0.595000	0.600100	0.364730
H291	H29	0.362300	0.246800	0.565130
H301	H30	0.649800	0.689700	0.420930
H311	H31	0.696100	0.152300	0.671170
H321	H32	0.573200	0.104500	0.692570
H331	H33	0.699200	0.188000	0.913670
H341	H34	0.399900	0.994900	0.698070
H351	H35	0.753200	0.115500	0.898470
H361	H36	0.310300	0.960100	0.754270
C11	C1	0.486100	0.286400	0.825000
C21	C2	0.393500	0.232300	0.939000
C31	C3	0.538400	0.364900	0.748100
C41	C4	0.319900	0.210700	0.017200
C51	C5	0.800300	0.513900	0.491670
C61	C6	0.838800	0.606500	0.605670
C71	C7	0.826500	0.461600	0.414770
C81	C8	0.890800	0.680100	0.683870
C91	C9	0.713600	0.199700	0.158330
C101	C10	0.767700	0.161200	0.272330
C111	C11	0.635100	0.173500	0.081430
C121	C12	0.789300	0.109200	0.350530
C131	C13	0.199700	0.713600	0.175000
C141	C14	0.161200	0.767700	0.061000
C151	C15	0.173500	0.635100	0.251900
C161	C16	0.109200	0.789300	0.982800
C171	C17	0.286400	0.486100	0.508330
C181	C18	0.232300	0.393500	0.394330
C191	C19	0.364900	0.538400	0.585230
C201	C20	0.210700	0.319900	0.316130
C211	C21	0.513900	0.800300	0.841670
C221	C22	0.606500	0.838800	0.727670
C231	C23	0.461600	0.826500	0.918570
C241	C24	0.680100	0.890800	0.649470
N11	N1	0.425500	0.145000	0.920140
N21	N2	0.427700	0.322900	0.881700
N31	N3	0.487300	0.178200	0.846300
N41	N4	0.719500	0.574500	0.586810
N51	N5	0.895200	0.572300	0.548370
N61	N6	0.690900	0.512700	0.512970
N71	N7	0.855000	0.280500	0.253470
N81	N8	0.677100	0.104800	0.215030
N91	N9	0.821800	0.309100	0.179630
N101	N10	0.280500	0.855000	0.079860
N111	N11	0.104800	0.677100	0.118300
N121	N12	0.309100	0.821800	0.153700
N131	N13	0.145000	0.425500	0.413190
N141	N14	0.322900	0.427700	0.451630
N151	N15	0.178200	0.487300	0.487030
N161	N16	0.574500	0.719500	0.746530
N171	N17	0.572300	0.895200	0.784970
N181	N18	0.512700	0.690900	0.820370
O11	O1	0.543200	0.475100	0.751370
O21	O2	0.301600	0.111000	0.056570
O31	O3	0.569700	0.322900	0.689000
O41	O4	0.287200	0.435500	0.791500
O51	O5	0.627000	0.575700	0.925400
O61	O6	0.350400	0.503300	0.956100
O71	O7	0.280800	0.285300	0.038800
O81	O8	0.931900	0.456800	0.418040
O91	O9	0.809400	0.698400	0.723240
O101	O10	0.753200	0.430300	0.355670
O111	O11	0.148300	0.712800	0.458170
O121	O12	0.948700	0.373000	0.592070
O131	O13	0.152900	0.649600	0.622770
O141	O14	0.004500	0.719200	0.705470
O151	O15	0.524900	0.068100	0.084700
O161	O16	0.889000	0.190600	0.389900
O171	O17	0.677100	0.246800	0.022330
O181	O18	0.564500	0.851700	0.124830
O191	O19	0.424300	0.051300	0.258730
O201	O20	0.496700	0.847100	0.289430
O211	O21	0.714700	0.995500	0.372130
O221	O22	0.068100	0.524900	0.248630
O231	O23	0.190600	0.889000	0.943430
O241	O24	0.246800	0.677100	0.311000
O251	O25	0.851700	0.564500	0.208500
O261	O26	0.051300	0.424300	0.074600
O271	O27	0.847100	0.496700	0.043900
O281	O28	0.995500	0.714700	0.961200
O291	O29	0.475100	0.543200	0.581960
O301	O30	0.111000	0.301600	0.276760
O311	O31	0.322900	0.569700	0.644330
O321	O32	0.435500	0.287200	0.541830
O331	O33	0.575700	0.627000	0.407930
O341	O34	0.503300	0.350400	0.377230
O351	O35	0.285300	0.280800	0.294530
O361	O36	0.456800	0.931900	0.915300
O371	O37	0.698400	0.809400	0.610100
O381	O38	0.430300	0.753200	0.977670
O391	O39	0.712800	0.148300	0.875170
O401	O40	0.373000	0.948700	0.741270
O411	O41	0.649600	0.152900	0.710570
O421	O42	0.719200	0.004500	0.627870
