data_WASNIO_freeONLY_PM
_symmetry_space_group_name_H-M	'P1'
_cell_length_a	8.736200
_cell_length_b	8.902300
_cell_length_c	24.059000
_cell_angle_alpha	93.750000
_cell_angle_beta	90.000000
_cell_angle_gamma	90.000000
_symmetry_Int_Tables_number 1

loop_
_symmetry_equiv_pos_as_xyz
'x,y,z'

loop_
_atom_site_label
_atom_site_type_symbol
_atom_site_fract_x
_atom_site_fract_y
_atom_site_fract_z
Cu11	Cu1	0.712660	0.750000	0.750000
Cu21	Cu2	0.287340	0.250000	0.250000
Cu31	Cu3	0.000000	0.500000	0.500000
Cu41	Cu4	0.000000	0.000000	0.000000
H11	H1	0.000600	0.550500	0.629700
H21	H2	0.215600	0.233700	0.540100
H31	H3	0.279600	0.202500	0.638000
H41	H4	0.117300	0.521600	0.724300
H51	H5	0.255900	0.411400	0.726700
H61	H6	0.085500	0.352200	0.789300
H71	H7	0.952800	0.349900	0.746400
H81	H8	0.653800	0.664300	0.623700
H91	H9	0.647900	0.396500	0.745100
H101	H10	0.586000	0.243800	0.659200
H111	H11	0.519400	0.312700	0.557000
H121	H12	0.683300	0.372400	0.543700
H131	H13	0.584200	0.612200	0.531600
H141	H14	0.420000	0.558200	0.548100
H151	H15	0.018000	0.003000	0.550100
H161	H16	0.097800	0.945000	0.602700
H171	H17	0.854800	0.059800	0.619400
H181	H18	0.780700	0.920700	0.586600
H191	H19	0.000600	0.949500	0.870300
H201	H20	0.215600	0.266300	0.959900
H211	H21	0.279600	0.297500	0.862000
H221	H22	0.117300	0.978400	0.775700
H231	H23	0.255900	0.088600	0.773300
H241	H24	0.085500	0.147800	0.710700
H251	H25	0.952800	0.150100	0.753600
H261	H26	0.653800	0.835700	0.876300
H271	H27	0.647900	0.103500	0.754900
H281	H28	0.586000	0.256200	0.840800
H291	H29	0.519400	0.187300	0.943000
H301	H30	0.683300	0.127600	0.956300
H311	H31	0.584200	0.887800	0.968400
H321	H32	0.420000	0.941800	0.951900
H331	H33	0.018000	0.497000	0.949900
H341	H34	0.097800	0.555000	0.897300
H351	H35	0.854800	0.440200	0.880600
H361	H36	0.780700	0.579300	0.913400
H371	H37	0.999400	0.449500	0.370300
H381	H38	0.784400	0.766300	0.459900
H391	H39	0.720400	0.797500	0.362000
H401	H40	0.882700	0.478400	0.275700
H411	H41	0.744100	0.588600	0.273300
H421	H42	0.914500	0.647800	0.210700
H431	H43	0.047200	0.650100	0.253600
H441	H44	0.346200	0.335700	0.376300
H451	H45	0.352100	0.603500	0.254900
H461	H46	0.414000	0.756200	0.340800
H471	H47	0.480600	0.687300	0.443000
H481	H48	0.316700	0.627600	0.456300
H491	H49	0.415800	0.387800	0.468400
H501	H50	0.580000	0.441800	0.451900
H511	H51	0.982000	0.997000	0.449900
H521	H52	0.902200	0.055000	0.397300
H531	H53	0.145200	0.940200	0.380600
H541	H54	0.219300	0.079300	0.413400
H551	H55	0.999400	0.050500	0.129700
H561	H56	0.784400	0.733700	0.040100
H571	H57	0.720400	0.702500	0.138000
H581	H58	0.882700	0.021600	0.224300
H591	H59	0.744100	0.911400	0.226700
H601	H60	0.914500	0.852200	0.289300
H611	H61	0.047200	0.849900	0.246400
H621	H62	0.346200	0.164300	0.123700
H631	H63	0.352100	0.896500	0.245100
H641	H64	0.414000	0.743800	0.159200
H651	H65	0.480600	0.812700	0.057000
H661	H66	0.316700	0.872400	0.043700
H671	H67	0.415800	0.112200	0.031600
H681	H68	0.580000	0.058200	0.048100
H691	H69	0.982000	0.503000	0.050100
H701	H70	0.902200	0.445000	0.102700
H711	H71	0.145200	0.559800	0.119400
H721	H72	0.219300	0.420700	0.086600
C11	C1	0.061400	0.467800	0.619100
C21	C2	0.179800	0.293600	0.570400
C31	C3	0.216000	0.275600	0.624400
C41	C4	0.149300	0.418300	0.715800
C51	C5	0.058700	0.320700	0.751200
C61	C6	0.645100	0.578500	0.643470
C71	C7	0.641900	0.432300	0.709660
C81	C8	0.607100	0.346300	0.662350
C91	C9	0.585800	0.400100	0.560730
C101	C10	0.515200	0.526600	0.530170
C111	C11	0.034700	0.775200	0.547050
C121	C12	0.012500	0.927400	0.577330
C131	C13	0.866300	0.952700	0.610140
C141	C14	0.858000	0.871600	0.663080
C151	C15	0.061400	0.032200	0.880900
C161	C16	0.179800	0.206400	0.929600
C171	C17	0.216000	0.224400	0.875600
C181	C18	0.149300	0.081700	0.784200
C191	C19	0.058700	0.179300	0.748800
C201	C20	0.645100	0.921500	0.856530
C211	C21	0.641900	0.067700	0.790340
C221	C22	0.607100	0.153700	0.837650
C231	C23	0.585800	0.099900	0.939270
C241	C24	0.515200	0.973400	0.969830
C251	C25	0.034700	0.724800	0.952950
C261	C26	0.012500	0.572600	0.922670
C271	C27	0.866300	0.547300	0.889860
C281	C28	0.858000	0.628400	0.836920
C291	C29	0.938600	0.532200	0.380900
C301	C30	0.820200	0.706400	0.429600
C311	C31	0.784000	0.724400	0.375600
C321	C32	0.850700	0.581700	0.284200
C331	C33	0.941300	0.679300	0.248800
C341	C34	0.354900	0.421500	0.356530
C351	C35	0.358100	0.567700	0.290340
C361	C36	0.392900	0.653700	0.337650
C371	C37	0.414200	0.599900	0.439270
C381	C38	0.484800	0.473400	0.469830
C391	C39	0.965300	0.224800	0.452950
C401	C40	0.987500	0.072600	0.422670
C411	C41	0.133700	0.047300	0.389860
C421	C42	0.142000	0.128400	0.336920
C431	C43	0.938600	0.967800	0.119100
C441	C44	0.820200	0.793600	0.070400
C451	C45	0.784000	0.775600	0.124400
C461	C46	0.850700	0.918300	0.215800
C471	C47	0.941300	0.820700	0.251200
C481	C48	0.354900	0.078500	0.143470
C491	C49	0.358100	0.932300	0.209660
C501	C50	0.392900	0.846300	0.162350
C511	C51	0.414200	0.900100	0.060730
C521	C52	0.484800	0.026600	0.030170
C531	C53	0.965300	0.275200	0.047050
C541	C54	0.987500	0.427400	0.077330
C551	C55	0.133700	0.452700	0.110140
C561	C56	0.142000	0.371600	0.163080
N11	N1	0.081700	0.414700	0.567470
N21	N2	0.139900	0.386800	0.654810
N31	N3	0.666100	0.575900	0.697970
N41	N4	0.610100	0.442800	0.620730
N51	N5	0.081700	0.085300	0.932530
N61	N6	0.139900	0.113200	0.845190
N71	N7	0.666100	0.924100	0.802030
N81	N8	0.610100	0.057200	0.879270
N91	N9	0.918300	0.585300	0.432530
N101	N10	0.860100	0.613200	0.345190
N111	N11	0.333900	0.424100	0.302030
N121	N12	0.389900	0.557200	0.379270
N131	N13	0.918300	0.914700	0.067470
N141	N14	0.860100	0.886800	0.154810
N151	N15	0.333900	0.075900	0.197970
N161	N16	0.389900	0.942800	0.120730
O11	O1	0.965700	0.798700	0.680060
O21	O2	0.728500	0.882200	0.688440
O31	O3	0.925900	0.680300	0.546270
O41	O4	0.157500	0.750300	0.523050
O51	O5	0.965700	0.701300	0.819940
O61	O6	0.728500	0.617800	0.811560
O71	O7	0.925900	0.819700	0.953730
O81	O8	0.157500	0.749700	0.976950
O91	O9	0.034300	0.201300	0.319940
O101	O10	0.271500	0.117800	0.311560
O111	O11	0.074100	0.319700	0.453730
O121	O12	0.842500	0.249700	0.476950
O131	O13	0.034300	0.298700	0.180060
O141	O14	0.271500	0.382200	0.188440
O151	O15	0.074100	0.180300	0.046270
O161	O16	0.842500	0.250300	0.023050
