data_WASNOU_freeONLY_PM
_symmetry_space_group_name_H-M	'P1'
_cell_length_a	10.702000
_cell_length_b	11.186000
_cell_length_c	22.584000
_cell_angle_alpha	93.800000
_cell_angle_beta	90.130000
_cell_angle_gamma	115.570000
_symmetry_Int_Tables_number 1

loop_
_symmetry_equiv_pos_as_xyz
'x,y,z'

loop_
_atom_site_label
_atom_site_type_symbol
_atom_site_fract_x
_atom_site_fract_y
_atom_site_fract_z
Cu11	Cu1	0.200540	0.510490	0.725790
Cu21	Cu2	0.799460	0.489510	0.274210
Cu31	Cu3	0.500000	0.500000	0.500000
Cu41	Cu4	0.000000	0.000000	0.000000
H11	H1	0.639100	0.314000	0.518900
H21	H2	0.321300	0.320300	0.602000
H31	H3	0.360500	0.137300	0.637500
H41	H4	0.668100	0.127400	0.570600
H51	H5	0.559100	0.054100	0.617800
H61	H6	0.521500	0.907900	0.534900
H71	H7	0.392900	0.939500	0.541000
H81	H8	0.404200	0.595500	0.839200
H91	H9	0.147000	0.237300	0.780600
H101	H10	0.274600	0.216600	0.865100
H111	H11	0.424200	0.440700	0.957100
H121	H12	0.530600	0.556300	0.922200
H131	H13	0.511700	0.297200	0.917200
H141	H14	0.628900	0.420200	0.952200
H151	H15	0.596900	0.388600	0.827000
H161	H16	0.713400	0.513400	0.861600
H171	H17	0.812100	0.383400	0.897200
H181	H18	0.691100	0.254400	0.868000
H191	H19	0.017500	0.499600	0.834200
H201	H20	0.887400	0.294100	0.681800
H211	H21	0.689100	0.221600	0.747800
H221	H22	0.470500	0.466000	0.734200
H231	H23	0.409900	0.706900	0.633200
H241	H24	0.636300	0.715200	0.611100
H251	H25	0.728300	0.512100	0.639100
H261	H26	0.703300	0.488100	0.706600
H271	H27	0.925000	0.649100	0.695300
H281	H28	0.867200	0.734400	0.662200
H291	H29	0.834500	0.687700	0.783100
H301	H30	0.764700	0.764400	0.750700
H311	H31	0.056900	0.856500	0.766200
H321	H32	0.990000	0.931800	0.730800
H331	H33	0.048300	0.876300	0.880400
H341	H34	0.865000	0.058400	0.795700
H351	H35	0.875700	0.120500	0.901600
H361	H36	0.050100	0.418000	0.411500
H371	H37	0.191200	0.496500	0.955000
H381	H38	0.360900	0.686000	0.481100
H391	H39	0.678700	0.679700	0.398000
H401	H40	0.639500	0.862700	0.362500
H411	H41	0.331900	0.872600	0.429400
H421	H42	0.440900	0.945900	0.382200
H431	H43	0.478500	0.092100	0.465100
H441	H44	0.607100	0.060500	0.459000
H451	H45	0.595800	0.404500	0.160800
H461	H46	0.853000	0.762700	0.219400
H471	H47	0.725400	0.783400	0.134900
H481	H48	0.575800	0.559300	0.042900
H491	H49	0.469400	0.443700	0.077800
H501	H50	0.488300	0.702800	0.082800
H511	H51	0.371100	0.579800	0.047800
H521	H52	0.403100	0.611400	0.173000
H531	H53	0.286600	0.486600	0.138400
H541	H54	0.187900	0.616600	0.102800
H551	H55	0.308900	0.745600	0.132000
H561	H56	0.982500	0.500400	0.165800
H571	H57	0.112600	0.705900	0.318200
H581	H58	0.310900	0.778400	0.252200
H591	H59	0.529500	0.534000	0.265800
H601	H60	0.590100	0.293100	0.366800
H611	H61	0.363700	0.284800	0.388900
H621	H62	0.271700	0.487900	0.360900
H631	H63	0.296700	0.511900	0.293400
H641	H64	0.075000	0.350900	0.304700
H651	H65	0.132800	0.265600	0.337800
H661	H66	0.165500	0.312300	0.216900
H671	H67	0.235300	0.235600	0.249300
H681	H68	0.943100	0.143500	0.233800
H691	H69	0.010000	0.068200	0.269200
H701	H70	0.951700	0.123700	0.119600
H711	H71	0.135000	0.941600	0.204300
H721	H72	0.124300	0.879500	0.098400
H731	H73	0.949900	0.582000	0.588500
H741	H74	0.808800	0.503500	0.045000
C11	C1	0.565200	0.293700	0.544100
C21	C2	0.390900	0.296400	0.589800
C31	C3	0.411700	0.194900	0.609600
C41	C4	0.570200	0.089500	0.579000
C51	C5	0.490600	0.977200	0.532400
C61	C6	0.355200	0.503400	0.835030
C71	C7	0.215200	0.307800	0.803200
C81	C8	0.285100	0.295400	0.849700
C91	C9	0.474600	0.461000	0.920630
C101	C10	0.568100	0.392200	0.916980
C111	C11	0.656500	0.418600	0.862510
C121	C12	0.748200	0.347800	0.863130
C131	C13	0.961200	0.439500	0.804070
C141	C14	0.889500	0.327000	0.720910
C151	C15	0.778700	0.285900	0.757100
C161	C16	0.482400	0.526600	0.705960
C171	C17	0.450000	0.658400	0.650630
C181	C18	0.575400	0.663700	0.638510
C191	C19	0.718100	0.552000	0.677200
C201	C20	0.848800	0.673900	0.693400
C211	C21	0.844700	0.745000	0.751220
C221	C22	0.977100	0.875700	0.763370
C231	C23	0.004800	0.930100	0.872690
C241	C24	0.903600	0.030100	0.825600
C251	C25	0.909600	0.063500	0.883900
C261	C26	0.205500	0.395900	0.495020
C271	C27	0.091600	0.442200	0.499430
C281	C28	0.030800	0.452200	0.447110
C291	C29	0.059000	0.487400	0.553110
C301	C30	0.110900	0.466800	0.611740
C311	C31	0.071900	0.278900	0.008290
C321	C32	0.031100	0.392300	0.006600
C331	C33	0.917200	0.394800	0.033640
C341	C34	0.113900	0.498100	0.973080
C351	C35	0.823500	0.291300	0.073900
C361	C36	0.434800	0.706300	0.455900
C371	C37	0.609100	0.703600	0.410200
C381	C38	0.588300	0.805100	0.390400
C391	C39	0.429800	0.910500	0.421000
C401	C40	0.509400	0.022800	0.467600
C411	C41	0.644800	0.496600	0.164970
C421	C42	0.784800	0.692200	0.196800
C431	C43	0.714900	0.704600	0.150300
C441	C44	0.525400	0.539000	0.079370
C451	C45	0.431900	0.607800	0.083020
C461	C46	0.343500	0.581400	0.137490
C471	C47	0.251800	0.652200	0.136870
C481	C48	0.038800	0.560500	0.195930
C491	C49	0.110500	0.673000	0.279090
C501	C50	0.221300	0.714100	0.242900
C511	C51	0.517600	0.473400	0.294040
C521	C52	0.550000	0.341600	0.349370
C531	C53	0.424600	0.336300	0.361490
C541	C54	0.281900	0.448000	0.322800
C551	C55	0.151200	0.326100	0.306600
C561	C56	0.155300	0.255000	0.248780
C571	C57	0.022900	0.124300	0.236630
C581	C58	0.995200	0.069900	0.127310
C591	C59	0.096400	0.969900	0.174400
C601	C60	0.090400	0.936500	0.116100
C611	C61	0.794500	0.604100	0.504980
C621	C62	0.908400	0.557800	0.500570
C631	C63	0.969200	0.547800	0.552890
C641	C64	0.941000	0.512600	0.446890
C651	C65	0.889100	0.533200	0.388260
C661	C66	0.928100	0.721100	0.991710
C671	C67	0.968900	0.607700	0.993400
C681	C68	0.082800	0.605200	0.966360
C691	C69	0.886100	0.501900	0.026920
C701	C70	0.176500	0.708700	0.926100
N11	N1	0.522700	0.193800	0.580480
N21	N2	0.488000	0.358700	0.549070
N31	N3	0.390800	0.569100	0.693190
N41	N4	0.596200	0.580300	0.673690
N51	N5	0.966200	0.945500	0.818690
N61	N6	0.973400	0.000700	0.913470
N71	N7	0.257700	0.437900	0.793830
N81	N8	0.374900	0.421200	0.870010
N91	N9	0.827800	0.359300	0.809650
N101	N10	0.004100	0.423600	0.750570
N111	N11	0.477300	0.806200	0.419520
N121	N12	0.512000	0.641300	0.450930
N131	N13	0.609200	0.430900	0.306810
N141	N14	0.403800	0.419700	0.326310
N151	N15	0.033800	0.054500	0.181310
N161	N16	0.026600	0.999300	0.086530
N171	N17	0.742300	0.562100	0.206170
N181	N18	0.625100	0.578800	0.129990
N191	N19	0.172200	0.640700	0.190350
N201	N20	0.995900	0.576400	0.249430
O11	O1	0.186700	0.295300	0.463770
O21	O2	0.317300	0.477500	0.521380
O31	O3	0.117300	0.361500	0.618090
O41	O4	0.139300	0.559800	0.652550
O51	O5	0.973400	0.164400	0.011940
O61	O6	0.195500	0.303900	0.005140
O71	O7	0.873800	0.282100	0.121310
O81	O8	0.699800	0.228000	0.057450
O91	O9	0.813300	0.704700	0.536230
O101	O10	0.682700	0.522500	0.478620
O111	O11	0.882700	0.638500	0.381910
O121	O12	0.860700	0.440200	0.347450
O131	O13	0.026600	0.835600	0.988060
O141	O14	0.804500	0.696100	0.994860
O151	O15	0.126200	0.717900	0.878690
O161	O16	0.300200	0.772000	0.942550
