data_WASVES_freeONLY_PM
_symmetry_space_group_name_H-M	'P1'
_cell_length_a	12.319200
_cell_length_b	12.365400
_cell_length_c	25.111400
_cell_angle_alpha	81.897000
_cell_angle_beta	85.389000
_cell_angle_gamma	88.564000
_symmetry_Int_Tables_number 1

loop_
_symmetry_equiv_pos_as_xyz
'x,y,z'

loop_
_atom_site_label
_atom_site_type_symbol
_atom_site_fract_x
_atom_site_fract_y
_atom_site_fract_z
La11	La1	0.723240	0.094750	0.585250
La21	La2	0.993760	0.818010	0.839100
La31	La3	0.699510	0.329240	0.862880
La41	La4	0.217740	0.340640	0.649810
La51	La5	0.276760	0.905250	0.414750
La61	La6	0.006240	0.181990	0.160900
La71	La7	0.300490	0.670760	0.137120
La81	La8	0.782260	0.659360	0.350190
Mo11	Mo1	0.935900	0.898410	0.671430
Mo21	Mo2	0.042610	0.128660	0.592840
Mo31	Mo3	0.170120	0.018770	0.707030
Mo41	Mo4	0.761170	0.894980	0.738480
Mo51	Mo5	0.620660	0.144790	0.750340
Mo61	Mo6	0.742420	0.006480	0.859160
Mo71	Mo7	0.950090	0.120980	0.889130
Mo81	Mo8	0.170190	0.103960	0.795580
Mo91	Mo9	0.026500	0.353940	0.803440
Mo101	Mo10	0.926030	0.442550	0.722490
Mo111	Mo11	0.685430	0.323510	0.691990
Mo121	Mo12	0.910850	0.348150	0.600900
Mo131	Mo13	0.064100	0.101590	0.328570
Mo141	Mo14	0.957390	0.871340	0.407160
Mo151	Mo15	0.829880	0.981230	0.292970
Mo161	Mo16	0.238830	0.105020	0.261520
Mo171	Mo17	0.379340	0.855210	0.249660
Mo181	Mo18	0.257580	0.993520	0.140840
Mo191	Mo19	0.049910	0.879020	0.110870
Mo201	Mo20	0.829810	0.896040	0.204420
Mo211	Mo21	0.973500	0.646060	0.196560
Mo221	Mo22	0.073970	0.557450	0.277510
Mo231	Mo23	0.314570	0.676490	0.308010
Mo241	Mo24	0.089150	0.651850	0.399100
P11	P1	0.911710	0.150920	0.735340
P21	P2	0.088290	0.849080	0.264660
H11	H1	0.989600	0.316600	0.990900
H21	H2	0.686100	0.497500	0.512800
H31	H3	0.010400	0.683400	0.009100
H41	H4	0.313900	0.502500	0.487200
C11	C1	0.838200	0.422300	0.936600
C21	C2	0.922300	0.464300	0.971100
C31	C3	0.924000	0.575200	0.976900
C41	C4	0.994700	0.390200	0.994400
C51	C5	0.839400	0.659900	0.952900
C61	C6	0.440900	0.403300	0.511700
C71	C7	0.612100	0.498300	0.507700
C81	C8	0.551800	0.400900	0.519300
C91	C9	0.611400	0.298200	0.540100
C101	C10	0.370700	0.299500	0.521300
C111	C11	0.161800	0.577700	0.063400
C121	C12	0.077700	0.535700	0.028900
C131	C13	0.076000	0.424800	0.023100
C141	C14	0.005300	0.609800	0.005600
C151	C15	0.160600	0.340100	0.047100
C161	C16	0.559100	0.596700	0.488300
C171	C17	0.387900	0.501700	0.492300
C181	C18	0.448200	0.599100	0.480700
C191	C19	0.388600	0.701800	0.459900
C201	C20	0.629300	0.700500	0.478700
O11	O1	0.925600	0.779500	0.648000
O21	O2	0.914000	0.865300	0.750100
O31	O3	0.795100	0.968500	0.666200
O41	O4	0.096500	0.893000	0.682400
O51	O5	0.978000	0.995200	0.600800
O61	O6	0.980500	0.084200	0.697200
O71	O7	0.087000	0.145800	0.527100
O81	O8	0.164400	0.086700	0.628200
O91	O9	0.893800	0.192800	0.593200
O101	O10	0.055100	0.276500	0.612700
O111	O11	0.293800	0.967300	0.704500
O121	O12	0.107700	0.969000	0.780300
O131	O13	0.188400	0.170500	0.720400
O141	O14	0.709100	0.772700	0.732300
O151	O15	0.620700	0.982100	0.739600
O161	O16	0.747800	0.890200	0.819000
O171	O17	0.808400	0.084400	0.760500
O181	O18	0.485200	0.167800	0.750400
O191	O19	0.674200	0.173600	0.674700
O201	O20	0.677600	0.279100	0.771500
O211	O21	0.629400	0.080900	0.830300
O221	O22	0.688200	0.952000	0.920600
O231	O23	0.900700	0.981700	0.865900
O241	O24	0.798100	0.150000	0.872400
O251	O25	0.942600	0.092800	0.956800
O261	O26	0.975000	0.267800	0.875200
O271	O27	0.089000	0.072700	0.868900
O281	O28	0.981400	0.172000	0.782800
O291	O29	0.292900	0.065900	0.813700
O301	O30	0.167800	0.262000	0.811900
O311	O31	0.072800	0.467100	0.825900
O321	O32	0.873900	0.380600	0.794200
O331	O33	0.068700	0.373100	0.725800
O341	O34	0.947300	0.575300	0.726700
O351	O35	0.951600	0.448600	0.642000
O361	O36	0.763400	0.462900	0.707700
O371	O37	0.875500	0.261800	0.704800
O381	O38	0.568800	0.383900	0.680300
O391	O39	0.766800	0.355700	0.619700
O401	O40	0.928400	0.411900	0.536600
O411	O41	0.701700	0.281000	0.520400
O421	O42	0.562500	0.233300	0.578200
O431	O43	0.879700	0.745400	0.923000
O441	O44	0.744300	0.641800	0.965100
O451	O45	0.818700	0.477400	0.890700
O461	O46	0.797300	0.333800	0.951500
O471	O47	0.290500	0.299400	0.556300
O481	O48	0.399600	0.223100	0.493900
O491	O49	0.555500	0.987100	0.633000
O501	O50	0.596500	0.070000	0.511000
O511	O51	0.747200	0.895800	0.560000
O521	O52	0.849300	0.087700	0.496300
O531	O53	0.123400	0.860500	0.907700
O541	O54	0.889400	0.656800	0.822500
O551	O55	0.116200	0.732000	0.764400
O561	O56	0.108100	0.647700	0.877200
O571	O57	0.594800	0.201200	0.940200
O581	O58	0.580500	0.453200	0.922400
O591	O59	0.654100	0.510300	0.800900
O601	O60	0.490900	0.320100	0.844200
O611	O61	0.380300	0.471200	0.628300
O621	O62	0.389600	0.221700	0.652400
O631	O63	0.310900	0.368600	0.736400
O641	O64	0.181100	0.553200	0.669100
O651	O65	0.163500	0.498700	0.574900
O661	O66	0.074400	0.220500	0.352000
O671	O67	0.086000	0.134700	0.249900
O681	O68	0.204900	0.031500	0.333800
O691	O69	0.903500	0.107000	0.317600
O701	O70	0.022000	0.004800	0.399200
O711	O71	0.019500	0.915800	0.302800
O721	O72	0.913000	0.854200	0.472900
O731	O73	0.835600	0.913300	0.371800
O741	O74	0.106200	0.807200	0.406800
O751	O75	0.944900	0.723500	0.387300
O761	O76	0.706200	0.032700	0.295500
O771	O77	0.892300	0.031000	0.219700
O781	O78	0.811600	0.829500	0.279600
O791	O79	0.290900	0.227300	0.267700
O801	O80	0.379300	0.017900	0.260400
O811	O81	0.252200	0.109800	0.181000
O821	O82	0.191600	0.915600	0.239500
O831	O83	0.514800	0.832200	0.249600
O841	O84	0.325800	0.826400	0.325300
O851	O85	0.322400	0.720900	0.228500
O861	O86	0.370600	0.919100	0.169700
O871	O87	0.311800	0.048000	0.079400
O881	O88	0.099300	0.018300	0.134100
O891	O89	0.201900	0.850000	0.127600
O901	O90	0.057400	0.907200	0.043200
O911	O91	0.025000	0.732200	0.124800
O921	O92	0.911000	0.927300	0.131100
O931	O93	0.018600	0.828000	0.217200
O941	O94	0.707100	0.934100	0.186300
O951	O95	0.832200	0.738000	0.188100
O961	O96	0.927200	0.532900	0.174100
O971	O97	0.126100	0.619400	0.205800
O981	O98	0.931300	0.626900	0.274200
O991	O99	0.052700	0.424700	0.273300
O1001	O100	0.048400	0.551400	0.358000
O1011	O101	0.236600	0.537100	0.292300
O1021	O102	0.124500	0.738200	0.295200
O1031	O103	0.431200	0.616100	0.319700
O1041	O104	0.233200	0.644300	0.380300
O1051	O105	0.071600	0.588100	0.463400
O1061	O106	0.298300	0.719000	0.479600
O1071	O107	0.437500	0.766700	0.421800
O1081	O108	0.120300	0.254600	0.077000
O1091	O109	0.255700	0.358200	0.034900
O1101	O110	0.181300	0.522600	0.109300
O1111	O111	0.202700	0.666200	0.048500
O1121	O112	0.709500	0.700600	0.443700
O1131	O113	0.600400	0.776900	0.506100
O1141	O114	0.444500	0.012900	0.367000
O1151	O115	0.403500	0.930000	0.489000
O1161	O116	0.252800	0.104200	0.440000
O1171	O117	0.150700	0.912300	0.503700
O1181	O118	0.876600	0.139500	0.092300
O1191	O119	0.110600	0.343200	0.177500
O1201	O120	0.883800	0.268000	0.235600
O1211	O121	0.891900	0.352300	0.122800
O1221	O122	0.405200	0.798800	0.059800
O1231	O123	0.419500	0.546800	0.077600
O1241	O124	0.345900	0.489700	0.199100
O1251	O125	0.509100	0.679900	0.155800
O1261	O126	0.619700	0.528800	0.371700
O1271	O127	0.610400	0.778300	0.347600
O1281	O128	0.689100	0.631400	0.263600
O1291	O129	0.818900	0.446800	0.330900
O1301	O130	0.836500	0.501300	0.425100
