data_WAVRAO_freeONLY_PM
_symmetry_space_group_name_H-M	'P1'
_cell_length_a	22.562700
_cell_length_b	22.562700
_cell_length_c	22.562700
_cell_angle_alpha	107.968000
_cell_angle_beta	107.968000
_cell_angle_gamma	107.968000
_symmetry_Int_Tables_number 1

loop_
_symmetry_equiv_pos_as_xyz
'x,y,z'

loop_
_atom_site_label
_atom_site_type_symbol
_atom_site_fract_x
_atom_site_fract_y
_atom_site_fract_z
Mn11	Mn1	0.950240	0.464130	0.532610
Mn21	Mn2	0.532610	0.950240	0.464130
Mn31	Mn3	0.464130	0.532610	0.950240
Mn41	Mn4	0.049760	0.535870	0.467390
Mn51	Mn5	0.467390	0.049760	0.535870
Mn61	Mn6	0.535870	0.467390	0.049760
In11	In1	0.869770	0.457620	0.360890
In21	In2	0.360890	0.869770	0.457620
In31	In3	0.457620	0.360890	0.869770
In41	In4	0.130230	0.542380	0.639110
In51	In5	0.639110	0.130230	0.542380
In61	In6	0.542380	0.639110	0.130230
H11	H1	0.730000	0.540000	0.623400
H21	H2	0.713800	0.108400	0.134300
H31	H3	0.582500	0.097000	0.941600
H41	H4	0.514100	0.715100	0.907100
H51	H5	0.613200	0.011000	0.071900
H61	H6	0.410700	0.899000	0.784900
H71	H7	0.621300	0.512200	0.430800
H81	H8	0.554000	0.917600	0.082300
H91	H9	0.493800	0.889500	0.868200
H101	H10	0.527300	0.813000	0.888700
H111	H11	0.541700	0.820200	0.100500
H121	H12	0.809400	0.513600	0.590800
H131	H13	0.698800	0.481800	0.396300
H141	H14	0.671300	0.296400	0.135500
H151	H15	0.369800	0.874800	0.668500
H161	H16	0.578400	0.064700	0.830100
H171	H17	0.599400	0.187100	0.041300
H181	H18	0.779300	0.214700	0.231900
H191	H19	0.535200	0.039500	0.712800
H201	H20	0.623400	0.730000	0.540000
H211	H21	0.134300	0.713800	0.108400
H221	H22	0.941600	0.582500	0.097000
H231	H23	0.907100	0.514100	0.715100
H241	H24	0.071900	0.613200	0.011000
H251	H25	0.784900	0.410700	0.899000
H261	H26	0.430800	0.621300	0.512200
H271	H27	0.082300	0.554000	0.917600
H281	H28	0.868200	0.493800	0.889500
H291	H29	0.888700	0.527300	0.813000
H301	H30	0.100500	0.541700	0.820200
H311	H31	0.590800	0.809400	0.513600
H321	H32	0.396300	0.698800	0.481800
H331	H33	0.135500	0.671300	0.296400
H341	H34	0.668500	0.369800	0.874800
H351	H35	0.830100	0.578400	0.064700
H361	H36	0.041300	0.599400	0.187100
H371	H37	0.231900	0.779300	0.214700
H381	H38	0.712800	0.535200	0.039500
H391	H39	0.540000	0.623400	0.730000
H401	H40	0.108400	0.134300	0.713800
H411	H41	0.097000	0.941600	0.582500
H421	H42	0.715100	0.907100	0.514100
H431	H43	0.011000	0.071900	0.613200
H441	H44	0.899000	0.784900	0.410700
H451	H45	0.512200	0.430800	0.621300
H461	H46	0.917600	0.082300	0.554000
H471	H47	0.889500	0.868200	0.493800
H481	H48	0.813000	0.888700	0.527300
H491	H49	0.820200	0.100500	0.541700
H501	H50	0.513600	0.590800	0.809400
H511	H51	0.481800	0.396300	0.698800
H521	H52	0.296400	0.135500	0.671300
H531	H53	0.874800	0.668500	0.369800
H541	H54	0.064700	0.830100	0.578400
H551	H55	0.187100	0.041300	0.599400
H561	H56	0.214700	0.231900	0.779300
H571	H57	0.039500	0.712800	0.535200
H581	H58	0.270000	0.460000	0.376600
H591	H59	0.286200	0.891600	0.865700
H601	H60	0.417500	0.903000	0.058400
H611	H61	0.485900	0.284900	0.092900
H621	H62	0.386800	0.989000	0.928100
H631	H63	0.589300	0.101000	0.215100
H641	H64	0.378700	0.487800	0.569200
H651	H65	0.446000	0.082400	0.917700
H661	H66	0.506200	0.110500	0.131800
H671	H67	0.472700	0.187000	0.111300
H681	H68	0.458300	0.179800	0.899500
H691	H69	0.190600	0.486400	0.409200
H701	H70	0.301200	0.518200	0.603700
H711	H71	0.328700	0.703600	0.864500
H721	H72	0.630200	0.125200	0.331500
H731	H73	0.421600	0.935300	0.169900
H741	H74	0.400600	0.812900	0.958700
H751	H75	0.220700	0.785300	0.768100
H761	H76	0.464800	0.960500	0.287200
H771	H77	0.376600	0.270000	0.460000
H781	H78	0.865700	0.286200	0.891600
H791	H79	0.058400	0.417500	0.903000
H801	H80	0.092900	0.485900	0.284900
H811	H81	0.928100	0.386800	0.989000
H821	H82	0.215100	0.589300	0.101000
H831	H83	0.569200	0.378700	0.487800
H841	H84	0.917700	0.446000	0.082400
H851	H85	0.131800	0.506200	0.110500
H861	H86	0.111300	0.472700	0.187000
H871	H87	0.899500	0.458300	0.179800
H881	H88	0.409200	0.190600	0.486400
H891	H89	0.603700	0.301200	0.518200
H901	H90	0.864500	0.328700	0.703600
H911	H91	0.331500	0.630200	0.125200
H921	H92	0.169900	0.421600	0.935300
H931	H93	0.958700	0.400600	0.812900
H941	H94	0.768100	0.220700	0.785300
H951	H95	0.287200	0.464800	0.960500
H961	H96	0.460000	0.376600	0.270000
H971	H97	0.891600	0.865700	0.286200
H981	H98	0.903000	0.058400	0.417500
H991	H99	0.284900	0.092900	0.485900
H1001	H100	0.989000	0.928100	0.386800
H1011	H101	0.101000	0.215100	0.589300
H1021	H102	0.487800	0.569200	0.378700
H1031	H103	0.082400	0.917700	0.446000
H1041	H104	0.110500	0.131800	0.506200
H1051	H105	0.187000	0.111300	0.472700
H1061	H106	0.179800	0.899500	0.458300
H1071	H107	0.486400	0.409200	0.190600
H1081	H108	0.518200	0.603700	0.301200
H1091	H109	0.703600	0.864500	0.328700
H1101	H110	0.125200	0.331500	0.630200
H1111	H111	0.935300	0.169900	0.421600
H1121	H112	0.812900	0.958700	0.400600
H1131	H113	0.785300	0.768100	0.220700
H1141	H114	0.960500	0.287200	0.464800
C11	C1	0.724340	0.529660	0.578200
C21	C2	0.703700	0.145500	0.134900
C31	C3	0.648840	0.135450	0.078310
C41	C4	0.573960	0.057520	0.949120
C51	C5	0.521880	0.755610	0.942150
C61	C6	0.592880	0.006070	0.026950
C71	C7	0.603510	0.064920	0.016870
C81	C8	0.437290	0.926960	0.770850
C91	C9	0.500940	0.981910	0.819650
C101	C10	0.532350	0.992420	0.893530
C111	C11	0.659130	0.512620	0.463050
C121	C12	0.546460	0.877200	0.047140
C131	C13	0.780450	0.337620	0.254830
C141	C14	0.521900	0.933560	0.905540
C151	C15	0.543670	0.876430	0.984040
C161	C16	0.552860	0.939810	0.972430
C171	C17	0.530460	0.814830	0.931410
C181	C18	0.817610	0.483280	0.470050
C191	C19	0.538180	0.818480	0.057740
C201	C20	0.524760	0.756940	0.004720
C211	C21	0.516380	0.693830	0.017290
C221	C22	0.771740	0.513290	0.558570
C231	C23	0.619960	0.553300	0.553820
C241	C24	0.705880	0.494710	0.442130
C251	C25	0.597800	0.597330	0.531620
C261	C26	0.667980	0.530920	0.530760
C271	C27	0.763380	0.496250	0.490580
C281	C28	0.450650	0.954690	0.680260
C291	C29	0.732650	0.267210	0.192440
C301	C30	0.679220	0.258510	0.136070
C311	C31	0.412340	0.912740	0.701120
C321	C32	0.536820	0.025410	0.797870
C331	C33	0.636410	0.192760	0.079030
C341	C34	0.744400	0.209700	0.192900
C351	C35	0.510490	0.010260	0.727150
C361	C36	0.423910	0.933090	0.601700
C371	C37	0.793900	0.186400	0.464000
C381	C38	0.841000	0.318500	0.496300
C391	C39	0.798100	0.235200	0.379800
C401	C40	0.868400	0.326300	0.576300
C411	C41	0.578200	0.724340	0.529660
C421	C42	0.134900	0.703700	0.145500
C431	C43	0.078310	0.648840	0.135450
C441	C44	0.949120	0.573960	0.057520
C451	C45	0.942150	0.521880	0.755610
C461	C46	0.026950	0.592880	0.006070
C471	C47	0.016870	0.603510	0.064920
C481	C48	0.770850	0.437290	0.926960
C491	C49	0.819650	0.500940	0.981910
C501	C50	0.893530	0.532350	0.992420
C511	C51	0.463050	0.659130	0.512620
C521	C52	0.047140	0.546460	0.877200
C531	C53	0.254830	0.780450	0.337620
C541	C54	0.905540	0.521900	0.933560
C551	C55	0.984040	0.543670	0.876430
C561	C56	0.972430	0.552860	0.939810
C571	C57	0.931410	0.530460	0.814830
C581	C58	0.470050	0.817610	0.483280
C591	C59	0.057740	0.538180	0.818480
C601	C60	0.004720	0.524760	0.756940
C611	C61	0.017290	0.516380	0.693830
C621	C62	0.558570	0.771740	0.513290
C631	C63	0.553820	0.619960	0.553300
C641	C64	0.442130	0.705880	0.494710
C651	C65	0.531620	0.597800	0.597330
C661	C66	0.530760	0.667980	0.530920
C671	C67	0.490580	0.763380	0.496250
C681	C68	0.680260	0.450650	0.954690
C691	C69	0.192440	0.732650	0.267210
C701	C70	0.136070	0.679220	0.258510
C711	C71	0.701120	0.412340	0.912740
C721	C72	0.797870	0.536820	0.025410
C731	C73	0.079030	0.636410	0.192760
C741	C74	0.192900	0.744400	0.209700
C751	C75	0.727150	0.510490	0.010260
C761	C76	0.601700	0.423910	0.933090
C771	C77	0.464000	0.793900	0.186400
C781	C78	0.496300	0.841000	0.318500
C791	C79	0.379800	0.798100	0.235200
C801	C80	0.576300	0.868400	0.326300
C811	C81	0.529660	0.578200	0.724340
C821	C82	0.145500	0.134900	0.703700
C831	C83	0.135450	0.078310	0.648840
C841	C84	0.057520	0.949120	0.573960
C851	C85	0.755610	0.942150	0.521880
C861	C86	0.006070	0.026950	0.592880
C871	C87	0.064920	0.016870	0.603510
C881	C88	0.926960	0.770850	0.437290
C891	C89	0.981910	0.819650	0.500940
C901	C90	0.992420	0.893530	0.532350
C911	C91	0.512620	0.463050	0.659130
C921	C92	0.877200	0.047140	0.546460
C931	C93	0.337620	0.254830	0.780450
C941	C94	0.933560	0.905540	0.521900
C951	C95	0.876430	0.984040	0.543670
C961	C96	0.939810	0.972430	0.552860
C971	C97	0.814830	0.931410	0.530460
C981	C98	0.483280	0.470050	0.817610
C991	C99	0.818480	0.057740	0.538180
C1001	C100	0.756940	0.004720	0.524760
C1011	C101	0.693830	0.017290	0.516380
C1021	C102	0.513290	0.558570	0.771740
C1031	C103	0.553300	0.553820	0.619960
C1041	C104	0.494710	0.442130	0.705880
C1051	C105	0.597330	0.531620	0.597800
C1061	C106	0.530920	0.530760	0.667980
C1071	C107	0.496250	0.490580	0.763380
C1081	C108	0.954690	0.680260	0.450650
C1091	C109	0.267210	0.192440	0.732650
C1101	C110	0.258510	0.136070	0.679220
C1111	C111	0.912740	0.701120	0.412340
C1121	C112	0.025410	0.797870	0.536820
C1131	C113	0.192760	0.079030	0.636410
C1141	C114	0.209700	0.192900	0.744400
C1151	C115	0.010260	0.727150	0.510490
C1161	C116	0.933090	0.601700	0.423910
C1171	C117	0.186400	0.464000	0.793900
C1181	C118	0.318500	0.496300	0.841000
C1191	C119	0.235200	0.379800	0.798100
C1201	C120	0.326300	0.576300	0.868400
C1211	C121	0.275660	0.470340	0.421800
C1221	C122	0.296300	0.854500	0.865100
C1231	C123	0.351160	0.864550	0.921690
C1241	C124	0.426040	0.942480	0.050880
C1251	C125	0.478120	0.244390	0.057850
C1261	C126	0.407120	0.993930	0.973050
C1271	C127	0.396490	0.935080	0.983130
C1281	C128	0.562710	0.073040	0.229150
C1291	C129	0.499060	0.018090	0.180350
C1301	C130	0.467650	0.007580	0.106470
C1311	C131	0.340870	0.487380	0.536950
C1321	C132	0.453540	0.122800	0.952860
C1331	C133	0.219550	0.662380	0.745170
C1341	C134	0.478100	0.066440	0.094460
C1351	C135	0.456330	0.123570	0.015960
C1361	C136	0.447140	0.060190	0.027570
C1371	C137	0.469540	0.185170	0.068590
C1381	C138	0.182390	0.516720	0.529950
C1391	C139	0.461820	0.181520	0.942260
C1401	C140	0.475240	0.243060	0.995280
C1411	C141	0.483620	0.306170	0.982710
C1421	C142	0.228260	0.486710	0.441430
C1431	C143	0.380040	0.446700	0.446180
C1441	C144	0.294120	0.505290	0.557870
C1451	C145	0.402200	0.402670	0.468380
C1461	C146	0.332020	0.469080	0.469240
C1471	C147	0.236620	0.503750	0.509420
C1481	C148	0.549350	0.045310	0.319740
C1491	C149	0.267350	0.732790	0.807560
C1501	C150	0.320780	0.741490	0.863930
C1511	C151	0.587660	0.087260	0.298880
C1521	C152	0.463180	0.974590	0.202130
C1531	C153	0.363590	0.807240	0.920970
C1541	C154	0.255600	0.790300	0.807100
C1551	C155	0.489510	0.989740	0.272850
C1561	C156	0.576090	0.066910	0.398300
C1571	C157	0.206100	0.813600	0.536000
C1581	C158	0.159000	0.681500	0.503700
C1591	C159	0.201900	0.764800	0.620200
C1601	C160	0.131600	0.673700	0.423700
C1611	C161	0.421800	0.275660	0.470340
C1621	C162	0.865100	0.296300	0.854500
C1631	C163	0.921690	0.351160	0.864550
C1641	C164	0.050880	0.426040	0.942480
C1651	C165	0.057850	0.478120	0.244390
C1661	C166	0.973050	0.407120	0.993930
C1671	C167	0.983130	0.396490	0.935080
C1681	C168	0.229150	0.562710	0.073040
C1691	C169	0.180350	0.499060	0.018090
C1701	C170	0.106470	0.467650	0.007580
C1711	C171	0.536950	0.340870	0.487380
C1721	C172	0.952860	0.453540	0.122800
C1731	C173	0.745170	0.219550	0.662380
C1741	C174	0.094460	0.478100	0.066440
C1751	C175	0.015960	0.456330	0.123570
C1761	C176	0.027570	0.447140	0.060190
C1771	C177	0.068590	0.469540	0.185170
C1781	C178	0.529950	0.182390	0.516720
C1791	C179	0.942260	0.461820	0.181520
C1801	C180	0.995280	0.475240	0.243060
C1811	C181	0.982710	0.483620	0.306170
C1821	C182	0.441430	0.228260	0.486710
C1831	C183	0.446180	0.380040	0.446700
C1841	C184	0.557870	0.294120	0.505290
C1851	C185	0.468380	0.402200	0.402670
C1861	C186	0.469240	0.332020	0.469080
C1871	C187	0.509420	0.236620	0.503750
C1881	C188	0.319740	0.549350	0.045310
C1891	C189	0.807560	0.267350	0.732790
C1901	C190	0.863930	0.320780	0.741490
C1911	C191	0.298880	0.587660	0.087260
C1921	C192	0.202130	0.463180	0.974590
C1931	C193	0.920970	0.363590	0.807240
C1941	C194	0.807100	0.255600	0.790300
C1951	C195	0.272850	0.489510	0.989740
C1961	C196	0.398300	0.576090	0.066910
C1971	C197	0.536000	0.206100	0.813600
C1981	C198	0.503700	0.159000	0.681500
C1991	C199	0.620200	0.201900	0.764800
C2001	C200	0.423700	0.131600	0.673700
C2011	C201	0.470340	0.421800	0.275660
C2021	C202	0.854500	0.865100	0.296300
C2031	C203	0.864550	0.921690	0.351160
C2041	C204	0.942480	0.050880	0.426040
C2051	C205	0.244390	0.057850	0.478120
C2061	C206	0.993930	0.973050	0.407120
C2071	C207	0.935080	0.983130	0.396490
C2081	C208	0.073040	0.229150	0.562710
C2091	C209	0.018090	0.180350	0.499060
C2101	C210	0.007580	0.106470	0.467650
C2111	C211	0.487380	0.536950	0.340870
C2121	C212	0.122800	0.952860	0.453540
C2131	C213	0.662380	0.745170	0.219550
C2141	C214	0.066440	0.094460	0.478100
C2151	C215	0.123570	0.015960	0.456330
C2161	C216	0.060190	0.027570	0.447140
C2171	C217	0.185170	0.068590	0.469540
C2181	C218	0.516720	0.529950	0.182390
C2191	C219	0.181520	0.942260	0.461820
C2201	C220	0.243060	0.995280	0.475240
C2211	C221	0.306170	0.982710	0.483620
C2221	C222	0.486710	0.441430	0.228260
C2231	C223	0.446700	0.446180	0.380040
C2241	C224	0.505290	0.557870	0.294120
C2251	C225	0.402670	0.468380	0.402200
C2261	C226	0.469080	0.469240	0.332020
C2271	C227	0.503750	0.509420	0.236620
C2281	C228	0.045310	0.319740	0.549350
C2291	C229	0.732790	0.807560	0.267350
C2301	C230	0.741490	0.863930	0.320780
C2311	C231	0.087260	0.298880	0.587660
C2321	C232	0.974590	0.202130	0.463180
C2331	C233	0.807240	0.920970	0.363590
C2341	C234	0.790300	0.807100	0.255600
C2351	C235	0.989740	0.272850	0.489510
C2361	C236	0.066910	0.398300	0.576090
C2371	C237	0.813600	0.536000	0.206100
C2381	C238	0.681500	0.503700	0.159000
C2391	C239	0.764800	0.620200	0.201900
C2401	C240	0.673700	0.423700	0.131600
N11	N1	0.810300	0.249500	0.449600
N21	N2	0.449600	0.810300	0.249500
N31	N3	0.249500	0.449600	0.810300
N41	N4	0.189700	0.750500	0.550400
N51	N5	0.550400	0.189700	0.750500
N61	N6	0.750500	0.550400	0.189700
O11	O1	0.876560	0.505280	0.517920
O21	O2	0.865500	0.362910	0.486190
O31	O3	0.494570	0.637430	0.965870
O41	O4	0.828910	0.340960	0.304370
O51	O5	0.771730	0.389430	0.255390
O61	O6	0.531350	0.703630	0.079160
O71	O7	0.799400	0.453000	0.406340
O81	O8	0.949800	0.448340	0.432590
O91	O9	0.453970	0.978530	0.586500
O101	O10	0.377270	0.877820	0.559010
O111	O11	0.517920	0.876560	0.505280
O121	O12	0.486190	0.865500	0.362910
O131	O13	0.965870	0.494570	0.637430
O141	O14	0.304370	0.828910	0.340960
O151	O15	0.255390	0.771730	0.389430
O161	O16	0.079160	0.531350	0.703630
O171	O17	0.406340	0.799400	0.453000
O181	O18	0.432590	0.949800	0.448340
O191	O19	0.586500	0.453970	0.978530
O201	O20	0.559010	0.377270	0.877820
O211	O21	0.505280	0.517920	0.876560
O221	O22	0.362910	0.486190	0.865500
O231	O23	0.637430	0.965870	0.494570
O241	O24	0.340960	0.304370	0.828910
O251	O25	0.389430	0.255390	0.771730
O261	O26	0.703630	0.079160	0.531350
O271	O27	0.453000	0.406340	0.799400
O281	O28	0.448340	0.432590	0.949800
O291	O29	0.978530	0.586500	0.453970
O301	O30	0.877820	0.559010	0.377270
O311	O31	0.123440	0.494720	0.482080
O321	O32	0.134500	0.637090	0.513810
O331	O33	0.505430	0.362570	0.034130
O341	O34	0.171090	0.659040	0.695630
O351	O35	0.228270	0.610570	0.744610
O361	O36	0.468650	0.296370	0.920840
O371	O37	0.200600	0.547000	0.593660
O381	O38	0.050200	0.551660	0.567410
O391	O39	0.546030	0.021470	0.413500
O401	O40	0.622730	0.122180	0.440990
O411	O41	0.482080	0.123440	0.494720
O421	O42	0.513810	0.134500	0.637090
O431	O43	0.034130	0.505430	0.362570
O441	O44	0.695630	0.171090	0.659040
O451	O45	0.744610	0.228270	0.610570
O461	O46	0.920840	0.468650	0.296370
O471	O47	0.593660	0.200600	0.547000
O481	O48	0.567410	0.050200	0.551660
O491	O49	0.413500	0.546030	0.021470
O501	O50	0.440990	0.622730	0.122180
O511	O51	0.494720	0.482080	0.123440
O521	O52	0.637090	0.513810	0.134500
O531	O53	0.362570	0.034130	0.505430
O541	O54	0.659040	0.695630	0.171090
O551	O55	0.610570	0.744610	0.228270
O561	O56	0.296370	0.920840	0.468650
O571	O57	0.547000	0.593660	0.200600
O581	O58	0.551660	0.567410	0.050200
O591	O59	0.021470	0.413500	0.546030
O601	O60	0.122180	0.440990	0.622730
