data_WAYKAK_freeONLY_PM
_symmetry_space_group_name_H-M	'P1'
_cell_length_a	8.663100
_cell_length_b	14.242200
_cell_length_c	14.549700
_cell_angle_alpha	113.513000
_cell_angle_beta	107.320000
_cell_angle_gamma	90.000000
_symmetry_Int_Tables_number 1

loop_
_symmetry_equiv_pos_as_xyz
'x,y,z'

loop_
_atom_site_label
_atom_site_type_symbol
_atom_site_fract_x
_atom_site_fract_y
_atom_site_fract_z
Nd11	Nd1	0.115490	0.005020	0.547160
Nd21	Nd2	0.568330	0.994980	0.452840
H11	H1	0.110300	0.292800	0.487000
H21	H2	0.095100	0.449100	0.473200
H31	H3	0.616900	0.365500	0.313400
H41	H4	0.628300	0.212100	0.332800
H51	H5	0.027700	0.609600	0.521400
H61	H6	0.995300	0.770200	0.521600
H71	H7	0.622900	0.642000	0.249600
H81	H8	0.655900	0.479800	0.247000
H91	H9	0.352600	0.712900	0.224400
H101	H10	0.276600	0.557200	0.075800
H111	H11	0.810100	0.575300	0.057400
H121	H12	0.886100	0.730900	0.205400
H131	H13	0.873500	0.970800	0.685600
H141	H14	0.760000	0.924000	0.790200
H151	H15	0.867400	0.890800	0.876800
H161	H16	0.786200	0.807900	0.760200
H171	H17	0.040900	0.791500	0.840400
H181	H18	0.192100	0.848100	0.836200
H191	H19	0.073400	0.761000	0.732400
H201	H20	0.623300	0.707200	0.513000
H211	H21	0.621900	0.550900	0.526800
H221	H22	0.303500	0.634500	0.686600
H231	H23	0.295500	0.787900	0.667200
H241	H24	0.506300	0.390400	0.478600
H251	H25	0.473700	0.229800	0.478400
H261	H26	0.373300	0.358000	0.750400
H271	H27	0.408900	0.520200	0.753000
H281	H28	0.128200	0.287100	0.775600
H291	H29	0.200800	0.442800	0.924200
H301	H30	0.752700	0.424700	0.942600
H311	H31	0.680700	0.269100	0.794600
H321	H32	0.187900	0.029200	0.314400
H331	H33	0.969800	0.076000	0.209800
H341	H34	0.990600	0.109200	0.123200
H351	H35	0.026000	0.192100	0.239800
H361	H36	0.200500	0.208500	0.159600
H371	H37	0.355900	0.151900	0.163800
H381	H38	0.341000	0.239000	0.267600
C11	C1	0.877540	0.138500	0.427880
C21	C2	0.869820	0.237400	0.413640
C31	C3	0.010400	0.308200	0.454000
C41	C4	0.001100	0.401800	0.444600
C51	C5	0.853130	0.425800	0.393260
C61	C6	0.715700	0.352200	0.350200
C71	C7	0.722320	0.259300	0.360840
C81	C8	0.840200	0.527400	0.386800
C91	C9	0.944400	0.615900	0.467400
C101	C10	0.924900	0.712400	0.467600
C111	C11	0.801580	0.723600	0.388160
C121	C12	0.702890	0.635500	0.304980
C131	C13	0.722000	0.537900	0.303600
C141	C14	0.760980	0.828200	0.395760
C151	C15	0.178350	0.838800	0.325300
C161	C16	0.126400	0.738500	0.229000
C171	C17	0.242900	0.686000	0.190400
C181	C18	0.196500	0.592300	0.100400
C191	C19	0.033700	0.550500	0.046600
C201	C20	0.919700	0.603000	0.089400
C211	C21	0.965500	0.696600	0.179200
C221	C22	0.968400	0.946000	0.711400
C231	C23	0.836200	0.878200	0.803400
C241	C24	0.080300	0.817000	0.798600
C251	C25	0.449660	0.861500	0.572120
C261	C26	0.456180	0.762600	0.586360
C271	C27	0.556400	0.691800	0.546000
C281	C28	0.556500	0.598200	0.555400
C291	C29	0.459870	0.574200	0.606740
C301	C30	0.365500	0.647800	0.649800
C311	C31	0.361480	0.740700	0.639160
C321	C32	0.453400	0.472600	0.613200
C331	C33	0.477000	0.384100	0.532600
C341	C34	0.457300	0.287600	0.532400
C351	C35	0.413420	0.276400	0.611840
C361	C36	0.397910	0.364500	0.695020
C371	C37	0.418400	0.462100	0.696400
C381	C38	0.365220	0.171800	0.604240
C391	C39	0.853050	0.161200	0.674700
C401	C40	0.897400	0.261500	0.771000
C411	C41	0.052500	0.314000	0.809600
C421	C42	0.096100	0.407700	0.899600
C431	C43	0.987100	0.449500	0.953400
C441	C44	0.830300	0.397000	0.910600
C451	C45	0.786300	0.303400	0.820800
C461	C46	0.257000	0.054000	0.288600
C471	C47	0.032800	0.121800	0.196600
C481	C48	0.281700	0.183000	0.201400
N11	N1	0.978800	0.896400	0.778200
N21	N2	0.200600	0.103600	0.221800
O11	O1	0.013850	0.108100	0.449500
O21	O2	0.745550	0.093200	0.417900
O31	O3	0.841840	0.909100	0.479080
O41	O4	0.640950	0.835300	0.327100
O51	O5	0.074180	0.877900	0.369360
O61	O6	0.324730	0.877600	0.357860
O71	O7	0.095210	0.955400	0.688020
O81	O8	0.564350	0.891900	0.550500
O91	O9	0.327650	0.906800	0.582100
O101	O10	0.362760	0.090900	0.520920
O111	O11	0.313850	0.164700	0.672900
O121	O12	0.704820	0.122100	0.630640
O131	O13	0.966870	0.122400	0.642140
O141	O14	0.407190	0.044600	0.311980
