data_WAYMOA_manual_PM
_symmetry_space_group_name_H-M	'P1'
_cell_length_a	6.672000
_cell_length_b	16.936000
_cell_length_c	12.807000
_cell_angle_alpha	90.000000
_cell_angle_beta	90.000000
_cell_angle_gamma	90.000000
_symmetry_Int_Tables_number 1

loop_
_symmetry_equiv_pos_as_xyz
'x,y,z'

loop_
_atom_site_label
_atom_site_type_symbol
_atom_site_fract_x
_atom_site_fract_y
_atom_site_fract_z
O11	O1	0.174090	0.829090	0.161250
C21	C2	0.823110	0.967430	0.030910
H31	H3	0.680920	0.942140	0.053670
O41	O4	0.674170	0.329020	0.661130
C51	C5	0.323140	0.467220	0.530560
H61	H6	0.180970	0.441860	0.553210
O71	O7	0.832730	0.675550	0.161290
C81	C8	0.183760	0.537110	0.031180
H91	H9	0.325930	0.562410	0.053970
O101	O10	0.332840	0.175480	0.661400
C111	C11	0.683780	0.036980	0.531370
H121	H12	0.825960	0.062270	0.554130
O131	O13	0.832840	0.329090	0.839970
C141	C14	0.183780	0.467350	0.970460
H151	H15	0.325960	0.442030	0.947770
O161	O16	0.332750	0.829010	0.340080
C171	C17	0.683760	0.967210	0.470650
H181	H18	0.825930	0.941890	0.447930
O191	O19	0.174180	0.175560	0.839970
C201	C20	0.823130	0.037190	0.970170
H211	H21	0.680960	0.062510	0.947440
O221	O22	0.674100	0.675530	0.339930
C231	C23	0.323110	0.536990	0.469850
H241	H24	0.180930	0.562260	0.447040
O251	O25	0.832850	0.175560	0.839930
C261	C26	0.183830	0.037120	0.970060
H271	H27	0.326010	0.062380	0.947240
O281	O28	0.332780	0.675490	0.339850
C291	C29	0.683810	0.537050	0.469940
H301	H30	0.825970	0.562370	0.447210
O311	O31	0.174150	0.329090	0.840000
C321	C32	0.823090	0.467340	0.970440
H331	H33	0.680920	0.442010	0.947720
O341	O34	0.674050	0.829020	0.340090
C351	C35	0.323070	0.967210	0.470700
H361	H36	0.180890	0.941880	0.448010
O371	O37	0.174060	0.675540	0.161270
C381	C38	0.823070	0.537100	0.031160
H391	H39	0.680890	0.562390	0.053930
O401	O40	0.674160	0.175480	0.661360
C411	C41	0.323090	0.036970	0.531420
H421	H42	0.180920	0.062260	0.554220
O431	O43	0.832790	0.829130	0.161330
C441	C44	0.183800	0.967360	0.030800
H451	H45	0.325960	0.942010	0.053470
O461	O46	0.332860	0.329030	0.661160
C471	C47	0.683830	0.467280	0.530650
H481	H48	0.826000	0.441980	0.553380
Al491	Al49	0.253500	0.752320	0.250590
Al501	Al50	0.753480	0.752330	0.250640
Al511	Al51	0.753600	0.252330	0.750580
Al521	Al52	0.253600	0.252330	0.750640
O531	O53	0.003500	0.752360	0.306700
O541	O54	0.503620	0.252420	0.806710
O551	O55	0.003620	0.252380	0.694500
O561	O56	0.503500	0.752400	0.194500
C571	C57	0.003450	0.930950	0.062460
C581	C58	0.003440	0.858150	0.131810
C591	C59	0.503490	0.430800	0.562210
C601	C60	0.503510	0.358040	0.631620
C611	C61	0.003400	0.573610	0.062680
C621	C62	0.003390	0.646480	0.131860
C631	C63	0.503450	0.073480	0.562880
C641	C64	0.503480	0.146390	0.631990
C651	C65	0.003450	0.430900	0.938840
C661	C66	0.003480	0.358120	0.869480
C671	C67	0.503400	0.930770	0.439050
C681	C68	0.503390	0.858030	0.369620
C691	C69	0.003490	0.073640	0.938600
C701	C70	0.003510	0.146500	0.869380
C711	C71	0.503450	0.573530	0.438420
C721	C72	0.503440	0.646430	0.369290
H731	H73	0.503640	0.252530	0.874020
H741	H74	0.003640	0.252430	0.627190
H751	H75	0.003510	0.752390	0.374020
H761	H76	0.503510	0.752490	0.127180
