data_WECJIZ_freeONLY_PM
_symmetry_space_group_name_H-M	'P1'
_cell_length_a	22.721000
_cell_length_b	25.198600
_cell_length_c	25.198600
_cell_angle_alpha	103.681000
_cell_angle_beta	108.966000
_cell_angle_gamma	108.966000
_symmetry_Int_Tables_number 1

loop_
_symmetry_equiv_pos_as_xyz
'x,y,z'

loop_
_atom_site_label
_atom_site_type_symbol
_atom_site_fract_x
_atom_site_fract_y
_atom_site_fract_z
Zn11	Zn1	0.593420	0.526770	0.465990
Zn21	Zn2	0.275460	0.008930	0.486400
Zn31	Zn3	0.347930	0.934750	0.459110
Zn41	Zn4	0.906580	0.534010	0.473230
Zn51	Zn5	0.224540	0.513600	0.991070
Zn61	Zn6	0.152070	0.540890	0.065250
Zn71	Zn7	0.406580	0.473230	0.534010
Zn81	Zn8	0.724540	0.991070	0.513600
Zn91	Zn9	0.652070	0.065250	0.540890
Zn101	Zn10	0.093420	0.465990	0.526770
Zn111	Zn11	0.775460	0.486400	0.008930
Zn121	Zn12	0.847930	0.459110	0.934750
H11	H1	0.407900	0.328600	0.348400
H21	H2	0.499500	0.072600	0.404600
H31	H3	0.759500	0.722100	0.691100
H41	H4	0.662300	0.580900	0.898500
H51	H5	0.540400	0.034700	0.644300
H61	H6	0.592000	0.291000	0.918400
H71	H7	0.450800	0.518000	0.428600
H81	H8	0.623700	0.652800	0.469200
H91	H9	0.391600	0.575300	0.409700
H101	H10	0.570000	0.711400	0.447400
H111	H11	0.391100	0.671900	0.410900
H121	H12	0.509900	0.758500	0.421700
H131	H13	0.338000	0.729800	0.406400
H141	H14	0.516900	0.860200	0.437800
H151	H15	0.298100	0.801700	0.421900
H161	H16	0.472500	0.928100	0.452900
H171	H17	0.699100	0.550400	0.053000
H181	H18	0.774000	0.444700	0.105900
H191	H19	0.657400	0.558900	0.123300
H201	H20	0.739300	0.454200	0.183400
H211	H21	0.647400	0.540000	0.212000
H221	H22	0.721600	0.484600	0.261000
H231	H23	0.725600	0.477100	0.354700
H241	H24	0.610300	0.554200	0.281200
H251	H25	0.690100	0.488100	0.430500
H261	H26	0.577300	0.561900	0.357700
H271	H27	0.341500	0.160200	0.300000
H281	H28	0.313100	0.206800	0.287000
H291	H29	0.375400	0.226800	0.230000
H301	H30	0.403500	0.179800	0.242800
H311	H31	0.271400	0.155000	0.160800
H321	H32	0.277500	0.106600	0.188600
H331	H33	0.349500	0.089900	0.145300
H341	H34	0.351000	0.142300	0.121500
H351	H35	0.258200	0.024100	0.062500
H361	H36	0.217300	0.062000	0.072800
H371	H37	0.219500	0.047700	0.977500
H381	H38	0.300500	0.082700	0.010100
H391	H39	0.255800	0.117200	0.018200
H401	H40	0.600900	0.186000	0.411200
H411	H41	0.557500	0.203300	0.361700
H421	H42	0.595900	0.136000	0.319400
H431	H43	0.555900	0.087500	0.339700
H441	H44	0.494300	0.125700	0.249100
H451	H45	0.450800	0.084400	0.273400
H461	H46	0.483200	0.008200	0.238200
H471	H47	0.525300	0.049400	0.213000
H481	H48	0.421000	0.042200	0.142400
H491	H49	0.378800	0.001200	0.167600
H501	H50	0.370500	0.939100	0.076500
H511	H51	0.409500	0.923400	0.129800
H521	H52	0.451200	0.964300	0.104300
H531	H53	0.802000	0.729100	0.848300
H541	H54	0.759100	0.761000	0.819000
H551	H55	0.885400	0.770200	0.815400
H561	H56	0.841500	0.799300	0.782100
H571	H57	0.911000	0.836600	0.909400
H581	H58	0.859600	0.861600	0.879400
H591	H59	0.988700	0.882500	0.869700
H601	H60	0.935100	0.901700	0.831700
H611	H61	0.999800	0.948900	0.961500
H621	H62	0.947200	0.968800	0.923000
H631	H63	0.065400	0.040900	0.952300
H641	H64	0.025900	0.009100	0.881300
H651	H65	0.077800	0.988100	0.918100
H661	H66	0.639300	0.677500	0.855300
H671	H67	0.618300	0.652100	0.785500
H681	H68	0.528800	0.563400	0.770800
H691	H69	0.552500	0.583100	0.841100
H701	H70	0.459400	0.603300	0.805500
H711	H71	0.524000	0.666800	0.840400
H721	H72	0.460300	0.607100	0.712500
H731	H73	0.522400	0.672200	0.748600
H741	H74	0.387800	0.643600	0.744000
H751	H75	0.450000	0.708500	0.781900
H761	H76	0.379200	0.706400	0.688600
H771	H77	0.389700	0.652700	0.653300
H781	H78	0.452100	0.717400	0.691000
H791	H79	0.682100	0.147300	0.763900
H801	H80	0.652100	0.115200	0.801600
H811	H81	0.657100	0.055500	0.694900
H821	H82	0.618700	0.020200	0.726200
H831	H83	0.762700	0.095500	0.784700
H841	H84	0.722400	0.053500	0.810500
H851	H85	0.699000	0.967400	0.731000
H861	H86	0.739000	0.009200	0.705000
H871	H87	0.799700	0.994600	0.814200
H881	H88	0.841800	0.045700	0.797500
H891	H89	0.780900	0.920000	0.721200
H901	H90	0.858900	0.954800	0.768600
H911	H91	0.832400	0.973000	0.713200
H921	H92	0.509100	0.168000	0.882400
H931	H93	0.476700	0.133400	0.812000
H941	H94	0.419400	0.192200	0.794000
H951	H95	0.460000	0.237400	0.861600
H961	H96	0.355800	0.119900	0.825700
H971	H97	0.392400	0.170300	0.890500
H981	H98	0.291400	0.168900	0.788900
H991	H99	0.330500	0.222900	0.851500
H1001	H100	0.157400	0.077900	0.824900
H1011	H101	0.203400	0.058500	0.797300
H1021	H102	0.161600	0.091100	0.768100
H1031	H103	0.092100	0.651600	0.671400
H1041	H104	0.000500	0.595400	0.927400
H1051	H105	0.740500	0.308900	0.277900
H1061	H106	0.837700	0.101500	0.419100
H1071	H107	0.959600	0.355700	0.965300
H1081	H108	0.908000	0.081600	0.709000
H1091	H109	0.049200	0.571400	0.482000
H1101	H110	0.876300	0.530800	0.347200
H1111	H111	0.108400	0.590300	0.424700
H1121	H112	0.930000	0.552600	0.288600
H1131	H113	0.108900	0.589100	0.328100
H1141	H114	0.990100	0.578300	0.241500
H1151	H115	0.162000	0.593600	0.270200
H1161	H116	0.983100	0.562200	0.139800
H1171	H117	0.201900	0.578100	0.198300
H1181	H118	0.027500	0.547100	0.071900
H1191	H119	0.800900	0.947000	0.449600
H1201	H120	0.726000	0.894100	0.555300
H1211	H121	0.842600	0.876700	0.441100
H1221	H122	0.760700	0.816600	0.545800
H1231	H123	0.852600	0.788000	0.460000
H1241	H124	0.778400	0.739000	0.515400
H1251	H125	0.774400	0.645300	0.522900
H1261	H126	0.889700	0.718800	0.445800
H1271	H127	0.809900	0.569500	0.511900
H1281	H128	0.922700	0.642300	0.438100
H1291	H129	0.158500	0.700000	0.839800
H1301	H130	0.186900	0.713000	0.793200
H1311	H131	0.124600	0.770000	0.773200
H1321	H132	0.096500	0.757200	0.820200
H1331	H133	0.228600	0.839200	0.845000
H1341	H134	0.222500	0.811400	0.893400
H1351	H135	0.150500	0.854700	0.910100
H1361	H136	0.149000	0.878500	0.857700
H1371	H137	0.241800	0.937500	0.975900
H1381	H138	0.282700	0.927200	0.938000
H1391	H139	0.280500	0.022500	0.952300
H1401	H140	0.199500	0.989900	0.917300
H1411	H141	0.244200	0.981800	0.882800
H1421	H142	0.899100	0.588800	0.814000
H1431	H143	0.942500	0.638300	0.796700
H1441	H144	0.904100	0.680600	0.864000
H1451	H145	0.944100	0.660300	0.912500
H1461	H146	0.005700	0.750900	0.874300
H1471	H147	0.049200	0.726600	0.915600
H1481	H148	0.016800	0.761800	0.991800
H1491	H149	0.974700	0.787000	0.950600
H1501	H150	0.079000	0.857600	0.957800
H1511	H151	0.121200	0.832400	0.998800
H1521	H152	0.129500	0.923500	0.060900
H1531	H153	0.090500	0.870200	0.076600
H1541	H154	0.048800	0.895700	0.035700
H1551	H155	0.698000	0.151700	0.270900
H1561	H156	0.740900	0.181000	0.239000
H1571	H157	0.614600	0.184600	0.229800
H1581	H158	0.658500	0.217900	0.200700
H1591	H159	0.589000	0.090600	0.163400
H1601	H160	0.640400	0.120600	0.138400
H1611	H161	0.511300	0.130300	0.117500
H1621	H162	0.564900	0.168300	0.098300
H1631	H163	0.500200	0.038500	0.051100
H1641	H164	0.552800	0.077000	0.031200
H1651	H165	0.434600	0.047700	0.959100
H1661	H166	0.474100	0.118700	0.990900
H1671	H167	0.422200	0.081900	0.011900
H1681	H168	0.860700	0.144700	0.322500
H1691	H169	0.881700	0.214500	0.347900
H1701	H170	0.971200	0.229200	0.436600
H1711	H171	0.947500	0.158900	0.416900
H1721	H172	0.040600	0.194500	0.396700
H1731	H173	0.976000	0.159600	0.333200
H1741	H174	0.039700	0.287500	0.392900
H1751	H175	0.977600	0.251400	0.327800
H1761	H176	0.112200	0.256000	0.356400
H1771	H177	0.050000	0.218100	0.291500
H1781	H178	0.120800	0.311400	0.293600
H1791	H179	0.110300	0.346700	0.347300
H1801	H180	0.047900	0.309000	0.282600
H1811	H181	0.817900	0.236100	0.852700
H1821	H182	0.847900	0.198400	0.884800
H1831	H183	0.842900	0.305100	0.944500
H1841	H184	0.881300	0.273800	0.979800
H1851	H185	0.737300	0.215300	0.904500
H1861	H186	0.777600	0.189500	0.946500
H1871	H187	0.801000	0.269000	0.032600
H1881	H188	0.761000	0.295000	0.990800
H1891	H189	0.700300	0.185800	0.005400
H1901	H190	0.658200	0.202500	0.954300
H1911	H191	0.719100	0.278800	0.080000
H1921	H192	0.641100	0.231400	0.045200
H1931	H193	0.667600	0.286800	0.027000
H1941	H194	0.990900	0.117600	0.832000
H1951	H195	0.023300	0.188000	0.866600
H1961	H196	0.080600	0.206000	0.807800
H1971	H197	0.040000	0.138400	0.762600
H1981	H198	0.144200	0.174300	0.880100
H1991	H199	0.107600	0.109500	0.829700
H2001	H200	0.208600	0.211100	0.831100
H2011	H201	0.169500	0.148500	0.777100
H2021	H202	0.342600	0.175100	0.922100
H2031	H203	0.296600	0.202700	0.941500
H2041	H204	0.338400	0.231900	0.908900
H2051	H205	0.592100	0.671400	0.651600
H2061	H206	0.500500	0.927400	0.595400
H2071	H207	0.240500	0.277900	0.308900
H2081	H208	0.337700	0.419100	0.101500
H2091	H209	0.459600	0.965300	0.355700
H2101	H210	0.408000	0.709000	0.081600
H2111	H211	0.549200	0.482000	0.571400
H2121	H212	0.376300	0.347200	0.530800
H2131	H213	0.608400	0.424700	0.590300
H2141	H214	0.430000	0.288600	0.552600
H2151	H215	0.608900	0.328100	0.589100
H2161	H216	0.490100	0.241500	0.578300
H2171	H217	0.662000	0.270200	0.593600
H2181	H218	0.483100	0.139800	0.562200
H2191	H219	0.701900	0.198300	0.578100
H2201	H220	0.527500	0.071900	0.547100
H2211	H221	0.300900	0.449600	0.947000
H2221	H222	0.226000	0.555300	0.894100
H2231	H223	0.342600	0.441100	0.876700
H2241	H224	0.260700	0.545800	0.816600
H2251	H225	0.352600	0.460000	0.788000
H2261	H226	0.278400	0.515400	0.739000
H2271	H227	0.274400	0.522900	0.645300
H2281	H228	0.389700	0.445800	0.718800
H2291	H229	0.309900	0.511900	0.569500
H2301	H230	0.422700	0.438100	0.642300
H2311	H231	0.658500	0.839800	0.700000
H2321	H232	0.686900	0.793200	0.713000
H2331	H233	0.624600	0.773200	0.770000
H2341	H234	0.596500	0.820200	0.757200
H2351	H235	0.728600	0.845000	0.839200
H2361	H236	0.722500	0.893400	0.811400
H2371	H237	0.650500	0.910100	0.854700
H2381	H238	0.649000	0.857700	0.878500
H2391	H239	0.741800	0.975900	0.937500
H2401	H240	0.782700	0.938000	0.927200
H2411	H241	0.780500	0.952300	0.022500
H2421	H242	0.699500	0.917300	0.989900
H2431	H243	0.744200	0.882800	0.981800
H2441	H244	0.399100	0.814000	0.588800
H2451	H245	0.442500	0.796700	0.638300
H2461	H246	0.404100	0.864000	0.680600
H2471	H247	0.444100	0.912500	0.660300
H2481	H248	0.505700	0.874300	0.750900
H2491	H249	0.549200	0.915600	0.726600
H2501	H250	0.516800	0.991800	0.761800
H2511	H251	0.474700	0.950600	0.787000
H2521	H252	0.579000	0.957800	0.857600
H2531	H253	0.621200	0.998800	0.832400
H2541	H254	0.629500	0.060900	0.923500
H2551	H255	0.590500	0.076600	0.870200
H2561	H256	0.548800	0.035700	0.895700
H2571	H257	0.198000	0.270900	0.151700
H2581	H258	0.240900	0.239000	0.181000
H2591	H259	0.114600	0.229800	0.184600
H2601	H260	0.158500	0.200700	0.217900
H2611	H261	0.089000	0.163400	0.090600
H2621	H262	0.140400	0.138400	0.120600
H2631	H263	0.011300	0.117500	0.130300
H2641	H264	0.064900	0.098300	0.168300
H2651	H265	0.000200	0.051100	0.038500
H2661	H266	0.052800	0.031200	0.077000
H2671	H267	0.934600	0.959100	0.047700
H2681	H268	0.974100	0.990900	0.118700
H2691	H269	0.922200	0.011900	0.081900
H2701	H270	0.360700	0.322500	0.144700
H2711	H271	0.381700	0.347900	0.214500
H2721	H272	0.471200	0.436600	0.229200
H2731	H273	0.447500	0.416900	0.158900
H2741	H274	0.540600	0.396700	0.194500
H2751	H275	0.476000	0.333200	0.159600
H2761	H276	0.539700	0.392900	0.287500
H2771	H277	0.477600	0.327800	0.251400
H2781	H278	0.612200	0.356400	0.256000
H2791	H279	0.550000	0.291500	0.218100
H2801	H280	0.620800	0.293600	0.311400
H2811	H281	0.610300	0.347300	0.346700
H2821	H282	0.547900	0.282600	0.309000
H2831	H283	0.317900	0.852700	0.236100
H2841	H284	0.347900	0.884800	0.198400
H2851	H285	0.342900	0.944500	0.305100
H2861	H286	0.381300	0.979800	0.273800
H2871	H287	0.237300	0.904500	0.215300
H2881	H288	0.277600	0.946500	0.189500
H2891	H289	0.301000	0.032600	0.269000
H2901	H290	0.261000	0.990800	0.295000
H2911	H291	0.200300	0.005400	0.185800
H2921	H292	0.158200	0.954300	0.202500
H2931	H293	0.219100	0.080000	0.278800
H2941	H294	0.141100	0.045200	0.231400
H2951	H295	0.167600	0.027000	0.286800
H2961	H296	0.490900	0.832000	0.117600
H2971	H297	0.523300	0.866600	0.188000
H2981	H298	0.580600	0.807800	0.206000
H2991	H299	0.540000	0.762600	0.138400
H3001	H300	0.644200	0.880100	0.174300
H3011	H301	0.607600	0.829700	0.109500
H3021	H302	0.708600	0.831100	0.211100
H3031	H303	0.669500	0.777100	0.148500
H3041	H304	0.842600	0.922100	0.175100
H3051	H305	0.796600	0.941500	0.202700
H3061	H306	0.838400	0.908900	0.231900
H3071	H307	0.907900	0.348400	0.328600
H3081	H308	0.999500	0.404600	0.072600
H3091	H309	0.259500	0.691100	0.722100
H3101	H310	0.162300	0.898500	0.580900
H3111	H311	0.040400	0.644300	0.034700
H3121	H312	0.092000	0.918400	0.291000
H3131	H313	0.950800	0.428600	0.518000
H3141	H314	0.123700	0.469200	0.652800
H3151	H315	0.891600	0.409700	0.575300
H3161	H316	0.070000	0.447400	0.711400
H3171	H317	0.891100	0.410900	0.671900
H3181	H318	0.009900	0.421700	0.758500
H3191	H319	0.838000	0.406400	0.729800
H3201	H320	0.016900	0.437800	0.860200
H3211	H321	0.798100	0.421900	0.801700
H3221	H322	0.972500	0.452900	0.928100
H3231	H323	0.199100	0.053000	0.550400
H3241	H324	0.274000	0.105900	0.444700
H3251	H325	0.157400	0.123300	0.558900
H3261	H326	0.239300	0.183400	0.454200
H3271	H327	0.147400	0.212000	0.540000
H3281	H328	0.221600	0.261000	0.484600
H3291	H329	0.225600	0.354700	0.477100
H3301	H330	0.110300	0.281200	0.554200
H3311	H331	0.190100	0.430500	0.488100
H3321	H332	0.077300	0.357700	0.561900
H3331	H333	0.841500	0.300000	0.160200
H3341	H334	0.813100	0.287000	0.206800
H3351	H335	0.875400	0.230000	0.226800
H3361	H336	0.903500	0.242800	0.179800
H3371	H337	0.771400	0.160800	0.155000
H3381	H338	0.777500	0.188600	0.106600
H3391	H339	0.849500	0.145300	0.089900
H3401	H340	0.851000	0.121500	0.142300
H3411	H341	0.758200	0.062500	0.024100
H3421	H342	0.717300	0.072800	0.062000
H3431	H343	0.719500	0.977500	0.047700
H3441	H344	0.800500	0.010100	0.082700
H3451	H345	0.755800	0.018200	0.117200
H3461	H346	0.100900	0.411200	0.186000
H3471	H347	0.057500	0.361700	0.203300
H3481	H348	0.095900	0.319400	0.136000
H3491	H349	0.055900	0.339700	0.087500
H3501	H350	0.994300	0.249100	0.125700
H3511	H351	0.950800	0.273400	0.084400
H3521	H352	0.983200	0.238200	0.008200
H3531	H353	0.025300	0.213000	0.049400
H3541	H354	0.921000	0.142400	0.042200
H3551	H355	0.878800	0.167600	0.001200
H3561	H356	0.870500	0.076500	0.939100
H3571	H357	0.909500	0.129800	0.923400
H3581	H358	0.951200	0.104300	0.964300
H3591	H359	0.302000	0.848300	0.729100
H3601	H360	0.259100	0.819000	0.761000
H3611	H361	0.385400	0.815400	0.770200
H3621	H362	0.341500	0.782100	0.799300
H3631	H363	0.411000	0.909400	0.836600
H3641	H364	0.359600	0.879400	0.861600
H3651	H365	0.488700	0.869700	0.882500
H3661	H366	0.435100	0.831700	0.901700
H3671	H367	0.499800	0.961500	0.948900
H3681	H368	0.447200	0.923000	0.968800
H3691	H369	0.565400	0.952300	0.040900
H3701	H370	0.525900	0.881300	0.009100
H3711	H371	0.577800	0.918100	0.988100
H3721	H372	0.139300	0.855300	0.677500
H3731	H373	0.118300	0.785500	0.652100
H3741	H374	0.028800	0.770800	0.563400
H3751	H375	0.052500	0.841100	0.583100
H3761	H376	0.959400	0.805500	0.603300
H3771	H377	0.024000	0.840400	0.666800
H3781	H378	0.960300	0.712500	0.607100
H3791	H379	0.022400	0.748600	0.672200
H3801	H380	0.887800	0.744000	0.643600
H3811	H381	0.950000	0.781900	0.708500
H3821	H382	0.879200	0.688600	0.706400
H3831	H383	0.889700	0.653300	0.652700
H3841	H384	0.952100	0.691000	0.717400
H3851	H385	0.182100	0.763900	0.147300
H3861	H386	0.152100	0.801600	0.115200
H3871	H387	0.157100	0.694900	0.055500
H3881	H388	0.118700	0.726200	0.020200
H3891	H389	0.262700	0.784700	0.095500
H3901	H390	0.222400	0.810500	0.053500
H3911	H391	0.199000	0.731000	0.967400
H3921	H392	0.239000	0.705000	0.009200
H3931	H393	0.299700	0.814200	0.994600
H3941	H394	0.341800	0.797500	0.045700
H3951	H395	0.280900	0.721200	0.920000
H3961	H396	0.358900	0.768600	0.954800
H3971	H397	0.332400	0.713200	0.973000
H3981	H398	0.009100	0.882400	0.168000
H3991	H399	0.976700	0.812000	0.133400
H4001	H400	0.919400	0.794000	0.192200
H4011	H401	0.960000	0.861600	0.237400
H4021	H402	0.855800	0.825700	0.119900
H4031	H403	0.892400	0.890500	0.170300
H4041	H404	0.791400	0.788900	0.168900
H4051	H405	0.830500	0.851500	0.222900
H4061	H406	0.657400	0.824900	0.077900
H4071	H407	0.703400	0.797300	0.058500
H4081	H408	0.661600	0.768100	0.091100
C11	C1	0.541600	0.414550	0.436070
C21	C2	0.499900	0.346880	0.410520
C31	C3	0.435900	0.312720	0.368080
C41	C4	0.413200	0.248810	0.354790
C51	C5	0.463500	0.237940	0.390340
C61	C6	0.458900	0.180620	0.396360
C71	C7	0.499700	0.151220	0.392200
C81	C8	0.478000	0.098240	0.405140
C91	C9	0.423100	0.088350	0.418410
C101	C10	0.386800	0.039770	0.435470
C111	C11	0.684500	0.615660	0.585340
C121	C12	0.704000	0.631080	0.651060
C131	C13	0.740700	0.686520	0.697080
C141	C14	0.748400	0.685790	0.755490
C151	C15	0.717400	0.627340	0.751480
C161	C16	0.713700	0.605500	0.799420
C171	C17	0.676600	0.611950	0.831870
C181	C18	0.683600	0.581070	0.872610
C191	C19	0.723900	0.552220	0.870080
C201	C20	0.745400	0.518350	0.906470
C211	C21	0.411000	0.031210	0.580850
C221	C22	0.469400	0.068100	0.641720
C231	C23	0.530400	0.063550	0.665250
C241	C24	0.576500	0.107400	0.724880
C251	C25	0.549400	0.144840	0.744360
C261	C26	0.581900	0.199370	0.801010
C271	C27	0.557300	0.214390	0.842410
C281	C28	0.600900	0.273630	0.886830
C291	C29	0.657700	0.302990	0.878510
C301	C30	0.713400	0.365640	0.914920
C311	C31	0.475200	0.557820	0.433400
C321	C32	0.576100	0.636720	0.456560
C331	C33	0.439000	0.592040	0.421480
C341	C34	0.544500	0.672600	0.444400
C351	C35	0.473600	0.650930	0.427190
C361	C36	0.437500	0.688310	0.418670
C371	C37	0.466400	0.744700	0.421200
C381	C38	0.433900	0.786590	0.423310
C391	C39	0.367000	0.770270	0.416930
C401	C40	0.472600	0.847210	0.435550
C411	C41	0.343200	0.813550	0.426050
C421	C42	0.445300	0.887630	0.444190
C431	C43	0.707200	0.530520	0.079480
C441	C44	0.751800	0.469310	0.110690
C451	C45	0.683600	0.537240	0.122560
C461	C46	0.731100	0.474860	0.157740
C471	C47	0.698400	0.511930	0.165070
C481	C48	0.676400	0.520820	0.213980
C491	C49	0.693500	0.504580	0.259420
C501	C50	0.672400	0.514920	0.309480
C511	C51	0.695600	0.494970	0.354670
C521	C52	0.627400	0.540430	0.311170
C531	C53	0.674000	0.501830	0.400130
C541	C54	0.608200	0.545100	0.357500
C551	C55	0.353100	0.198400	0.294200
C561	C56	0.363900	0.188800	0.236200
C571	C57	0.302500	0.138500	0.178100
C581	C58	0.322200	0.110100	0.129500
C591	C59	0.259100	0.064000	0.069200
C601	C60	0.259000	0.079300	0.013500
C611	C61	0.557600	0.170360	0.375240
C621	C62	0.554900	0.120260	0.325940
C631	C63	0.491700	0.094770	0.266230
C641	C64	0.484800	0.038800	0.220800
C651	C65	0.419400	0.011600	0.159800
C661	C66	0.411900	0.954100	0.113100
C671	C67	0.788900	0.741750	0.814450
C681	C68	0.854200	0.788500	0.817300
C691	C69	0.891800	0.845800	0.874200
C701	C70	0.952900	0.895700	0.869100
C711	C71	0.982500	0.954900	0.923900
C721	C72	0.044100	0.003100	0.918300
C731	C73	0.621700	0.640700	0.820100
C741	C74	0.549000	0.598000	0.808600
C751	C75	0.501100	0.629500	0.804900
C761	C76	0.481300	0.644000	0.748200
C771	C77	0.429500	0.672300	0.745500
C781	C78	0.410900	0.688700	0.689300
C791	C79	0.646500	0.111040	0.760780
C801	C80	0.657300	0.056840	0.733760
C811	C81	0.724300	0.056970	0.773430
C821	C82	0.737500	0.005850	0.742150
C831	C83	0.804000	0.005310	0.780690
C841	C84	0.820700	0.958800	0.742200
C851	C85	0.495500	0.172500	0.843500
C861	C86	0.437700	0.194700	0.835500
C871	C87	0.374200	0.163200	0.847600
C881	C88	0.311600	0.179100	0.832300
C891	C89	0.187000	0.088700	0.805500
C901	C90	0.958400	0.563930	0.585450
C911	C91	0.000100	0.589480	0.653120
C921	C92	0.064100	0.631920	0.687280
C931	C93	0.086800	0.645210	0.751190
C941	C94	0.036500	0.609660	0.762060
C951	C95	0.041100	0.603640	0.819380
C961	C96	0.000300	0.607800	0.848780
C971	C97	0.022000	0.594860	0.901760
C981	C98	0.076900	0.581590	0.911650
C991	C99	0.113200	0.564530	0.960230
C1001	C100	0.815500	0.414660	0.384340
C1011	C101	0.796000	0.348940	0.368920
C1021	C102	0.759300	0.302920	0.313480
C1031	C103	0.751600	0.244510	0.314210
C1041	C104	0.782600	0.248520	0.372660
C1051	C105	0.786300	0.200580	0.394500
C1061	C106	0.823400	0.168130	0.388050
C1071	C107	0.816400	0.127390	0.418930
C1081	C108	0.776100	0.129920	0.447780
C1091	C109	0.754600	0.093530	0.481650
C1101	C110	0.089000	0.419150	0.968790
C1111	C111	0.030600	0.358280	0.931900
C1121	C112	0.969600	0.334750	0.936450
C1131	C113	0.923500	0.275120	0.892600
C1141	C114	0.950600	0.255640	0.855160
C1151	C115	0.918100	0.198990	0.800630
C1161	C116	0.942700	0.157590	0.785610
C1171	C117	0.899100	0.113170	0.726370
C1181	C118	0.842300	0.121490	0.697010
C1191	C119	0.786600	0.085080	0.634360
C1201	C120	0.024800	0.566600	0.442180
C1211	C121	0.923900	0.543440	0.363280
C1221	C122	0.061000	0.578520	0.407960
C1231	C123	0.955500	0.555600	0.327400
C1241	C124	0.026400	0.572810	0.349070
C1251	C125	0.062500	0.581330	0.311690
C1261	C126	0.033600	0.578800	0.255300
C1271	C127	0.066100	0.576690	0.213410
C1281	C128	0.133000	0.583070	0.229730
C1291	C129	0.027400	0.564450	0.152790
C1301	C130	0.156800	0.573950	0.186450
C1311	C131	0.054700	0.555810	0.112370
C1321	C132	0.792800	0.920520	0.469480
C1331	C133	0.748200	0.889310	0.530690
C1341	C134	0.816400	0.877440	0.462760
C1351	C135	0.768900	0.842260	0.525140
C1361	C136	0.801600	0.834930	0.488070
C1371	C137	0.823600	0.786020	0.479180
C1381	C138	0.806500	0.740580	0.495420
C1391	C139	0.827600	0.690520	0.485080
C1401	C140	0.804400	0.645330	0.505030
C1411	C141	0.872600	0.688830	0.459570
C1421	C142	0.826000	0.599870	0.498170
C1431	C143	0.891800	0.642500	0.454900
C1441	C144	0.146900	0.705800	0.801600
C1451	C145	0.136100	0.763800	0.811200
C1461	C146	0.197500	0.821900	0.861500
C1471	C147	0.177800	0.870500	0.889900
C1481	C148	0.240900	0.930800	0.936000
C1491	C149	0.241000	0.986500	0.920700
C1501	C150	0.942400	0.624760	0.829640
C1511	C151	0.945100	0.674060	0.879740
C1521	C152	0.008300	0.733770	0.905230
C1531	C153	0.015200	0.779200	0.961200
C1541	C154	0.080600	0.840200	0.988400
C1551	C155	0.088100	0.886900	0.045900
C1561	C156	0.711100	0.185550	0.258250
C1571	C157	0.645800	0.182700	0.211500
C1581	C158	0.608200	0.125800	0.154200
C1591	C159	0.547100	0.130900	0.104300
C1601	C160	0.517500	0.076100	0.045100
C1611	C161	0.455900	0.081700	0.996900
C1621	C162	0.878300	0.179900	0.359300
C1631	C163	0.951000	0.191400	0.402000
C1641	C164	0.998900	0.195100	0.370500
C1651	C165	0.018700	0.251800	0.356000
C1661	C166	0.070500	0.254500	0.327700
C1671	C167	0.089100	0.310700	0.311300
C1681	C168	0.853500	0.239220	0.888960
C1691	C169	0.842700	0.266240	0.943160
C1701	C170	0.775700	0.226570	0.943030
C1711	C171	0.762500	0.257850	0.994150
C1721	C172	0.696000	0.219310	0.994690
C1731	C173	0.679300	0.257800	0.041200
C1741	C174	0.004500	0.156500	0.827500
C1751	C175	0.062300	0.164500	0.805300
C1761	C176	0.125800	0.152400	0.836800
C1771	C177	0.188400	0.167700	0.820900
C1781	C178	0.313000	0.194500	0.911300
C1791	C179	0.458400	0.585450	0.563930
C1801	C180	0.500100	0.653120	0.589480
C1811	C181	0.564100	0.687280	0.631920
C1821	C182	0.586800	0.751190	0.645210
C1831	C183	0.536500	0.762060	0.609660
C1841	C184	0.541100	0.819380	0.603640
C1851	C185	0.500300	0.848780	0.607800
C1861	C186	0.522000	0.901760	0.594860
C1871	C187	0.576900	0.911650	0.581590
C1881	C188	0.613200	0.960230	0.564530
C1891	C189	0.315500	0.384340	0.414660
C1901	C190	0.296000	0.368920	0.348940
C1911	C191	0.259300	0.313480	0.302920
C1921	C192	0.251600	0.314210	0.244510
C1931	C193	0.282600	0.372660	0.248520
C1941	C194	0.286300	0.394500	0.200580
C1951	C195	0.323400	0.388050	0.168130
C1961	C196	0.316400	0.418930	0.127390
C1971	C197	0.276100	0.447780	0.129920
C1981	C198	0.254600	0.481650	0.093530
C1991	C199	0.589000	0.968790	0.419150
C2001	C200	0.530600	0.931900	0.358280
C2011	C201	0.469600	0.936450	0.334750
C2021	C202	0.423500	0.892600	0.275120
C2031	C203	0.450600	0.855160	0.255640
C2041	C204	0.418100	0.800630	0.198990
C2051	C205	0.442700	0.785610	0.157590
C2061	C206	0.399100	0.726370	0.113170
C2071	C207	0.342300	0.697010	0.121490
C2081	C208	0.286600	0.634360	0.085080
C2091	C209	0.524800	0.442180	0.566600
C2101	C210	0.423900	0.363280	0.543440
C2111	C211	0.561000	0.407960	0.578520
C2121	C212	0.455500	0.327400	0.555600
C2131	C213	0.526400	0.349070	0.572810
C2141	C214	0.562500	0.311690	0.581330
C2151	C215	0.533600	0.255300	0.578800
C2161	C216	0.566100	0.213410	0.576690
C2171	C217	0.633000	0.229730	0.583070
C2181	C218	0.527400	0.152790	0.564450
C2191	C219	0.656800	0.186450	0.573950
C2201	C220	0.554700	0.112370	0.555810
C2211	C221	0.292800	0.469480	0.920520
C2221	C222	0.248200	0.530690	0.889310
C2231	C223	0.316400	0.462760	0.877440
C2241	C224	0.268900	0.525140	0.842260
C2251	C225	0.301600	0.488070	0.834930
C2261	C226	0.323600	0.479180	0.786020
C2271	C227	0.306500	0.495420	0.740580
C2281	C228	0.327600	0.485080	0.690520
C2291	C229	0.304400	0.505030	0.645330
C2301	C230	0.372600	0.459570	0.688830
C2311	C231	0.326000	0.498170	0.599870
C2321	C232	0.391800	0.454900	0.642500
C2331	C233	0.646900	0.801600	0.705800
C2341	C234	0.636100	0.811200	0.763800
C2351	C235	0.697500	0.861500	0.821900
C2361	C236	0.677800	0.889900	0.870500
C2371	C237	0.740900	0.936000	0.930800
C2381	C238	0.741000	0.920700	0.986500
C2391	C239	0.442400	0.829640	0.624760
C2401	C240	0.445100	0.879740	0.674060
C2411	C241	0.508300	0.905230	0.733770
C2421	C242	0.515200	0.961200	0.779200
C2431	C243	0.580600	0.988400	0.840200
C2441	C244	0.588100	0.045900	0.886900
C2451	C245	0.211100	0.258250	0.185550
C2461	C246	0.145800	0.211500	0.182700
C2471	C247	0.108200	0.154200	0.125800
C2481	C248	0.047100	0.104300	0.130900
C2491	C249	0.017500	0.045100	0.076100
C2501	C250	0.955900	0.996900	0.081700
C2511	C251	0.378300	0.359300	0.179900
C2521	C252	0.451000	0.402000	0.191400
C2531	C253	0.498900	0.370500	0.195100
C2541	C254	0.518700	0.356000	0.251800
C2551	C255	0.570500	0.327700	0.254500
C2561	C256	0.589100	0.311300	0.310700
C2571	C257	0.353500	0.888960	0.239220
C2581	C258	0.342700	0.943160	0.266240
C2591	C259	0.275700	0.943030	0.226570
C2601	C260	0.262500	0.994150	0.257850
C2611	C261	0.196000	0.994690	0.219310
C2621	C262	0.179300	0.041200	0.257800
C2631	C263	0.504500	0.827500	0.156500
C2641	C264	0.562300	0.805300	0.164500
C2651	C265	0.625800	0.836800	0.152400
C2661	C266	0.688400	0.820900	0.167700
C2671	C267	0.813000	0.911300	0.194500
C2681	C268	0.041600	0.436070	0.414550
C2691	C269	0.999900	0.410520	0.346880
C2701	C270	0.935900	0.368080	0.312720
C2711	C271	0.913200	0.354790	0.248810
C2721	C272	0.963500	0.390340	0.237940
C2731	C273	0.958900	0.396360	0.180620
C2741	C274	0.999700	0.392200	0.151220
C2751	C275	0.978000	0.405140	0.098240
C2761	C276	0.923100	0.418410	0.088350
C2771	C277	0.886800	0.435470	0.039770
C2781	C278	0.184500	0.585340	0.615660
C2791	C279	0.204000	0.651060	0.631080
C2801	C280	0.240700	0.697080	0.686520
C2811	C281	0.248400	0.755490	0.685790
C2821	C282	0.217400	0.751480	0.627340
C2831	C283	0.213700	0.799420	0.605500
C2841	C284	0.176600	0.831870	0.611950
C2851	C285	0.183600	0.872610	0.581070
C2861	C286	0.223900	0.870080	0.552220
C2871	C287	0.245400	0.906470	0.518350
C2881	C288	0.911000	0.580850	0.031210
C2891	C289	0.969400	0.641720	0.068100
C2901	C290	0.030400	0.665250	0.063550
C2911	C291	0.076500	0.724880	0.107400
C2921	C292	0.049400	0.744360	0.144840
C2931	C293	0.081900	0.801010	0.199370
C2941	C294	0.057300	0.842410	0.214390
C2951	C295	0.100900	0.886830	0.273630
C2961	C296	0.157700	0.878510	0.302990
C2971	C297	0.213400	0.914920	0.365640
C2981	C298	0.975200	0.433400	0.557820
C2991	C299	0.076100	0.456560	0.636720
C3001	C300	0.939000	0.421480	0.592040
C3011	C301	0.044500	0.444400	0.672600
C3021	C302	0.973600	0.427190	0.650930
C3031	C303	0.937500	0.418670	0.688310
C3041	C304	0.966400	0.421200	0.744700
C3051	C305	0.933900	0.423310	0.786590
C3061	C306	0.867000	0.416930	0.770270
C3071	C307	0.972600	0.435550	0.847210
C3081	C308	0.843200	0.426050	0.813550
C3091	C309	0.945300	0.444190	0.887630
C3101	C310	0.207200	0.079480	0.530520
C3111	C311	0.251800	0.110690	0.469310
C3121	C312	0.183600	0.122560	0.537240
C3131	C313	0.231100	0.157740	0.474860
C3141	C314	0.198400	0.165070	0.511930
C3151	C315	0.176400	0.213980	0.520820
C3161	C316	0.193500	0.259420	0.504580
C3171	C317	0.172400	0.309480	0.514920
C3181	C318	0.195600	0.354670	0.494970
C3191	C319	0.127400	0.311170	0.540430
C3201	C320	0.174000	0.400130	0.501830
C3211	C321	0.108200	0.357500	0.545100
C3221	C322	0.853100	0.294200	0.198400
C3231	C323	0.863900	0.236200	0.188800
C3241	C324	0.802500	0.178100	0.138500
C3251	C325	0.822200	0.129500	0.110100
C3261	C326	0.759100	0.069200	0.064000
C3271	C327	0.759000	0.013500	0.079300
C3281	C328	0.057600	0.375240	0.170360
C3291	C329	0.054900	0.325940	0.120260
C3301	C330	0.991700	0.266230	0.094770
C3311	C331	0.984800	0.220800	0.038800
C3321	C332	0.919400	0.159800	0.011600
C3331	C333	0.911900	0.113100	0.954100
C3341	C334	0.288900	0.814450	0.741750
C3351	C335	0.354200	0.817300	0.788500
C3361	C336	0.391800	0.874200	0.845800
C3371	C337	0.452900	0.869100	0.895700
C3381	C338	0.482500	0.923900	0.954900
C3391	C339	0.544100	0.918300	0.003100
C3401	C340	0.121700	0.820100	0.640700
C3411	C341	0.049000	0.808600	0.598000
C3421	C342	0.001100	0.804900	0.629500
C3431	C343	0.981300	0.748200	0.644000
C3441	C344	0.929500	0.745500	0.672300
C3451	C345	0.910900	0.689300	0.688700
C3461	C346	0.146500	0.760780	0.111040
C3471	C347	0.157300	0.733760	0.056840
C3481	C348	0.224300	0.773430	0.056970
C3491	C349	0.237500	0.742150	0.005850
C3501	C350	0.304000	0.780690	0.005310
C3511	C351	0.320700	0.742200	0.958800
C3521	C352	0.995500	0.843500	0.172500
C3531	C353	0.937700	0.835500	0.194700
C3541	C354	0.874200	0.847600	0.163200
C3551	C355	0.811600	0.832300	0.179100
C3561	C356	0.687000	0.805500	0.088700
C3571	C357	0.250000	0.151700	0.848300
C3581	C358	0.750000	0.848300	0.151700
S11	S1	0.537870	0.303430	0.435630
S21	S2	0.396770	0.144650	0.417230
S31	S3	0.678790	0.575470	0.677810
S41	S4	0.754570	0.561050	0.817190
S51	S5	0.468320	0.127050	0.690970
S61	S6	0.658020	0.258040	0.816160
S71	S7	0.962130	0.564370	0.696570
S81	S8	0.103230	0.582770	0.855350
S91	S9	0.821210	0.322190	0.424530
S101	S10	0.745430	0.182810	0.438950
S111	S11	0.031680	0.309030	0.872950
S121	S12	0.841980	0.183840	0.741960
S131	S13	0.462130	0.696570	0.564370
S141	S14	0.603230	0.855350	0.582770
S151	S15	0.321210	0.424530	0.322190
S161	S16	0.245430	0.438950	0.182810
S171	S17	0.531680	0.872950	0.309030
S181	S18	0.341980	0.741960	0.183840
S191	S19	0.037870	0.435630	0.303430
S201	S20	0.896770	0.417230	0.144650
S211	S21	0.178790	0.677810	0.575470
S221	S22	0.254570	0.817190	0.561050
S231	S23	0.968320	0.690970	0.127050
S241	S24	0.158020	0.816160	0.258040
N11	N1	0.543400	0.579820	0.451560
N21	N2	0.382500	0.872400	0.440780
N31	N3	0.741100	0.497450	0.072990
N41	N4	0.631300	0.527030	0.402630
N51	N5	0.956600	0.548440	0.420180
N61	N6	0.117500	0.559220	0.127600
N71	N7	0.758900	0.927010	0.502550
N81	N8	0.868700	0.597370	0.472970
N91	N9	0.456600	0.420180	0.548440
N101	N10	0.617500	0.127600	0.559220
N111	N11	0.258900	0.502550	0.927010
N121	N12	0.368700	0.472970	0.597370
N131	N13	0.043400	0.451560	0.579820
N141	N14	0.882500	0.440780	0.872400
N151	N15	0.241100	0.072990	0.497450
N161	N16	0.131300	0.402630	0.527030
O11	O1	0.605400	0.435990	0.465350
O21	O2	0.509420	0.445500	0.426240
O31	O3	0.402600	0.996300	0.431860
O41	O4	0.342480	0.046270	0.452710
O51	O5	0.648300	0.558580	0.552920
O61	O6	0.702290	0.655740	0.566240
O71	O7	0.782910	0.494800	0.894040
O81	O8	0.726740	0.516680	0.948220
O91	O9	0.416410	0.990350	0.545730
O101	O10	0.360270	0.043970	0.568750
O111	O11	0.763350	0.379420	0.900960
O121	O12	0.205760	0.955580	0.399100
O131	O13	0.894600	0.534650	0.564010
O141	O14	0.990580	0.573760	0.554500
O151	O15	0.097400	0.568140	0.003700
O161	O16	0.157520	0.547290	0.953730
O171	O17	0.851700	0.447080	0.441420
O181	O18	0.797710	0.433760	0.344260
O191	O19	0.717090	0.105960	0.505200
O201	O20	0.773260	0.051780	0.483320
O211	O21	0.083590	0.454270	0.009650
O221	O22	0.139730	0.431250	0.956030
O231	O23	0.736650	0.099040	0.620580
O241	O24	0.294240	0.600900	0.044420
O251	O25	0.394600	0.564010	0.534650
O261	O26	0.490580	0.554500	0.573760
O271	O27	0.597400	0.003700	0.568140
O281	O28	0.657520	0.953730	0.547290
O291	O29	0.351700	0.441420	0.447080
O301	O30	0.297710	0.344260	0.433760
O311	O31	0.217090	0.505200	0.105960
O321	O32	0.273260	0.483320	0.051780
O331	O33	0.583590	0.009650	0.454270
O341	O34	0.639730	0.956030	0.431250
O351	O35	0.236650	0.620580	0.099040
O361	O36	0.794240	0.044420	0.600900
O371	O37	0.105400	0.465350	0.435990
O381	O38	0.009420	0.426240	0.445500
O391	O39	0.902600	0.431860	0.996300
O401	O40	0.842480	0.452710	0.046270
O411	O41	0.148300	0.552920	0.558580
O421	O42	0.202290	0.566240	0.655740
O431	O43	0.282910	0.894040	0.494800
O441	O44	0.226740	0.948220	0.516680
O451	O45	0.916410	0.545730	0.990350
O461	O46	0.860270	0.568750	0.043970
O471	O47	0.263350	0.900960	0.379420
O481	O48	0.705760	0.399100	0.955580
