data_WEDQED_freeONLY_PM
_symmetry_space_group_name_H-M	'P1'
_cell_length_a	13.717100
_cell_length_b	13.717100
_cell_length_c	14.813000
_cell_angle_alpha	89.758600
_cell_angle_beta	89.758600
_cell_angle_gamma	82.050300
_symmetry_Int_Tables_number 1

loop_
_symmetry_equiv_pos_as_xyz
'x,y,z'

loop_
_atom_site_label
_atom_site_type_symbol
_atom_site_fract_x
_atom_site_fract_y
_atom_site_fract_z
Co11	Co1	0.447930	0.293910	0.038920
Co21	Co2	0.457860	0.475840	0.909610
Co31	Co3	0.706090	0.552070	0.461080
Co41	Co4	0.524160	0.542140	0.590390
Co51	Co5	0.552070	0.706090	0.961080
Co61	Co6	0.542140	0.524160	0.090390
Co71	Co7	0.293910	0.447930	0.538920
Co81	Co8	0.475840	0.457860	0.409610
H11	H1	0.586500	0.363500	0.989000
H21	H2	0.346000	0.512000	0.772000
H31	H3	0.295000	0.531000	0.853000
H41	H4	0.076700	0.451300	0.311100
H51	H5	0.987500	0.454500	0.179800
H61	H6	0.067600	0.452600	0.041400
H71	H7	0.537300	0.084300	0.992500
H81	H8	0.654500	0.960300	0.036900
H91	H9	0.744700	0.143500	0.216300
H101	H10	0.629200	0.267600	0.161100
H111	H11	0.744900	0.898500	0.192600
H121	H12	0.820200	0.915800	0.116500
H131	H13	0.818500	0.992300	0.290200
H141	H14	0.889300	0.020300	0.213800
H151	H15	0.979600	0.900600	0.295400
H161	H16	0.956500	0.850900	0.204500
H171	H17	0.916700	0.690300	0.222700
H181	H18	0.844200	0.573400	0.303000
H191	H19	0.771400	0.759000	0.496400
H201	H20	0.838100	0.881300	0.418300
H211	H21	0.636500	0.413500	0.511000
H221	H22	0.488000	0.654000	0.728000
H231	H23	0.469000	0.705000	0.647000
H241	H24	0.548700	0.923300	0.188900
H251	H25	0.545500	0.012500	0.320200
H261	H26	0.547400	0.932400	0.458600
H271	H27	0.915700	0.462700	0.507500
H281	H28	0.039700	0.345500	0.463100
H291	H29	0.856500	0.255300	0.283700
H301	H30	0.732400	0.370800	0.338900
H311	H31	0.101500	0.255100	0.307400
H321	H32	0.084200	0.179800	0.383500
H331	H33	0.007700	0.181500	0.209800
H341	H34	0.979700	0.110700	0.286200
H351	H35	0.099400	0.020400	0.204600
H361	H36	0.149100	0.043500	0.295500
H371	H37	0.309700	0.083300	0.277300
H381	H38	0.426600	0.155800	0.197000
H391	H39	0.241000	0.228600	0.003600
H401	H40	0.118700	0.161900	0.081700
H411	H41	0.413500	0.636500	0.011000
H421	H42	0.654000	0.488000	0.228000
H431	H43	0.705000	0.469000	0.147000
H441	H44	0.923300	0.548700	0.688900
H451	H45	0.012500	0.545500	0.820200
H461	H46	0.932400	0.547400	0.958600
H471	H47	0.462700	0.915700	0.007500
H481	H48	0.345500	0.039700	0.963100
H491	H49	0.255300	0.856500	0.783700
H501	H50	0.370800	0.732400	0.838900
H511	H51	0.255100	0.101500	0.807400
H521	H52	0.179800	0.084200	0.883500
H531	H53	0.181500	0.007700	0.709800
H541	H54	0.110700	0.979700	0.786200
H551	H55	0.020400	0.099400	0.704600
H561	H56	0.043500	0.149100	0.795500
H571	H57	0.083300	0.309700	0.777300
H581	H58	0.155800	0.426600	0.697000
H591	H59	0.228600	0.241000	0.503600
H601	H60	0.161900	0.118700	0.581700
H611	H61	0.363500	0.586500	0.489000
H621	H62	0.512000	0.346000	0.272000
H631	H63	0.531000	0.295000	0.353000
H641	H64	0.451300	0.076700	0.811100
H651	H65	0.454500	0.987500	0.679800
H661	H66	0.452600	0.067600	0.541400
H671	H67	0.084300	0.537300	0.492500
H681	H68	0.960300	0.654500	0.536900
H691	H69	0.143500	0.744700	0.716300
H701	H70	0.267600	0.629200	0.661100
H711	H71	0.898500	0.744900	0.692600
H721	H72	0.915800	0.820200	0.616500
H731	H73	0.992300	0.818500	0.790200
H741	H74	0.020300	0.889300	0.713800
H751	H75	0.900600	0.979600	0.795400
H761	H76	0.850900	0.956500	0.704500
H771	H77	0.690300	0.916700	0.722700
H781	H78	0.573400	0.844200	0.803000
H791	H79	0.759000	0.771400	0.996400
H801	H80	0.881300	0.838100	0.918300
C11	C1	0.206000	0.445800	0.090100
C21	C2	0.260300	0.442100	0.170400
C31	C3	0.211500	0.444500	0.253300
C41	C4	0.109100	0.449500	0.255700
C51	C5	0.055600	0.452000	0.177500
C61	C6	0.103900	0.450500	0.094500
C71	C7	0.252600	0.451400	0.999000
C81	C8	0.371900	0.439100	0.163100
C91	C9	0.267500	0.446700	0.339400
C101	C10	0.580000	0.096600	0.038500
C111	C11	0.649700	0.021300	0.065000
C121	C12	0.712400	0.036200	0.133100
C131	C13	0.703200	0.130200	0.169900
C141	C14	0.632300	0.204500	0.137700
C151	C15	0.783700	0.946300	0.167700
C161	C16	0.854000	0.968400	0.236100
C171	C17	0.927300	0.879300	0.259800
C181	C18	0.883700	0.799500	0.312300
C191	C19	0.886400	0.706600	0.278000
C201	C20	0.843000	0.636000	0.327300
C211	C21	0.799900	0.744500	0.440100
C221	C22	0.840800	0.819000	0.393200
C231	C23	0.554200	0.794000	0.409900
C241	C24	0.557900	0.739700	0.329600
C251	C25	0.555500	0.788500	0.246700
C261	C26	0.550500	0.890900	0.244300
C271	C27	0.548000	0.944400	0.322500
C281	C28	0.549500	0.896100	0.405500
C291	C29	0.548600	0.747400	0.501000
C301	C30	0.560900	0.628100	0.336900
C311	C31	0.553300	0.732500	0.160600
C321	C32	0.903400	0.420000	0.461500
C331	C33	0.978700	0.350300	0.435000
C341	C34	0.963800	0.287600	0.366900
C351	C35	0.869800	0.296800	0.330100
C361	C36	0.795500	0.367700	0.362300
C371	C37	0.053700	0.216300	0.332300
C381	C38	0.031600	0.146000	0.263900
C391	C39	0.120700	0.072700	0.240200
C401	C40	0.200500	0.116300	0.187700
C411	C41	0.293400	0.113600	0.222000
C421	C42	0.364000	0.157000	0.172700
C431	C43	0.255500	0.200100	0.059900
C441	C44	0.181000	0.159200	0.106800
C451	C45	0.794000	0.554200	0.909900
C461	C46	0.739700	0.557900	0.829600
C471	C47	0.788500	0.555500	0.746700
C481	C48	0.890900	0.550500	0.744300
C491	C49	0.944400	0.548000	0.822500
C501	C50	0.896100	0.549500	0.905500
C511	C51	0.747400	0.548600	0.001000
C521	C52	0.628100	0.560900	0.836900
C531	C53	0.732500	0.553300	0.660600
C541	C54	0.420000	0.903400	0.961500
C551	C55	0.350300	0.978700	0.935000
C561	C56	0.287600	0.963800	0.866900
C571	C57	0.296800	0.869800	0.830100
C581	C58	0.367700	0.795500	0.862300
C591	C59	0.216300	0.053700	0.832300
C601	C60	0.146000	0.031600	0.763900
C611	C61	0.072700	0.120700	0.740200
C621	C62	0.116300	0.200500	0.687700
C631	C63	0.113600	0.293400	0.722000
C641	C64	0.157000	0.364000	0.672700
C651	C65	0.200100	0.255500	0.559900
C661	C66	0.159200	0.181000	0.606800
C671	C67	0.445800	0.206000	0.590100
C681	C68	0.442100	0.260300	0.670400
C691	C69	0.444500	0.211500	0.753300
C701	C70	0.449500	0.109100	0.755700
C711	C71	0.452000	0.055600	0.677500
C721	C72	0.450500	0.103900	0.594500
C731	C73	0.451400	0.252600	0.499000
C741	C74	0.439100	0.371900	0.663100
C751	C75	0.446700	0.267500	0.839400
C761	C76	0.096600	0.580000	0.538500
C771	C77	0.021300	0.649700	0.565000
C781	C78	0.036200	0.712400	0.633100
C791	C79	0.130200	0.703200	0.669900
C801	C80	0.204500	0.632300	0.637700
C811	C81	0.946300	0.783700	0.667700
C821	C82	0.968400	0.854000	0.736100
C831	C83	0.879300	0.927300	0.759800
C841	C84	0.799500	0.883700	0.812300
C851	C85	0.706600	0.886400	0.778000
C861	C86	0.636000	0.843000	0.827300
C871	C87	0.744500	0.799900	0.940100
C881	C88	0.819000	0.840800	0.893200
N11	N1	0.568900	0.187300	0.074400
N21	N2	0.800300	0.654900	0.407100
N31	N3	0.812700	0.431100	0.425600
N41	N4	0.345100	0.199700	0.092900
N51	N5	0.431100	0.812700	0.925600
N61	N6	0.199700	0.345100	0.592900
N71	N7	0.187300	0.568900	0.574400
N81	N8	0.654900	0.800300	0.907100
O11	O1	0.538250	0.399310	0.013000
O21	O2	0.342970	0.416170	0.990500
O31	O3	0.201800	0.491200	0.936400
O41	O4	0.424520	0.355340	0.168300
O51	O5	0.402880	0.518680	0.148800
O61	O6	0.355600	0.460000	0.330500
O71	O7	0.224780	0.438180	0.414600
O81	O8	0.345800	0.541800	0.823000
O91	O9	0.600690	0.461750	0.487000
O101	O10	0.583830	0.657030	0.509500
O111	O11	0.508800	0.798200	0.563600
O121	O12	0.644660	0.575480	0.331700
O131	O13	0.481320	0.597120	0.351200
O141	O14	0.540000	0.644400	0.169500
O151	O15	0.561820	0.775220	0.085400
O161	O16	0.458200	0.654200	0.677000
O171	O17	0.461750	0.600690	0.987000
O181	O18	0.657030	0.583830	0.009500
O191	O19	0.798200	0.508800	0.063600
O201	O20	0.575480	0.644660	0.831700
O211	O21	0.597120	0.481320	0.851200
O221	O22	0.644400	0.540000	0.669500
O231	O23	0.775220	0.561820	0.585400
O241	O24	0.654200	0.458200	0.177000
O251	O25	0.399310	0.538250	0.513000
O261	O26	0.416170	0.342970	0.490500
O271	O27	0.491200	0.201800	0.436400
O281	O28	0.355340	0.424520	0.668300
O291	O29	0.518680	0.402880	0.648800
O301	O30	0.460000	0.355600	0.830500
O311	O31	0.438180	0.224780	0.914600
O321	O32	0.541800	0.345800	0.323000
