data_WEHHIC_freeONLY_PM
_symmetry_space_group_name_H-M	'P1'
_cell_length_a	12.383000
_cell_length_b	26.271000
_cell_length_c	26.278000
_cell_angle_alpha	90.000000
_cell_angle_beta	90.000000
_cell_angle_gamma	90.000000
_symmetry_Int_Tables_number 1

loop_
_symmetry_equiv_pos_as_xyz
'x,y,z'

loop_
_atom_site_label
_atom_site_type_symbol
_atom_site_fract_x
_atom_site_fract_y
_atom_site_fract_z
Zn11	Zn1	0.917430	0.994320	0.959160
Zn21	Zn2	0.082570	0.005680	0.459160
Zn31	Zn3	0.082570	0.494320	0.540840
Zn41	Zn4	0.917430	0.505680	0.040840
Zn51	Zn5	0.082570	0.005680	0.040840
Zn61	Zn6	0.917430	0.994320	0.540840
Zn71	Zn7	0.917430	0.505680	0.459160
Zn81	Zn8	0.082570	0.494320	0.959160
Zn91	Zn9	0.978810	0.699190	0.250000
Zn101	Zn10	0.146650	0.781070	0.250000
Zn111	Zn11	0.021190	0.300810	0.750000
Zn121	Zn12	0.853350	0.218930	0.750000
Zn131	Zn13	0.021190	0.199190	0.250000
Zn141	Zn14	0.853350	0.281070	0.250000
Zn151	Zn15	0.978810	0.800810	0.750000
Zn161	Zn16	0.146650	0.718930	0.750000
H11	H1	0.565500	0.823400	0.024400
H21	H2	0.657900	0.803100	0.988700
H31	H3	0.749300	0.867500	0.027600
H41	H4	0.785000	0.757100	0.132600
H51	H5	0.988400	0.874500	0.130200
H61	H6	0.812200	0.042900	0.876700
H71	H7	0.544100	0.008100	0.829100
H81	H8	0.654600	0.014900	0.800900
H91	H9	0.629500	0.964000	0.829600
H101	H10	0.530100	0.057500	0.886100
H111	H11	0.607900	0.058600	0.933100
H121	H12	0.632100	0.092800	0.885600
H131	H13	0.297200	0.615100	0.008000
H141	H14	0.416600	0.760700	0.054000
H151	H15	0.510900	0.726000	0.074500
H161	H16	0.330900	0.720500	0.118300
H171	H17	0.095800	0.615600	0.126800
H181	H18	0.434500	0.176600	0.524400
H191	H19	0.342100	0.196900	0.488700
H201	H20	0.250700	0.132500	0.527600
H211	H21	0.215000	0.242900	0.632600
H221	H22	0.011600	0.125500	0.630200
H231	H23	0.187800	0.957100	0.376700
H241	H24	0.455900	0.991900	0.329100
H251	H25	0.345400	0.985100	0.300900
H261	H26	0.370500	0.036000	0.329600
H271	H27	0.469900	0.942500	0.386100
H281	H28	0.392100	0.941400	0.433100
H291	H29	0.367900	0.907200	0.385600
H301	H30	0.702800	0.384900	0.508000
H311	H31	0.583400	0.239300	0.554000
H321	H32	0.489100	0.274000	0.574500
H331	H33	0.669100	0.279500	0.618300
H341	H34	0.904200	0.384400	0.626800
H351	H35	0.434500	0.323400	0.475600
H361	H36	0.342100	0.303100	0.511300
H371	H37	0.250700	0.367500	0.472400
H381	H38	0.215000	0.257100	0.367400
H391	H39	0.011600	0.374500	0.369800
H401	H40	0.187800	0.542900	0.623300
H411	H41	0.455900	0.508100	0.670900
H421	H42	0.345400	0.514900	0.699100
H431	H43	0.370500	0.464000	0.670400
H441	H44	0.469900	0.557500	0.613900
H451	H45	0.392100	0.558600	0.566900
H461	H46	0.367900	0.592800	0.614400
H471	H47	0.702800	0.115100	0.492000
H481	H48	0.583400	0.260700	0.446000
H491	H49	0.489100	0.226000	0.425500
H501	H50	0.669100	0.220500	0.381700
H511	H51	0.904200	0.115600	0.373200
H521	H52	0.565500	0.676600	0.975600
H531	H53	0.657900	0.696900	0.011300
H541	H54	0.749300	0.632500	0.972400
H551	H55	0.785000	0.742900	0.867400
H561	H56	0.988400	0.625500	0.869800
H571	H57	0.812200	0.457100	0.123300
H581	H58	0.544100	0.491900	0.170900
H591	H59	0.654600	0.485100	0.199100
H601	H60	0.629500	0.536000	0.170400
H611	H61	0.530100	0.442500	0.113900
H621	H62	0.607900	0.441400	0.066900
H631	H63	0.632100	0.407200	0.114400
H641	H64	0.297200	0.884900	0.992000
H651	H65	0.416600	0.739300	0.946000
H661	H66	0.510900	0.774000	0.925500
H671	H67	0.330900	0.779500	0.881700
H681	H68	0.095800	0.884400	0.873200
H691	H69	0.434500	0.176600	0.975600
H701	H70	0.342100	0.196900	0.011300
H711	H71	0.250700	0.132500	0.972400
H721	H72	0.215000	0.242900	0.867400
H731	H73	0.011600	0.125500	0.869800
H741	H74	0.187800	0.957100	0.123300
H751	H75	0.455900	0.991900	0.170900
H761	H76	0.345400	0.985100	0.199100
H771	H77	0.370500	0.036000	0.170400
H781	H78	0.469900	0.942500	0.113900
H791	H79	0.392100	0.941400	0.066900
H801	H80	0.367900	0.907200	0.114400
H811	H81	0.702800	0.384900	0.992000
H821	H82	0.583400	0.239300	0.946000
H831	H83	0.489100	0.274000	0.925500
H841	H84	0.669100	0.279500	0.881700
H851	H85	0.904200	0.384400	0.873200
H861	H86	0.565500	0.823400	0.475600
H871	H87	0.657900	0.803100	0.511300
H881	H88	0.749300	0.867500	0.472400
H891	H89	0.785000	0.757100	0.367400
H901	H90	0.988400	0.874500	0.369800
H911	H91	0.812200	0.042900	0.623300
H921	H92	0.544100	0.008100	0.670900
H931	H93	0.654600	0.014900	0.699100
H941	H94	0.629500	0.964000	0.670400
H951	H95	0.530100	0.057500	0.613900
H961	H96	0.607900	0.058600	0.566900
H971	H97	0.632100	0.092800	0.614400
H981	H98	0.297200	0.615100	0.492000
H991	H99	0.416600	0.760700	0.446000
H1001	H100	0.510900	0.726000	0.425500
H1011	H101	0.330900	0.720500	0.381700
H1021	H102	0.095800	0.615600	0.373200
H1031	H103	0.565500	0.676600	0.524400
H1041	H104	0.657900	0.696900	0.488700
H1051	H105	0.749300	0.632500	0.527600
H1061	H106	0.785000	0.742900	0.632600
H1071	H107	0.988400	0.625500	0.630200
H1081	H108	0.812200	0.457100	0.376700
H1091	H109	0.544100	0.491900	0.329100
H1101	H110	0.654600	0.485100	0.300900
H1111	H111	0.629500	0.536000	0.329600
H1121	H112	0.530100	0.442500	0.386100
H1131	H113	0.607900	0.441400	0.433100
H1141	H114	0.632100	0.407200	0.385600
H1151	H115	0.297200	0.884900	0.508000
H1161	H116	0.416600	0.739300	0.554000
H1171	H117	0.510900	0.774000	0.574500
H1181	H118	0.330900	0.779500	0.618300
H1191	H119	0.095800	0.884400	0.626800
H1201	H120	0.434500	0.323400	0.024400
H1211	H121	0.342100	0.303100	0.988700
H1221	H122	0.250700	0.367500	0.027600
H1231	H123	0.215000	0.257100	0.132600
H1241	H124	0.011600	0.374500	0.130200
H1251	H125	0.187800	0.542900	0.876700
H1261	H126	0.455900	0.508100	0.829100
H1271	H127	0.345400	0.514900	0.800900
H1281	H128	0.370500	0.464000	0.829600
H1291	H129	0.469900	0.557500	0.886100
H1301	H130	0.392100	0.558600	0.933100
H1311	H131	0.367900	0.592800	0.885600
H1321	H132	0.702800	0.115100	0.008000
H1331	H133	0.583400	0.260700	0.054000
H1341	H134	0.489100	0.226000	0.074500
H1351	H135	0.669100	0.220500	0.118300
H1361	H136	0.904200	0.115600	0.126800
C11	C1	0.875400	0.877220	0.075190
C21	C2	0.896400	0.811990	0.137750
C31	C3	0.609300	0.793980	0.016110
C41	C4	0.786200	0.853320	0.054980
C51	C5	0.918000	0.925320	0.049670
C61	C6	0.752900	0.807910	0.076220
C71	C7	0.808300	0.787460	0.118100
C81	C8	0.956200	0.786600	0.180190
C91	C9	0.929500	0.857270	0.116570
C101	C10	0.768700	0.015200	0.885000
C111	C11	0.620000	0.000000	0.830000
C121	C12	0.604000	0.060600	0.896700
C131	C13	0.274400	0.629440	0.038550
C141	C14	0.466700	0.733720	0.045040
C151	C15	0.327500	0.671400	0.058530
C161	C16	0.294700	0.692710	0.104660
C171	C17	0.205700	0.671250	0.129980
C181	C18	0.186700	0.609110	0.064610
C191	C19	0.124300	0.566560	0.040230
C201	C20	0.154100	0.629840	0.109640
C211	C21	0.162700	0.695940	0.177340
C221	C22	0.124600	0.122780	0.575190
C231	C23	0.103600	0.188010	0.637750
C241	C24	0.390700	0.206020	0.516110
C251	C25	0.213800	0.146680	0.554980
C261	C26	0.082000	0.074680	0.549670
C271	C27	0.247100	0.192090	0.576220
C281	C28	0.191700	0.212540	0.618100
C291	C29	0.043800	0.213400	0.680190
C301	C30	0.070500	0.142730	0.616570
C311	C31	0.231300	0.984800	0.385000
C321	C32	0.380000	0.000000	0.330000
C331	C33	0.396000	0.939400	0.396700
C341	C34	0.725600	0.370560	0.538550
C351	C35	0.533300	0.266280	0.545040
C361	C36	0.672500	0.328600	0.558530
C371	C37	0.705300	0.307290	0.604660
C381	C38	0.794300	0.328750	0.629980
C391	C39	0.813300	0.390890	0.564610
C401	C40	0.875700	0.433440	0.540230
C411	C41	0.845900	0.370160	0.609640
C421	C42	0.837300	0.304060	0.677340
C431	C43	0.124600	0.377220	0.424810
C441	C44	0.103600	0.311990	0.362250
C451	C45	0.390700	0.293980	0.483890
C461	C46	0.213800	0.353320	0.445020
C471	C47	0.082000	0.425320	0.450330
C481	C48	0.247100	0.307910	0.423780
C491	C49	0.191700	0.287460	0.381900
C501	C50	0.043800	0.286600	0.319810
C511	C51	0.070500	0.357270	0.383430
C521	C52	0.231300	0.515200	0.615000
C531	C53	0.380000	0.500000	0.670000
C541	C54	0.396000	0.560600	0.603300
C551	C55	0.725600	0.129440	0.461450
C561	C56	0.533300	0.233720	0.454960
C571	C57	0.672500	0.171400	0.441470
C581	C58	0.705300	0.192710	0.395340
C591	C59	0.794300	0.171250	0.370020
C601	C60	0.813300	0.109110	0.435390
C611	C61	0.875700	0.066560	0.459770
C621	C62	0.845900	0.129840	0.390360
C631	C63	0.837300	0.195940	0.322660
C641	C64	0.875400	0.622780	0.924810
C651	C65	0.896400	0.688010	0.862250
C661	C66	0.609300	0.706020	0.983890
C671	C67	0.786200	0.646680	0.945020
C681	C68	0.918000	0.574680	0.950330
C691	C69	0.752900	0.692090	0.923780
C701	C70	0.808300	0.712540	0.881900
C711	C71	0.956200	0.713400	0.819810
C721	C72	0.929500	0.642730	0.883430
C731	C73	0.768700	0.484800	0.115000
C741	C74	0.620000	0.500000	0.170000
C751	C75	0.604000	0.439400	0.103300
C761	C76	0.274400	0.870560	0.961450
C771	C77	0.466700	0.766280	0.954960
C781	C78	0.327500	0.828600	0.941470
C791	C79	0.294700	0.807290	0.895340
C801	C80	0.205700	0.828750	0.870020
C811	C81	0.186700	0.890890	0.935390
C821	C82	0.124300	0.933440	0.959770
C831	C83	0.154100	0.870160	0.890360
C841	C84	0.162700	0.804060	0.822660
C851	C85	0.124600	0.122780	0.924810
C861	C86	0.103600	0.188010	0.862250
C871	C87	0.390700	0.206020	0.983890
C881	C88	0.213800	0.146680	0.945020
C891	C89	0.082000	0.074680	0.950330
C901	C90	0.247100	0.192090	0.923780
C911	C91	0.191700	0.212540	0.881900
C921	C92	0.043800	0.213400	0.819810
C931	C93	0.070500	0.142730	0.883430
C941	C94	0.231300	0.984800	0.115000
C951	C95	0.380000	0.000000	0.170000
C961	C96	0.396000	0.939400	0.103300
C971	C97	0.725600	0.370560	0.961450
C981	C98	0.533300	0.266280	0.954960
C991	C99	0.672500	0.328600	0.941470
C1001	C100	0.705300	0.307290	0.895340
C1011	C101	0.794300	0.328750	0.870020
C1021	C102	0.813300	0.390890	0.935390
C1031	C103	0.875700	0.433440	0.959770
C1041	C104	0.845900	0.370160	0.890360
C1051	C105	0.837300	0.304060	0.822660
C1061	C106	0.875400	0.877220	0.424810
C1071	C107	0.896400	0.811990	0.362250
C1081	C108	0.609300	0.793980	0.483890
C1091	C109	0.786200	0.853320	0.445020
C1101	C110	0.918000	0.925320	0.450330
C1111	C111	0.752900	0.807910	0.423780
C1121	C112	0.808300	0.787460	0.381900
C1131	C113	0.956200	0.786600	0.319810
C1141	C114	0.929500	0.857270	0.383430
C1151	C115	0.768700	0.015200	0.615000
C1161	C116	0.620000	0.000000	0.670000
C1171	C117	0.604000	0.060600	0.603300
C1181	C118	0.274400	0.629440	0.461450
C1191	C119	0.466700	0.733720	0.454960
C1201	C120	0.327500	0.671400	0.441470
C1211	C121	0.294700	0.692710	0.395340
C1221	C122	0.205700	0.671250	0.370020
C1231	C123	0.186700	0.609110	0.435390
C1241	C124	0.124300	0.566560	0.459770
C1251	C125	0.154100	0.629840	0.390360
C1261	C126	0.162700	0.695940	0.322660
C1271	C127	0.875400	0.622780	0.575190
C1281	C128	0.896400	0.688010	0.637750
C1291	C129	0.609300	0.706020	0.516110
C1301	C130	0.786200	0.646680	0.554980
C1311	C131	0.918000	0.574680	0.549670
C1321	C132	0.752900	0.692090	0.576220
C1331	C133	0.808300	0.712540	0.618100
C1341	C134	0.956200	0.713400	0.680190
C1351	C135	0.929500	0.642730	0.616570
C1361	C136	0.768700	0.484800	0.385000
C1371	C137	0.620000	0.500000	0.330000
C1381	C138	0.604000	0.439400	0.396700
C1391	C139	0.274400	0.870560	0.538550
C1401	C140	0.466700	0.766280	0.545040
C1411	C141	0.327500	0.828600	0.558530
C1421	C142	0.294700	0.807290	0.604660
C1431	C143	0.205700	0.828750	0.629980
C1441	C144	0.186700	0.890890	0.564610
C1451	C145	0.124300	0.933440	0.540230
C1461	C146	0.154100	0.870160	0.609640
C1471	C147	0.162700	0.804060	0.677340
C1481	C148	0.124600	0.377220	0.075190
C1491	C149	0.103600	0.311990	0.137750
C1501	C150	0.390700	0.293980	0.016110
C1511	C151	0.213800	0.353320	0.054980
C1521	C152	0.082000	0.425320	0.049670
C1531	C153	0.247100	0.307910	0.076220
C1541	C154	0.191700	0.287460	0.118100
C1551	C155	0.043800	0.286600	0.180190
C1561	C156	0.070500	0.357270	0.116570
C1571	C157	0.231300	0.515200	0.885000
C1581	C158	0.380000	0.500000	0.830000
C1591	C159	0.396000	0.560600	0.896700
C1601	C160	0.725600	0.129440	0.038550
C1611	C161	0.533300	0.233720	0.045040
C1621	C162	0.672500	0.171400	0.058530
C1631	C163	0.705300	0.192710	0.104660
C1641	C164	0.794300	0.171250	0.129980
C1651	C165	0.813300	0.109110	0.064610
C1661	C166	0.875700	0.066560	0.040230
C1671	C167	0.845900	0.129840	0.109640
C1681	C168	0.837300	0.195940	0.177340
C1691	C169	0.537800	0.750000	0.000000
C1701	C170	0.462200	0.250000	0.500000
C1711	C171	0.462200	0.250000	0.000000
C1721	C172	0.537800	0.750000	0.500000
N11	N1	0.666000	0.020700	0.875000
N21	N2	0.334000	0.979300	0.375000
N31	N3	0.334000	0.520700	0.625000
N41	N4	0.666000	0.479300	0.125000
N51	N5	0.334000	0.979300	0.125000
N61	N6	0.666000	0.020700	0.625000
N71	N7	0.666000	0.479300	0.375000
N81	N8	0.334000	0.520700	0.875000
O11	O1	0.669100	0.778390	0.059300
O21	O2	0.041800	0.808130	0.195780
O31	O3	0.871600	0.938790	0.009700
O41	O4	0.996900	0.947200	0.070600
O51	O5	0.917200	0.746390	0.197860
O61	O6	0.814600	0.979370	0.903660
O71	O7	0.409700	0.689580	0.028750
O81	O8	0.162200	0.546300	0.000790
O91	O9	0.210500	0.735540	0.193980
O101	O10	0.038900	0.553580	0.061720
O111	O11	0.082900	0.674990	0.196970
O121	O12	0.330900	0.221610	0.559300
O131	O13	0.958200	0.191870	0.695780
O141	O14	0.128400	0.061210	0.509700
O151	O15	0.003100	0.052800	0.570600
O161	O16	0.082800	0.253610	0.697860
O171	O17	0.185400	0.020630	0.403660
O181	O18	0.590300	0.310420	0.528750
O191	O19	0.837800	0.453700	0.500790
O201	O20	0.789500	0.264460	0.693980
O211	O21	0.961100	0.446420	0.561720
O221	O22	0.917100	0.325010	0.696970
O231	O23	0.330900	0.278390	0.440700
O241	O24	0.958200	0.308130	0.304220
O251	O25	0.128400	0.438790	0.490300
O261	O26	0.003100	0.447200	0.429400
O271	O27	0.082800	0.246390	0.302140
O281	O28	0.185400	0.479370	0.596340
O291	O29	0.590300	0.189580	0.471250
O301	O30	0.837800	0.046300	0.499210
O311	O31	0.789500	0.235540	0.306020
O321	O32	0.961100	0.053580	0.438280
O331	O33	0.917100	0.174990	0.303030
O341	O34	0.669100	0.721610	0.940700
O351	O35	0.041800	0.691870	0.804220
O361	O36	0.871600	0.561210	0.990300
O371	O37	0.996900	0.552800	0.929400
O381	O38	0.917200	0.753610	0.802140
O391	O39	0.814600	0.520630	0.096340
O401	O40	0.409700	0.810420	0.971250
O411	O41	0.162200	0.953700	0.999210
O421	O42	0.210500	0.764460	0.806020
O431	O43	0.038900	0.946420	0.938280
O441	O44	0.082900	0.825010	0.803030
O451	O45	0.330900	0.221610	0.940700
O461	O46	0.958200	0.191870	0.804220
O471	O47	0.128400	0.061210	0.990300
O481	O48	0.003100	0.052800	0.929400
O491	O49	0.082800	0.253610	0.802140
O501	O50	0.185400	0.020630	0.096340
O511	O51	0.590300	0.310420	0.971250
O521	O52	0.837800	0.453700	0.999210
O531	O53	0.789500	0.264460	0.806020
O541	O54	0.961100	0.446420	0.938280
O551	O55	0.917100	0.325010	0.803030
O561	O56	0.669100	0.778390	0.440700
O571	O57	0.041800	0.808130	0.304220
O581	O58	0.871600	0.938790	0.490300
O591	O59	0.996900	0.947200	0.429400
O601	O60	0.917200	0.746390	0.302140
O611	O61	0.814600	0.979370	0.596340
O621	O62	0.409700	0.689580	0.471250
O631	O63	0.162200	0.546300	0.499210
O641	O64	0.210500	0.735540	0.306020
O651	O65	0.038900	0.553580	0.438280
O661	O66	0.082900	0.674990	0.303030
O671	O67	0.669100	0.721610	0.559300
O681	O68	0.041800	0.691870	0.695780
O691	O69	0.871600	0.561210	0.509700
O701	O70	0.996900	0.552800	0.570600
O711	O71	0.917200	0.753610	0.697860
O721	O72	0.814600	0.520630	0.403660
O731	O73	0.409700	0.810420	0.528750
O741	O74	0.162200	0.953700	0.500790
O751	O75	0.210500	0.764460	0.693980
O761	O76	0.038900	0.946420	0.561720
O771	O77	0.082900	0.825010	0.696970
O781	O78	0.330900	0.278390	0.059300
O791	O79	0.958200	0.308130	0.195780
O801	O80	0.128400	0.438790	0.009700
O811	O81	0.003100	0.447200	0.070600
O821	O82	0.082800	0.246390	0.197860
O831	O83	0.185400	0.479370	0.903660
O841	O84	0.590300	0.189580	0.028750
O851	O85	0.837800	0.046300	0.000790
O861	O86	0.789500	0.235540	0.193980
O871	O87	0.961100	0.053580	0.061720
O881	O88	0.917100	0.174990	0.196970
O891	O89	0.251400	0.837100	0.250000
O901	O90	0.868100	0.644900	0.250000
O911	O91	0.748600	0.162900	0.750000
O921	O92	0.131900	0.355100	0.750000
O931	O93	0.748600	0.337100	0.250000
O941	O94	0.131900	0.144900	0.250000
O951	O95	0.251400	0.662900	0.750000
O961	O96	0.868100	0.855100	0.750000
