data_WEHJUQ_freeONLY_PM
_symmetry_space_group_name_H-M	'P1'
_cell_length_a	27.033000
_cell_length_b	27.033000
_cell_length_c	44.096000
_cell_angle_alpha	90.000000
_cell_angle_beta	90.000000
_cell_angle_gamma	90.000000
_symmetry_Int_Tables_number 1

loop_
_symmetry_equiv_pos_as_xyz
'x,y,z'

loop_
_atom_site_label
_atom_site_type_symbol
_atom_site_fract_x
_atom_site_fract_y
_atom_site_fract_z
Zn11	Zn1	0.224090	0.029040	0.865100
Zn21	Zn2	0.766150	0.090580	0.668190
Zn31	Zn3	0.733850	0.590580	0.168190
Zn41	Zn4	0.445120	0.744250	0.074810
Zn51	Zn5	0.987880	0.247610	0.377840
Zn61	Zn6	0.755750	0.054880	0.425190
Zn71	Zn7	0.090580	0.233850	0.331810
Zn81	Zn8	0.972010	0.734370	0.933190
Zn91	Zn9	0.244250	0.945120	0.425190
Zn101	Zn10	0.472010	0.765630	0.433190
Zn111	Zn11	0.233850	0.909420	0.668190
Zn121	Zn12	0.012120	0.752390	0.377840
Zn131	Zn13	0.535830	0.778220	0.366820
Zn141	Zn14	0.280440	0.421780	0.323240
Zn151	Zn15	0.027990	0.265630	0.933190
Zn161	Zn16	0.421780	0.719560	0.676760
Zn171	Zn17	0.752390	0.987880	0.622160
Zn181	Zn18	0.945120	0.755750	0.574810
Zn191	Zn19	0.219560	0.921780	0.823240
Zn201	Zn20	0.964170	0.278220	0.866820
Zn211	Zn21	0.527990	0.234370	0.433190
Zn221	Zn22	0.035830	0.721780	0.866820
Zn231	Zn23	0.909420	0.766150	0.331810
Zn241	Zn24	0.247610	0.012120	0.622160
Zn251	Zn25	0.780440	0.078220	0.823240
Zn261	Zn26	0.078220	0.219560	0.176760
Zn271	Zn27	0.529040	0.724090	0.634900
Zn281	Zn28	0.744250	0.554880	0.925190
Zn291	Zn29	0.221780	0.535830	0.633180
Zn301	Zn30	0.921780	0.780440	0.176760
Zn311	Zn31	0.724090	0.470960	0.365100
Zn321	Zn32	0.409420	0.733850	0.831810
Zn331	Zn33	0.765630	0.527990	0.566810
Zn341	Zn34	0.262740	0.008980	0.361170
Zn351	Zn35	0.008980	0.737260	0.638830
Zn361	Zn36	0.590580	0.266150	0.831810
Zn371	Zn37	0.991020	0.262740	0.638830
Zn381	Zn38	0.578220	0.280440	0.676760
Zn391	Zn39	0.266150	0.409420	0.168190
Zn401	Zn40	0.234370	0.472010	0.566810
Zn411	Zn41	0.778220	0.464170	0.633180
Zn421	Zn42	0.554880	0.255750	0.074810
Zn431	Zn43	0.464170	0.221780	0.366820
Zn441	Zn44	0.470960	0.275910	0.634900
Zn451	Zn45	0.512120	0.747610	0.877840
Zn461	Zn46	0.252390	0.512120	0.122160
Zn471	Zn47	0.737260	0.991020	0.361170
Zn481	Zn48	0.029040	0.775910	0.134900
Zn491	Zn49	0.278220	0.035830	0.133180
Zn501	Zn50	0.719560	0.578220	0.323240
Zn511	Zn51	0.491020	0.237260	0.138830
Zn521	Zn52	0.970960	0.224090	0.134900
Zn531	Zn53	0.734370	0.027990	0.066810
Zn541	Zn54	0.721780	0.964170	0.133180
Zn551	Zn55	0.762740	0.491020	0.861170
Zn561	Zn56	0.747610	0.487880	0.122160
Zn571	Zn57	0.508980	0.762740	0.138830
Zn581	Zn58	0.275910	0.529040	0.365100
Zn591	Zn59	0.487880	0.252390	0.877840
Zn601	Zn60	0.775910	0.970960	0.865100
Zn611	Zn61	0.255750	0.445120	0.925190
Zn621	Zn62	0.237260	0.508980	0.861170
Zn631	Zn63	0.054880	0.244250	0.574810
Zn641	Zn64	0.265630	0.972010	0.066810
H11	H1	0.614200	0.512300	0.418400
H21	H2	0.272700	0.827700	0.265400
H31	H3	0.987700	0.885800	0.081600
H41	H4	0.492800	0.054100	0.936800
H51	H5	0.250600	0.292500	0.789500
H61	H6	0.479600	0.424000	0.008900
H71	H7	0.944700	0.015200	0.465800
H81	H8	0.275200	0.620800	0.284300
H91	H9	0.142000	0.107500	0.122700
H101	H10	0.622700	0.896100	0.400200
H111	H11	0.602200	0.640500	0.127500
H121	H12	0.945900	0.492800	0.063200
H131	H13	0.860900	0.506100	0.400800
H141	H14	0.657000	0.144400	0.106400
H151	H15	0.144400	0.343000	0.893600
H161	H16	0.227100	0.357700	0.818300
H171	H17	0.256800	0.615200	0.198000
H181	H18	0.727100	0.142300	0.318300
H191	H19	0.495300	0.864700	0.036100
H201	H20	0.172300	0.272700	0.734600
H211	H21	0.576000	0.479600	0.991100
H221	H22	0.006100	0.360900	0.099200
H231	H23	0.995300	0.635300	0.536100
H241	H24	0.378700	0.479800	0.074300
H251	H25	0.397800	0.359500	0.127500
H261	H26	0.799800	0.252900	0.222600
H271	H27	0.528100	0.930400	0.528200
H281	H28	0.633300	0.150600	0.644400
H291	H29	0.978400	0.121100	0.947400
H301	H30	0.488100	0.385100	0.056100
H311	H31	0.613700	0.032000	0.589000
H321	H32	0.069600	0.528100	0.471800
H331	H33	0.859500	0.897800	0.372500
H341	H34	0.200200	0.747100	0.222600
H351	H35	0.608100	0.230200	0.320100
H361	H36	0.067300	0.468100	0.038300
H371	H37	0.122700	0.603900	0.900200
H381	H38	0.729500	0.508500	0.244200
H391	H39	0.866700	0.650600	0.144400
H401	H40	0.520200	0.378700	0.925700
H411	H41	0.727300	0.172300	0.265400
H421	H42	0.615200	0.743200	0.802000
H431	H43	0.924000	0.979600	0.491100
H441	H44	0.884800	0.243200	0.302000
H451	H45	0.444700	0.484800	0.965800
H461	H46	0.520900	0.577100	0.494700
H471	H47	0.056200	0.492700	0.499000
H481	H48	0.532000	0.113700	0.911000
H491	H49	0.327700	0.772700	0.234600
H501	H50	0.492700	0.943800	0.501000
H511	H51	0.102200	0.859500	0.627500
H521	H52	0.121100	0.021600	0.052600
H531	H53	0.142300	0.272900	0.681700
H541	H54	0.299800	0.247100	0.722600
H551	H55	0.443800	0.992700	0.999000
H561	H56	0.508500	0.270500	0.755800
H571	H57	0.650600	0.133300	0.855600
H581	H58	0.076000	0.020400	0.491100
H591	H59	0.439300	0.482200	0.530400
H601	H60	0.797200	0.197700	0.233600
H611	H61	0.857700	0.727100	0.681700
H621	H62	0.432700	0.968100	0.538300
H631	H63	0.504700	0.135300	0.036100
H641	H64	0.982200	0.939300	0.969600
H651	H65	0.707500	0.250600	0.210500
H661	H66	0.150600	0.366700	0.355600
H671	H67	0.620800	0.724800	0.715700
H681	H68	0.555300	0.515200	0.965800
H691	H69	0.993900	0.639100	0.099200
H701	H70	0.606200	0.974000	0.029700
H711	H71	0.103900	0.622700	0.599800
H721	H72	0.878900	0.978400	0.052600
H731	H73	0.115200	0.756800	0.302000
H741	H74	0.017800	0.060700	0.969600
H751	H75	0.642000	0.392500	0.622700
H761	H76	0.249400	0.792500	0.289500
H771	H77	0.252900	0.200200	0.777400
H781	H78	0.621100	0.478400	0.552600
H791	H79	0.479800	0.621300	0.925700
H801	H80	0.392500	0.358000	0.377300
H811	H81	0.197700	0.202800	0.766400
H821	H82	0.114900	0.011900	0.443900
H831	H83	0.379200	0.275200	0.715700
H841	H84	0.747100	0.799800	0.777400
H851	H85	0.364700	0.995300	0.463900
H861	H86	0.772900	0.642300	0.818300
H871	H87	0.140500	0.102200	0.372500
H881	H88	0.802300	0.797200	0.766400
H891	H89	0.769800	0.608100	0.679900
H901	H90	0.507300	0.056200	0.501000
H911	H91	0.060700	0.982200	0.030400
H921	H92	0.384800	0.256800	0.802000
H931	H93	0.892500	0.142000	0.877300
H941	H94	0.207500	0.249400	0.710500
H951	H95	0.358000	0.607500	0.622700
H961	H96	0.487700	0.614200	0.581600
H971	H97	0.772700	0.672300	0.765400
H981	H98	0.922900	0.979100	0.005300
H991	H99	0.567300	0.031900	0.538300
H1001	H100	0.054100	0.507200	0.063200
H1011	H101	0.672300	0.227300	0.234600
H1021	H102	0.120800	0.775200	0.215700
H1031	H103	0.984800	0.944700	0.534200
H1041	H104	0.864700	0.504700	0.963900
H1051	H105	0.992800	0.445900	0.436800
H1061	H106	0.227300	0.327700	0.765400
H1071	H107	0.430400	0.028100	0.971800
H1081	H108	0.750600	0.207500	0.289500
H1091	H109	0.055300	0.984800	0.465800
H1101	H110	0.607500	0.642000	0.377300
H1111	H111	0.272900	0.857700	0.318300
H1121	H112	0.471900	0.069600	0.528200
H1131	H113	0.229500	0.991500	0.744200
H1141	H114	0.393800	0.026000	0.029700
H1151	H115	0.885800	0.012300	0.918400
H1161	H116	0.108100	0.269800	0.820100
H1171	H117	0.031900	0.432700	0.461700
H1181	H118	0.886300	0.532000	0.089000
H1191	H119	0.028100	0.569600	0.028200
H1201	H120	0.614900	0.488100	0.943900
H1211	H121	0.603900	0.877300	0.099800
H1221	H122	0.386300	0.968000	0.589000
H1231	H123	0.157000	0.355600	0.606400
H1241	H124	0.077100	0.020900	0.005300
H1251	H125	0.756800	0.884800	0.698000
H1261	H126	0.971900	0.430400	0.028200
H1271	H127	0.468100	0.932700	0.961700
H1281	H128	0.858000	0.892500	0.122700
H1291	H129	0.743200	0.384800	0.198000
H1301	H130	0.366700	0.849400	0.644400
H1311	H131	0.752900	0.299800	0.277400
H1321	H132	0.468000	0.886300	0.911000
H1331	H133	0.943800	0.507300	0.499000
H1341	H134	0.979100	0.077100	0.994700
H1351	H135	0.968000	0.613700	0.411000
H1361	H136	0.020400	0.924000	0.508900
H1371	H137	0.635300	0.004700	0.463900
H1381	H138	0.891900	0.730200	0.820100
H1391	H139	0.479100	0.422900	0.494700
H1401	H140	0.770500	0.008500	0.744200
H1411	H141	0.422900	0.520900	0.505300
H1421	H142	0.020900	0.922900	0.994700
H1431	H143	0.482200	0.560700	0.469600
H1441	H144	0.974000	0.393800	0.970300
H1451	H145	0.930400	0.471900	0.471800
H1461	H146	0.939300	0.017800	0.030400
H1471	H147	0.378900	0.521600	0.552600
H1481	H148	0.893800	0.474000	0.529700
H1491	H149	0.491500	0.729500	0.755800
H1501	H150	0.991500	0.770500	0.255800
H1511	H151	0.639100	0.006100	0.900800
H1521	H152	0.988100	0.114900	0.556100
H1531	H153	0.385100	0.511900	0.943900
H1541	H154	0.697700	0.297200	0.266400
H1551	H155	0.007300	0.443800	0.001000
H1561	H156	0.011900	0.885100	0.556100
H1571	H157	0.979600	0.076000	0.508900
H1581	H158	0.569600	0.971900	0.971800
H1591	H159	0.269800	0.891900	0.179900
H1601	H160	0.349400	0.866700	0.855600
H1611	H161	0.297200	0.302300	0.733600
H1621	H162	0.247100	0.700200	0.277400
H1631	H163	0.106200	0.526000	0.529700
H1641	H164	0.343000	0.855600	0.106400
H1651	H165	0.021600	0.878900	0.947400
H1661	H166	0.849400	0.633300	0.355600
H1671	H167	0.391900	0.769800	0.320100
H1681	H168	0.004700	0.364700	0.536100
H1691	H169	0.531900	0.067300	0.961700
H1701	H170	0.396100	0.122700	0.099800
H1711	H171	0.008500	0.229500	0.255800
H1721	H172	0.015200	0.055300	0.534200
H1731	H173	0.724800	0.379200	0.284300
H1741	H174	0.133300	0.349400	0.144400
H1751	H175	0.560700	0.517800	0.530400
H1761	H176	0.292500	0.749400	0.210500
H1771	H177	0.877300	0.396100	0.900200
H1781	H178	0.484800	0.555300	0.034200
H1791	H179	0.640500	0.397800	0.872500
H1801	H180	0.855600	0.657000	0.893600
H1811	H181	0.749400	0.707500	0.789500
H1821	H182	0.135300	0.495300	0.963900
H1831	H183	0.020200	0.121300	0.425700
H1841	H184	0.114200	0.987700	0.918400
H1851	H185	0.230200	0.391900	0.679900
H1861	H186	0.385800	0.487700	0.418400
H1871	H187	0.424000	0.520400	0.991100
H1881	H188	0.843000	0.644400	0.606400
H1891	H189	0.520400	0.576000	0.008900
H1901	H190	0.621300	0.520200	0.074300
H1911	H191	0.878700	0.020200	0.574300
H1921	H192	0.700200	0.752900	0.722600
H1931	H193	0.702800	0.697700	0.733600
H1941	H194	0.792500	0.750600	0.710500
H1951	H195	0.992700	0.556200	0.001000
H1961	H196	0.512300	0.385800	0.581600
H1971	H197	0.521600	0.621100	0.447400
H1981	H198	0.113700	0.468000	0.089000
H1991	H199	0.515200	0.444700	0.034200
H2001	H200	0.474000	0.106200	0.470300
H2011	H201	0.493900	0.860900	0.599200
H2021	H202	0.302300	0.702800	0.266400
H2031	H203	0.012300	0.114200	0.081600
H2041	H204	0.139100	0.493900	0.400800
H2051	H205	0.642300	0.227100	0.181700
H2061	H206	0.270500	0.491500	0.244200
H2071	H207	0.243200	0.115200	0.698000
H2081	H208	0.554100	0.992800	0.563200
H2091	H209	0.526000	0.893800	0.470300
H2101	H210	0.897800	0.140500	0.627500
H2111	H211	0.032000	0.386300	0.411000
H2121	H212	0.107500	0.858000	0.877300
H2131	H213	0.360900	0.993900	0.900800
H2141	H214	0.896100	0.377300	0.599800
H2151	H215	0.377300	0.103900	0.400200
H2161	H216	0.507200	0.945900	0.936800
H2171	H217	0.478400	0.378900	0.447400
H2181	H218	0.007200	0.554100	0.436800
H2191	H219	0.445900	0.007200	0.563200
H2201	H220	0.827700	0.727300	0.734600
H2211	H221	0.026000	0.606200	0.970300
H2221	H222	0.355600	0.843000	0.393600
H2231	H223	0.730200	0.108100	0.179900
H2241	H224	0.644400	0.157000	0.393600
H2251	H225	0.979800	0.878700	0.425700
H2261	H226	0.556200	0.007300	0.999000
H2271	H227	0.121300	0.979800	0.574300
H2281	H228	0.885100	0.988100	0.443900
H2291	H229	0.511900	0.614900	0.056100
H2301	H230	0.879200	0.224800	0.215700
H2311	H231	0.968100	0.567300	0.461700
H2321	H232	0.932700	0.531900	0.038300
H2331	H233	0.517800	0.439300	0.469600
H2341	H234	0.357700	0.772900	0.181700
H2351	H235	0.506100	0.139100	0.599200
H2361	H236	0.224800	0.120800	0.784300
H2371	H237	0.775200	0.879200	0.784300
H2381	H238	0.202800	0.802300	0.233600
H2391	H239	0.577100	0.479100	0.505300
H2401	H240	0.359500	0.602200	0.872500
C11	C1	0.426000	0.668600	0.877200
C21	C2	0.709500	0.069700	0.123400
C31	C3	0.560600	0.640600	0.412300
C41	C4	0.064100	0.935800	0.559200
C51	C5	0.688500	0.111800	0.144000
C61	C6	0.635400	0.447100	0.909100
C71	C7	0.471100	0.275500	0.695400
C81	C8	0.546500	0.610100	0.434500
C91	C9	0.649800	0.070200	0.876300
C101	C10	0.102500	0.955400	0.917300
C111	C11	0.121500	0.097000	0.107000
C121	C12	0.594500	0.622300	0.110300
C131	C13	0.956000	0.337800	0.919900
C141	C14	0.050600	0.301900	0.135700
C151	C15	0.239600	0.260400	0.750000
C161	C16	0.090100	0.366300	0.380200
C171	C17	0.582500	0.378500	0.898000
C181	C18	0.938200	0.581300	0.091000
C191	C19	0.605200	0.550000	0.077700
C201	C20	0.903000	0.121500	0.893000
C211	C21	0.427200	0.113700	0.431000
C221	C22	0.618600	0.576300	0.394800
C231	C23	0.090900	0.610800	0.581700
C241	C24	0.040900	0.480300	0.051100
C251	C25	0.449400	0.801900	0.635700
C261	C26	0.917500	0.878500	0.398000
C271	C27	0.147000	0.339500	0.872700
C281	C28	0.462400	0.872300	0.603900
C291	C29	0.945500	0.229600	0.229800
C301	C30	0.231800	0.207400	0.760200
C311	C31	0.735300	0.451300	0.215000
C321	C32	0.705400	0.125900	0.170200
C331	C33	0.662200	0.956000	0.080100
C341	C34	0.103200	0.438300	0.097500
C351	C35	0.878500	0.082500	0.602000
C361	C36	0.660500	0.147000	0.127300
C371	C37	0.397300	0.269700	0.733300
C381	C38	0.548700	0.735300	0.785000
C391	C39	0.110800	0.590900	0.918300
C401	C40	0.377700	0.594500	0.889700
C411	C41	0.264700	0.518500	0.188200
C421	C42	0.953500	0.110100	0.934500
C431	C43	0.561800	0.081300	0.591000
C441	C44	0.316700	0.525300	0.900500
C451	C45	0.919700	0.449500	0.971000
C461	C46	0.381400	0.423700	0.394800
C471	C47	0.553600	0.343100	0.625400
C481	C48	0.544000	0.837800	0.419900
C491	C49	0.510700	0.550300	0.481400
C501	C50	0.429800	0.850200	0.623700
C511	C51	0.451900	0.135100	0.069900
C521	C52	0.160500	0.353000	0.627300
C531	C53	0.633700	0.090100	0.619800
C541	C54	0.111800	0.311500	0.856000
C551	C55	0.705400	0.225500	0.226200
C561	C56	0.199000	0.346400	0.828200
C571	C57	0.622300	0.405500	0.889700
C581	C58	0.975200	0.323700	0.582200
C591	C59	0.156900	0.946400	0.874600
C601	C60	0.837800	0.456000	0.580100
C611	C61	0.896800	0.561700	0.097500
C621	C62	0.054500	0.770400	0.229800
C631	C63	0.926000	0.831400	0.377200
C641	C64	0.525800	0.731200	0.756900
C651	C65	0.048700	0.764700	0.285000
C661	C66	0.653600	0.199000	0.171800
C671	C67	0.606000	0.460400	0.932600
C681	C68	0.909900	0.633700	0.380200
C691	C69	0.564200	0.435900	0.940800
C701	C70	0.346400	0.801000	0.171800
C711	C71	0.935800	0.935900	0.440800
C721	C72	0.102700	0.769700	0.233300
C731	C73	0.831400	0.074000	0.622800
C741	C74	0.811500	0.611800	0.644000
C751	C75	0.394800	0.450000	0.077700
C761	C76	0.386300	0.072800	0.069000
C771	C77	0.971100	0.224500	0.195400
C781	C78	0.069700	0.290500	0.876600
C791	C79	0.455400	0.602500	0.582700
C801	C80	0.735300	0.481500	0.188200
C811	C81	0.188500	0.388200	0.644000
C821	C82	0.434400	0.436100	0.440000
C831	C83	0.950000	0.894800	0.422300
C841	C84	0.460400	0.394000	0.067400
C851	C85	0.378500	0.417500	0.102000
C861	C86	0.110100	0.046500	0.065500
C871	C87	0.405500	0.377700	0.110300
C881	C88	0.602500	0.544600	0.417300
C891	C89	0.019700	0.459100	0.448900
C901	C90	0.388200	0.811500	0.356000
C911	C91	0.400300	0.260900	0.783300
C921	C92	0.927200	0.386300	0.931000
C931	C93	0.331400	0.426000	0.122800
C941	C94	0.613700	0.927200	0.069000
C951	C95	0.225500	0.294600	0.773800
C961	C96	0.768200	0.792600	0.760200
C971	C97	0.949700	0.989300	0.018600
C981	C98	0.063900	0.065600	0.060000
C991	C99	0.081300	0.438200	0.409000
C1001	C100	0.268200	0.707400	0.260200
C1011	C101	0.569700	0.209500	0.376600
C1021	C102	0.481500	0.264700	0.811800
C1031	C103	0.074000	0.168600	0.377200
C1041	C104	0.730300	0.397300	0.266700
C1051	C105	0.449700	0.510700	0.518600
C1061	C106	0.140600	0.060600	0.087700
C1071	C107	0.668600	0.574000	0.122800
C1081	C108	0.403000	0.378500	0.393000
C1091	C109	0.980300	0.540900	0.448900
C1101	C110	0.260900	0.599700	0.216700
C1111	C111	0.374100	0.794600	0.329800
C1121	C112	0.072800	0.613700	0.931000
C1131	C113	0.627700	0.037600	0.896100
C1141	C114	0.359400	0.560600	0.587700
C1151	C115	0.614300	0.132400	0.630800
C1161	C116	0.397500	0.455400	0.417300
C1171	C117	0.037600	0.372300	0.103900
C1181	C118	0.731800	0.292600	0.260200
C1191	C119	0.000000	0.500000	0.468700
C1201	C120	0.394000	0.539600	0.932600
C1211	C121	0.361500	0.814600	0.143300
C1221	C122	0.685600	0.168200	0.183500
C1231	C123	0.590900	0.889200	0.081700
C1241	C124	0.229600	0.054500	0.770200
C1251	C125	0.323700	0.024800	0.417800
C1261	C126	0.099700	0.760900	0.283300
C1271	C127	0.621500	0.403000	0.607000
C1281	C128	0.423700	0.618600	0.605200
C1291	C129	0.274500	0.794600	0.273800
C1301	C130	0.638500	0.185400	0.143300
C1311	C131	0.193100	0.039600	0.091200
C1321	C132	0.886300	0.427200	0.569000
C1331	C133	0.512700	0.547300	0.021200
C1341	C134	0.294600	0.774500	0.226200
C1351	C135	0.209500	0.430300	0.623400
C1361	C136	0.823700	0.475200	0.917800
C1371	C137	0.438300	0.896800	0.902500
C1381	C138	0.597000	0.621500	0.393000
C1391	C139	0.907000	0.446900	0.539800
C1401	C140	0.952700	0.987300	0.478800
C1411	C141	0.012700	0.952700	0.521200
C1421	C142	0.275500	0.528900	0.304600
C1431	C143	0.407000	0.053100	0.039800
C1441	C144	0.409100	0.110800	0.081700
C1451	C145	0.610800	0.909100	0.418300
C1461	C146	0.739600	0.239600	0.250000
C1471	C147	0.106000	0.039600	0.432600
C1481	C148	0.050000	0.105200	0.422300
C1491	C149	0.430300	0.790500	0.376600
C1501	C150	0.599700	0.739100	0.783300
C1511	C151	0.024200	0.620900	0.543500
C1521	C152	0.975800	0.379100	0.543500
C1531	C153	0.450000	0.605200	0.922300
C1541	C154	0.127700	0.462400	0.396100
C1551	C155	0.460400	0.306900	0.408800
C1561	C156	0.861500	0.685400	0.643300
C1571	C157	0.018100	0.543500	0.014400
C1581	C158	0.576300	0.381400	0.605200
C1591	C159	0.725500	0.205400	0.273800
C1601	C160	0.951300	0.235300	0.285000
C1611	C161	0.135100	0.548100	0.930100
C1621	C162	0.724500	0.471100	0.304600
C1631	C163	0.331800	0.814400	0.316500
C1641	C164	0.052900	0.864600	0.590900
C1651	C165	0.285900	0.913100	0.370600
C1661	C166	0.867600	0.614300	0.369200
C1671	C167	0.459100	0.980300	0.551100
C1681	C168	0.048100	0.635100	0.569900
C1691	C169	0.774500	0.705400	0.773800
C1701	C170	0.133700	0.409900	0.119800
C1711	C171	0.900300	0.239100	0.283300
C1721	C172	0.794600	0.725500	0.726200
C1731	C173	0.413100	0.785900	0.129400
C1741	C174	0.864900	0.451900	0.930100
C1751	C175	0.044000	0.662200	0.919900
C1761	C176	0.290500	0.930300	0.123400
C1771	C177	0.934600	0.679000	0.373700
C1781	C178	0.814600	0.638500	0.856700
C1791	C179	0.938300	0.603200	0.402500
C1801	C180	0.070200	0.350200	0.123700
C1811	C181	0.525300	0.683300	0.099500
C1821	C182	0.082500	0.121500	0.398000
C1831	C183	0.770400	0.945500	0.770200
C1841	C184	0.366300	0.909900	0.619800
C1851	C185	0.053100	0.593000	0.960200
C1861	C186	0.000000	0.000000	0.500000
C1871	C187	0.846400	0.699000	0.671800
C1881	C188	0.897300	0.230300	0.233300
C1891	C189	0.435800	0.564100	0.940800
C1901	C190	0.949500	0.419700	0.529000
C1911	C191	0.947100	0.135400	0.590900
C1921	C192	0.185400	0.361500	0.856700
C1931	C193	0.456000	0.162200	0.419900
C1941	C194	0.205400	0.274500	0.726200
C1951	C195	0.543500	0.981900	0.985600
C1961	C196	0.775500	0.971100	0.804600
C1971	C197	0.449500	0.080300	0.029000
C1981	C198	0.794600	0.625900	0.670200
C1991	C199	0.590100	0.133700	0.880200
C2001	C200	0.909100	0.389200	0.581700
C2011	C201	0.086900	0.285900	0.629400
C2021	C202	0.548100	0.864900	0.069900
C2031	C203	0.959100	0.519700	0.051100
C2041	C204	0.372300	0.962400	0.896100
C2051	C205	0.550600	0.198100	0.635700
C2061	C206	0.306900	0.539600	0.591200
C2071	C207	0.874100	0.705400	0.829800
C2081	C208	0.452700	0.512700	0.978800
C2091	C209	0.850200	0.570200	0.376300
C2101	C210	0.760400	0.739600	0.750000
C2111	C211	0.570200	0.149800	0.623700
C2121	C212	0.114300	0.367600	0.130800
C2131	C213	0.550000	0.394800	0.922300
C2141	C214	0.378500	0.597000	0.607000
C2151	C215	0.918700	0.561800	0.409000
C2161	C216	0.539600	0.606000	0.067400
C2171	C217	0.500000	0.000000	0.531300
C2181	C218	0.179000	0.434600	0.126300
C2191	C219	0.806900	0.960400	0.091200
C2201	C220	0.565400	0.179000	0.873700
C2211	C221	0.453500	0.389900	0.434500
C2221	C222	0.235300	0.018500	0.688200
C2231	C223	0.132400	0.385700	0.369200
C2241	C224	0.314400	0.831800	0.183500
C2251	C225	0.574000	0.331400	0.877200
C2261	C226	0.046500	0.889900	0.934500
C2271	C227	0.764700	0.981500	0.688200
C2281	C228	0.621500	0.582500	0.102000
C2291	C229	0.839500	0.647000	0.627300
C2301	C230	0.550300	0.489300	0.518600
C2311	C231	0.956500	0.481900	0.485600
C2321	C232	0.792600	0.231800	0.239800
C2331	C233	0.518500	0.735300	0.811800
C2341	C234	0.640600	0.439400	0.587700
C2351	C235	0.960400	0.106000	0.567400
C2361	C236	0.000000	0.500000	0.031300
C2371	C237	0.168200	0.314400	0.816500
C2381	C238	0.769700	0.897300	0.766700
C2391	C239	0.367600	0.885700	0.869200
C2401	C240	0.065600	0.936100	0.940000
C2411	C241	0.270400	0.554500	0.270200
C2421	C242	0.043500	0.518100	0.485600
C2431	C243	0.039600	0.806900	0.908800
C2441	C244	0.153600	0.301000	0.671800
C2451	C245	0.138500	0.314600	0.643300
C2461	C246	0.120900	0.524200	0.956500
C2471	C247	0.866300	0.590100	0.119800
C2481	C248	0.762000	0.868900	0.740400
C2491	C249	0.539600	0.693100	0.408800
C2501	C250	0.929800	0.649800	0.123700
C2511	C251	0.897500	0.044600	0.917300
C2521	C252	0.396800	0.938300	0.597500
C2531	C253	0.552900	0.635400	0.090900
C2541	C254	0.693100	0.460400	0.591200
C2551	C255	0.131100	0.762000	0.259600
C2561	C256	0.185600	0.331800	0.683500
C2571	C257	0.205400	0.374100	0.670200
C2581	C258	0.389900	0.546500	0.565500
C2591	C259	0.935900	0.064200	0.559200
C2601	C260	0.603200	0.061700	0.597500
C2611	C261	0.010700	0.949700	0.981400
C2621	C262	0.739100	0.400300	0.216700
C2631	C263	0.544600	0.397500	0.582700
C2641	C264	0.868900	0.238000	0.259600
C2651	C265	0.981500	0.235300	0.311800
C2661	C266	0.039600	0.894000	0.567400
C2671	C267	0.050500	0.580300	0.529000
C2681	C268	0.877700	0.905500	0.389700
C2691	C269	0.314600	0.861500	0.356700
C2701	C270	0.214100	0.413100	0.870600
C2711	C271	0.446400	0.656900	0.625400
C2721	C272	0.480300	0.959100	0.948900
C2731	C273	0.913100	0.714100	0.629400
C2741	C274	0.951900	0.364900	0.569900
C2751	C275	0.949400	0.698100	0.135700
C2761	C276	0.563900	0.434400	0.560000
C2771	C277	0.894800	0.050000	0.577700
C2781	C278	0.528900	0.724500	0.695400
C2791	C279	0.224500	0.028900	0.804600
C2801	C280	0.474200	0.268800	0.756900
C2811	C281	0.044600	0.102500	0.082700
C2821	C282	0.553100	0.907000	0.460200
C2831	C283	0.554500	0.729600	0.729800
C2841	C284	0.872300	0.537600	0.396100
C2851	C285	0.487300	0.452700	0.021200
C2861	C286	0.409900	0.866300	0.880200
C2871	C287	0.231200	0.025800	0.743100
C2881	C288	0.097000	0.878500	0.893000
C2891	C289	0.379100	0.024200	0.456500
C2901	C290	0.418700	0.938200	0.909000
C2911	C291	0.321000	0.934600	0.626300
C2921	C292	0.647000	0.160500	0.372700
C2931	C293	0.974700	0.183300	0.599500
C2941	C294	0.738000	0.368900	0.240400
C2951	C295	0.176300	0.524800	0.917800
C2961	C296	0.475800	0.120900	0.043500
C2971	C297	0.611800	0.188500	0.356000
C2981	C298	0.879100	0.475800	0.956500
C2991	C299	0.080300	0.550500	0.971000
C3001	C300	0.438200	0.918700	0.591000
C3011	C301	0.500000	0.500000	0.500000
C3021	C302	0.061700	0.396800	0.402500
C3031	C303	0.445500	0.270400	0.729800
C3041	C304	0.024800	0.676300	0.582200
C3051	C305	0.419700	0.050500	0.471000
C3061	C306	0.436100	0.565600	0.560000
C3071	C307	0.888200	0.688500	0.856000
C3081	C308	0.602700	0.730300	0.733300
C3091	C309	0.050300	0.010700	0.018600
C3101	C310	0.301900	0.949400	0.864300
C3111	C311	0.656900	0.553600	0.374600
C3121	C312	0.547300	0.487300	0.978800
C3131	C313	0.974200	0.231200	0.256900
C3141	C314	0.889900	0.953500	0.065500
C3151	C315	0.676300	0.975200	0.417800
C3161	C316	0.076300	0.118600	0.105200
C3171	C317	0.685400	0.138500	0.356700
C3181	C318	0.785900	0.586900	0.870600
C3191	C319	0.113700	0.572800	0.569000
C3201	C320	0.593000	0.946900	0.039800
C3211	C321	0.149800	0.429800	0.376300
C3221	C322	0.260400	0.760400	0.250000
C3231	C323	0.729600	0.445500	0.270200
C3241	C324	0.889200	0.409100	0.918300
C3251	C325	0.439400	0.359400	0.412300
C3261	C326	0.831800	0.685600	0.816500
C3271	C327	0.292600	0.268200	0.739800
C3281	C328	0.946400	0.843100	0.125400
C3291	C329	0.540900	0.019700	0.551100
C3301	C330	0.474700	0.316700	0.099500
C3311	C331	0.238000	0.131100	0.740400
C3321	C332	0.047300	0.012700	0.478800
C3331	C333	0.025300	0.816700	0.599500
C3341	C334	0.353000	0.839500	0.372700
C3351	C335	0.524800	0.823700	0.082200
C3361	C336	0.235300	0.048700	0.715000
C3371	C337	0.631100	0.738000	0.759600
C3381	C338	0.456500	0.018100	0.985600
C3391	C339	0.301000	0.846400	0.328200
C3401	C340	0.435900	0.435800	0.059200
C3411	C341	0.843100	0.053600	0.874600
C3421	C342	0.269700	0.602700	0.266700
C3431	C343	0.731200	0.474200	0.243100
C3441	C344	0.821000	0.565400	0.126300
C3451	C345	0.699000	0.153600	0.328200
C3461	C346	0.025800	0.768800	0.256900
C3471	C347	0.122300	0.094500	0.389700
C3481	C348	0.364900	0.048100	0.430100
C3491	C349	0.635100	0.951900	0.430100
C3501	C350	0.451300	0.264700	0.785000
C3511	C351	0.385700	0.867600	0.630800
C3521	C352	0.162200	0.544000	0.580100
C3531	C353	0.447100	0.364600	0.090900
C3541	C354	0.061800	0.418700	0.091000
C3551	C355	0.707400	0.731800	0.739800
C3561	C356	0.094500	0.877700	0.610300
C3571	C357	0.564100	0.564200	0.059200
C3581	C358	0.550500	0.919700	0.029000
C3591	C359	0.368900	0.262000	0.759600
C3601	C360	0.625900	0.205400	0.329800
C3611	C361	0.350200	0.929800	0.876300
C3621	C362	0.989300	0.050300	0.981400
C3631	C363	0.894000	0.960400	0.432600
C3641	C364	0.489300	0.449700	0.481400
C3651	C365	0.518100	0.956500	0.514400
C3661	C366	0.905500	0.122300	0.610300
C3671	C367	0.683300	0.474700	0.900500
C3681	C368	0.264700	0.548700	0.215000
C3691	C369	0.524200	0.879100	0.043500
C3701	C370	0.955400	0.897500	0.082700
C3711	C371	0.946900	0.407000	0.960200
C3721	C372	0.500000	0.000000	0.968700
C3731	C373	0.816700	0.974700	0.400500
C3741	C374	0.125900	0.294600	0.829800
C3751	C375	0.885700	0.632400	0.130800
C3761	C376	0.121500	0.917500	0.602000
C3771	C377	0.434600	0.821000	0.873700
C3781	C378	0.878500	0.903000	0.107000
C3791	C379	0.018500	0.764700	0.311800
C3801	C380	0.311500	0.888200	0.144000
C3811	C381	0.060600	0.859400	0.912300
C3821	C382	0.183300	0.025300	0.400500
C3831	C383	0.760900	0.900300	0.716700
C3841	C384	0.668200	0.185600	0.316500
C3851	C385	0.207400	0.768200	0.239800
C3861	C386	0.481900	0.043500	0.514400
C3871	C387	0.859400	0.939400	0.087700
C3881	C388	0.500000	0.500000	0.000000
C3891	C389	0.364600	0.552900	0.909100
C3901	C390	0.168600	0.926000	0.622800
C3911	C391	0.936100	0.934400	0.060000
C3921	C392	0.343100	0.446400	0.374600
C3931	C393	0.610100	0.453500	0.565500
C3941	C394	0.093000	0.553100	0.539800
C3951	C395	0.000000	0.000000	0.000000
C3961	C396	0.790500	0.569700	0.623400
C3971	C397	0.268800	0.525800	0.243100
C3981	C398	0.053600	0.156900	0.125400
C3991	C399	0.714100	0.086900	0.370600
C4001	C400	0.679000	0.065400	0.626300
C4011	C401	0.923700	0.881400	0.105200
C4021	C402	0.987300	0.047300	0.521200
C4031	C403	0.960400	0.193100	0.908800
C4041	C404	0.064200	0.064100	0.440800
C4051	C405	0.572800	0.886300	0.431000
C4061	C406	0.198100	0.449400	0.364300
C4071	C407	0.337800	0.044000	0.080100
C4081	C408	0.262000	0.631100	0.240400
C4091	C409	0.417500	0.621500	0.898000
C4101	C410	0.581300	0.061800	0.909000
C4111	C411	0.698100	0.050600	0.864300
C4121	C412	0.768800	0.974200	0.743100
C4131	C413	0.764700	0.951300	0.715000
C4141	C414	0.230300	0.102700	0.766700
C4151	C415	0.389200	0.090900	0.418300
C4161	C416	0.814400	0.668200	0.683500
C4171	C417	0.105200	0.950000	0.577700
C4181	C418	0.981900	0.456500	0.014400
C4191	C419	0.118600	0.923700	0.894800
C4201	C420	0.339500	0.853000	0.127300
C4211	C421	0.801900	0.550600	0.364300
C4221	C422	0.934400	0.063900	0.940000
C4231	C423	0.632400	0.114300	0.869200
C4241	C424	0.561700	0.103200	0.902500
C4251	C425	0.565600	0.563900	0.440000
C4261	C426	0.519700	0.040900	0.948900
C4271	C427	0.028900	0.775500	0.195400
C4281	C428	0.620900	0.975800	0.456500
C4291	C429	0.864600	0.947100	0.409100
C4301	C430	0.294600	0.874100	0.170200
C4311	C431	0.475200	0.176300	0.082200
C4321	C432	0.853000	0.660500	0.872700
C4331	C433	0.537600	0.127700	0.603900
C4341	C434	0.939400	0.140600	0.912300
C4351	C435	0.446900	0.093000	0.460200
C4361	C436	0.065400	0.321000	0.373700
C4371	C437	0.135400	0.052900	0.409100
C4381	C438	0.580300	0.949500	0.471000
C4391	C439	0.239100	0.099700	0.716700
C4401	C440	0.962400	0.627700	0.103900
C4411	C441	0.586900	0.214100	0.129400
C4421	C442	0.881400	0.076300	0.894800
C4431	C443	0.930300	0.709500	0.876600
C4441	C444	0.801000	0.653600	0.828200
O11	O1	0.036200	0.277100	0.857800
O21	O2	0.991400	0.810000	0.580700
O31	O3	0.726900	0.446300	0.322200
O41	O4	0.365300	0.713300	0.703300
O51	O5	0.931600	0.706400	0.902900
O61	O6	0.538000	0.743200	0.837000
O71	O7	0.795800	0.505000	0.929700
O81	O8	0.285000	0.553200	0.614600
O91	O9	0.567900	0.749100	0.904300
O101	O10	0.713600	0.008700	0.872630
O111	O11	0.690000	0.508600	0.919300
O121	O12	0.516700	0.325000	0.618300
O131	O13	0.315800	0.036000	0.389600
O141	O14	0.320200	0.016400	0.062600
O151	O15	0.233900	0.447000	0.521200
O161	O16	0.920800	0.718700	0.154200
O171	O17	0.190600	0.971500	0.611580
O181	O18	0.594500	0.205200	0.856100
O191	O19	0.218000	0.983200	0.799200
O201	O20	0.432100	0.250900	0.904300
O211	O21	0.310000	0.491400	0.919300
O221	O22	0.053000	0.266100	0.978800
O231	O23	0.951300	0.279000	0.678800
O241	O24	0.749100	0.432100	0.095700
O251	O25	0.080400	0.761400	0.103500
O261	O26	0.440000	0.767500	0.144800
O271	O27	0.580400	0.738600	0.603500
O281	O28	0.553200	0.715000	0.385400
O291	O29	0.706400	0.068400	0.097100
O301	O30	0.464000	0.184200	0.110400
O311	O31	0.690600	0.528500	0.111580
O321	O32	0.964000	0.315800	0.610400
O331	O33	0.032500	0.052500	0.038500
O341	O34	0.975000	0.439100	0.503000
O351	O35	0.525900	0.057700	0.570660
O361	O36	0.232500	0.440000	0.855200
O371	O37	0.670500	0.940700	0.105600
O381	O38	0.290100	0.820000	0.212100
O391	O39	0.471500	0.690600	0.888420
O401	O40	0.059300	0.670500	0.894400
O411	O41	0.536200	0.222900	0.357800
O421	O42	0.483200	0.718000	0.700800
O431	O43	0.972300	0.695900	0.384370
O441	O44	0.221000	0.548700	0.821200
O451	O45	0.715000	0.446800	0.614600
O461	O46	0.052500	0.967500	0.961500
O471	O47	0.773100	0.946300	0.822200
O481	O48	0.060900	0.525000	0.997000
O491	O49	0.329500	0.059300	0.105600
O501	O50	0.095100	0.181900	0.359200
O511	O51	0.273100	0.553700	0.322200
O521	O52	0.983300	0.825000	0.118300
O531	O53	0.713300	0.634700	0.296700
O541	O54	0.420800	0.781300	0.654200
O551	O55	0.704500	0.490600	0.573900
O561	O56	0.675000	0.516700	0.381700
O571	O57	0.297100	0.538200	0.877300
O581	O58	0.491300	0.786400	0.627370
O591	O59	0.134700	0.213300	0.203300
O601	O60	0.724300	0.645300	0.194600
O611	O61	0.033600	0.053100	0.461600
O621	O62	0.527700	0.195900	0.884370
O631	O63	0.505000	0.204200	0.070300
O641	O64	0.794800	0.594500	0.143900
O651	O65	0.974100	0.557700	0.070660
O661	O66	0.005000	0.295800	0.570300
O671	O67	0.204500	0.009400	0.073900
O681	O68	0.475000	0.060900	0.003000
O691	O69	0.036000	0.684200	0.610400
O701	O70	0.786700	0.134700	0.796700
O711	O71	0.275700	0.354700	0.194600
O721	O72	0.318100	0.404900	0.140800
O731	O73	0.267500	0.940000	0.355200
O741	O74	0.532500	0.447500	0.538500
O751	O75	0.983200	0.782000	0.200800
O761	O76	0.750900	0.932100	0.595700
O771	O77	0.053700	0.773100	0.177800
O781	O78	0.025900	0.442300	0.070660
O791	O79	0.226900	0.053700	0.822200
O801	O80	0.924600	0.273000	0.827300
O811	O81	0.595100	0.318100	0.859200
O821	O82	0.483600	0.179800	0.437400
O831	O83	0.016800	0.218000	0.200800
O841	O84	0.559300	0.829500	0.394400
O851	O85	0.279000	0.048700	0.321200
O861	O86	0.184200	0.536000	0.889600
O871	O87	0.008700	0.286400	0.127370
O881	O88	0.284800	0.904500	0.398500
O891	O89	0.761400	0.919600	0.896500
O901	O90	0.205200	0.405500	0.143900
O911	O91	0.730500	0.526900	0.192400
O921	O92	0.727000	0.924600	0.172700
O931	O93	0.790100	0.680000	0.712100
O941	O94	0.797100	0.961800	0.377300
O951	O95	0.757600	0.822900	0.737600
O961	O96	0.781300	0.579200	0.345800
O971	O97	0.195900	0.472300	0.115630
O981	O98	0.865300	0.786700	0.203300
O991	O99	0.508700	0.213600	0.627370
O1001	O100	0.533600	0.446900	0.961600
O1011	O101	0.756800	0.962000	0.663000
O1021	O102	0.905500	0.705200	0.356100
O1031	O103	0.702900	0.461800	0.877300
O1041	O104	0.553700	0.726900	0.677800
O1051	O105	0.645300	0.275700	0.805400
O1061	O106	0.261400	0.580400	0.396500
O1071	O107	0.483300	0.675000	0.618300
O1081	O108	0.583400	0.332400	0.647000
O1091	O109	0.204200	0.495000	0.929700
O1101	O110	0.447500	0.467500	0.461500
O1111	O111	0.695900	0.027700	0.615630
O1121	O112	0.557700	0.025900	0.929340
O1131	O113	0.053100	0.966400	0.538400
O1141	O114	0.818100	0.095100	0.640800
O1151	O115	0.526900	0.269500	0.807600
O1161	O116	0.947500	0.032500	0.961500
O1171	O117	0.491400	0.690000	0.080700
O1181	O118	0.416600	0.667600	0.647000
O1191	O119	0.784800	0.595500	0.898500
O1201	O120	0.750900	0.575900	0.970700
O1211	O121	0.451300	0.221000	0.178800
O1221	O122	0.916600	0.832400	0.147000
O1231	O123	0.961800	0.202900	0.622700
O1241	O124	0.009400	0.795500	0.926100
O1251	O125	0.575400	0.773000	0.327300
O1261	O126	0.904900	0.818100	0.359200
O1271	O127	0.773000	0.424600	0.672700
O1281	O128	0.963800	0.722900	0.857800
O1291	O129	0.820200	0.483600	0.562600
O1301	O130	0.439100	0.025000	0.497000
O1311	O131	0.822900	0.242400	0.262400
O1321	O132	0.354700	0.724300	0.805400
O1331	O133	0.722900	0.036200	0.142200
O1341	O134	0.472300	0.804100	0.884370
O1351	O135	0.230500	0.973100	0.692400
O1361	O136	0.067900	0.750900	0.404300
O1371	O137	0.180000	0.290100	0.787900
O1381	O138	0.516800	0.282000	0.700800
O1391	O139	0.038200	0.797100	0.622700
O1401	O140	0.462000	0.256800	0.837000
O1411	O141	0.026900	0.230500	0.307600
O1421	O142	0.919600	0.238600	0.103500
O1431	O143	0.266100	0.947000	0.021200
O1441	O144	0.209900	0.320000	0.712100
O1451	O145	0.804100	0.527700	0.115630
O1461	O146	0.782000	0.016800	0.799200
O1471	O147	0.946300	0.226900	0.177800
O1481	O148	0.971500	0.809400	0.388420
O1491	O149	0.145300	0.224300	0.305400
O1501	O150	0.332400	0.416600	0.353000
O1511	O151	0.548700	0.779000	0.178800
O1521	O152	0.474100	0.942300	0.570660
O1531	O153	0.785000	0.946800	0.114600
O1541	O154	0.256800	0.538000	0.163000
O1551	O155	0.733900	0.053000	0.021200
O1561	O156	0.282000	0.483200	0.299200
O1571	O157	0.463800	0.777100	0.357800
O1581	O158	0.170500	0.559300	0.605600
O1591	O159	0.904500	0.715200	0.601500
O1601	O160	0.495000	0.795800	0.070300
O1611	O161	0.940700	0.329500	0.894400
O1621	O162	0.016700	0.175000	0.118300
O1631	O163	0.854700	0.775700	0.305400
O1641	O164	0.293600	0.931600	0.097100
O1651	O165	0.932100	0.249100	0.404300
O1661	O166	0.202900	0.038200	0.377300
O1671	O167	0.721000	0.951300	0.321200
O1681	O168	0.447000	0.766100	0.478800
O1691	O169	0.967500	0.947500	0.038500
O1701	O170	0.473100	0.730500	0.807600
O1711	O171	0.793600	0.568400	0.597100
O1721	O172	0.249100	0.067900	0.595700
O1731	O173	0.440700	0.170500	0.394400
O1741	O174	0.424100	0.750900	0.029300
O1751	O175	0.446800	0.285000	0.385400
O1761	O176	0.738600	0.419600	0.396500
O1771	O177	0.215000	0.053200	0.114600
O1781	O178	0.742400	0.322900	0.237600
O1791	O179	0.769500	0.026900	0.692400
O1801	O180	0.431600	0.793600	0.402900
O1811	O181	0.767500	0.560000	0.855200
O1821	O182	0.553000	0.233900	0.478800
O1831	O183	0.446900	0.466400	0.038400
O1841	O184	0.038000	0.756800	0.337000
O1851	O185	0.528500	0.309400	0.888420
O1861	O186	0.167600	0.916600	0.853000
O1871	O187	0.942300	0.525900	0.429340
O1881	O188	0.777100	0.536200	0.642200
O1891	O189	0.190000	0.991400	0.419300
O1901	O190	0.983600	0.320200	0.937400
O1911	O191	0.766100	0.553000	0.521200
O1921	O192	0.269500	0.473100	0.192400
O1931	O193	0.705200	0.094500	0.643900
O1941	O194	0.424600	0.227000	0.327300
O1951	O195	0.704200	0.005000	0.429700
O1961	O196	0.575900	0.249100	0.029300
O1971	O197	0.025000	0.560900	0.503000
O1981	O198	0.322900	0.257600	0.762400
O1991	O199	0.810000	0.008600	0.419300
O2001	O200	0.560000	0.232500	0.144800
O2011	O201	0.075900	0.250900	0.529300
O2021	O202	0.946900	0.033600	0.538400
O2031	O203	0.277100	0.963800	0.142200
O2041	O204	0.677100	0.742400	0.762400
O2051	O205	0.048700	0.721000	0.678800
O2061	O206	0.681900	0.595100	0.140800
O2071	O207	0.553100	0.533600	0.038400
O2081	O208	0.442300	0.974100	0.929340
O2091	O209	0.991300	0.713600	0.127370
O2101	O210	0.177100	0.757600	0.262400
O2111	O211	0.966400	0.946900	0.461600
O2121	O212	0.405500	0.794800	0.856100
O2131	O213	0.679800	0.983600	0.062600
O2141	O214	0.490600	0.295500	0.426100
O2151	O215	0.946800	0.215000	0.885400
O2161	O216	0.815800	0.464000	0.889600
O2171	O217	0.538200	0.702900	0.122700
O2181	O218	0.595500	0.215200	0.101500
O2191	O219	0.215200	0.404500	0.898500
O2201	O220	0.286400	0.991300	0.872630
O2211	O221	0.094500	0.294800	0.356100
O2221	O222	0.273000	0.075400	0.172700
O2231	O223	0.509400	0.704500	0.426100
O2241	O224	0.083400	0.167600	0.147000
O2251	O225	0.175000	0.983300	0.881700
O2261	O226	0.257600	0.677100	0.237600
O2271	O227	0.213600	0.491300	0.372630
O2281	O228	0.295500	0.509400	0.573900
O2291	O229	0.995000	0.704200	0.570300
O2301	O230	0.924100	0.749100	0.529300
O2311	O231	0.973100	0.769500	0.307600
O2321	O232	0.684200	0.964000	0.389600
O2331	O233	0.516400	0.820200	0.437400
O2341	O234	0.743200	0.462000	0.163000
O2351	O235	0.028500	0.190600	0.388420
O2361	O236	0.079200	0.281300	0.154200
O2371	O237	0.243200	0.038000	0.663000
O2381	O238	0.560900	0.975000	0.497000
O2391	O239	0.068400	0.293600	0.902900
O2401	O240	0.095500	0.284800	0.601500
O2411	O241	0.667600	0.583400	0.353000
O2421	O242	0.718000	0.516800	0.299200
O2431	O243	0.795500	0.990600	0.073900
O2441	O244	0.075400	0.727000	0.827300
O2451	O245	0.579200	0.218700	0.654200
O2461	O246	0.213300	0.865300	0.796700
O2471	O247	0.404500	0.784800	0.101500
O2481	O248	0.179800	0.516400	0.562600
O2491	O249	0.057700	0.474100	0.429340
O2501	O250	0.467500	0.552500	0.538500
O2511	O251	0.825000	0.016700	0.881700
O2521	O252	0.224300	0.854700	0.694600
O2531	O253	0.508600	0.310000	0.080700
O2541	O254	0.939100	0.475000	0.997000
O2551	O255	0.060000	0.267500	0.644800
O2561	O256	0.320000	0.790100	0.287900
O2571	O257	0.250900	0.924100	0.470700
O2581	O258	0.249100	0.424100	0.970700
O2591	O259	0.227000	0.575400	0.672700
O2601	O260	0.940000	0.732500	0.644800
O2611	O261	0.250900	0.567900	0.095700
O2621	O262	0.568400	0.206400	0.402900
O2631	O263	0.962000	0.243200	0.337000
O2641	O264	0.779000	0.451300	0.821200
O2651	O265	0.325000	0.483300	0.381700
O2661	O266	0.947000	0.733900	0.978800
O2671	O267	0.552500	0.532500	0.461500
O2681	O268	0.446300	0.273100	0.677800
O2691	O269	0.832400	0.083400	0.853000
O2701	O270	0.008600	0.190000	0.580700
O2711	O271	0.820000	0.709900	0.787900
O2721	O272	0.309400	0.471500	0.111580
O2731	O273	0.286700	0.365300	0.296700
O2741	O274	0.775700	0.145300	0.694600
O2751	O275	0.404900	0.681900	0.859200
O2761	O276	0.718700	0.079200	0.845800
O2771	O277	0.525000	0.939100	0.003000
O2781	O278	0.829500	0.440700	0.605600
O2791	O279	0.536000	0.815800	0.110400
O2801	O280	0.218700	0.420800	0.345800
O2811	O281	0.419600	0.261400	0.603500
O2821	O282	0.461800	0.297100	0.122700
O2831	O283	0.304100	0.972300	0.615630
O2841	O284	0.281300	0.920800	0.845800
O2851	O285	0.809400	0.028500	0.611580
O2861	O286	0.027700	0.304100	0.384370
O2871	O287	0.715200	0.095500	0.398500
O2881	O288	0.242400	0.177100	0.737600
O2891	O289	0.990600	0.204500	0.926100
O2901	O290	0.016400	0.679800	0.937400
O2911	O291	0.749100	0.075900	0.470700
O2921	O292	0.634700	0.286700	0.703300
O2931	O293	0.181900	0.904900	0.640800
O2941	O294	0.709900	0.180000	0.212100
O2951	O295	0.732500	0.060000	0.355200
O2961	O296	0.206400	0.431600	0.597100
O2971	O297	0.222900	0.463800	0.642200
O2981	O298	0.786400	0.508700	0.372630
O2991	O299	0.680000	0.209900	0.287900
O3001	O300	0.053200	0.785000	0.885400
O3011	O301	0.466400	0.553100	0.961600
O3021	O302	0.295800	0.995000	0.429700
O3031	O303	0.238600	0.080400	0.896500
O3041	O304	0.294800	0.905500	0.643900
