data_WEHJIE_freeONLY_PM
_symmetry_space_group_name_H-M	'P1'
_cell_length_a	18.902000
_cell_length_b	30.464000
_cell_length_c	31.004000
_cell_angle_alpha	90.000000
_cell_angle_beta	90.000000
_cell_angle_gamma	90.000000
_symmetry_Int_Tables_number 1

loop_
_symmetry_equiv_pos_as_xyz
'x,y,z'

loop_
_atom_site_label
_atom_site_type_symbol
_atom_site_fract_x
_atom_site_fract_y
_atom_site_fract_z
Zn11	Zn1	0.771720	0.031150	0.522800
Zn21	Zn2	0.849440	0.945880	0.506610
Zn31	Zn3	0.244790	0.000160	0.960210
Zn41	Zn4	0.347390	0.799330	0.737120
Zn51	Zn5	0.325120	0.003880	0.044680
Zn61	Zn6	0.253180	0.794230	0.642940
Zn71	Zn7	0.300680	0.708560	0.285000
Zn81	Zn8	0.328700	0.744060	0.180450
Zn91	Zn9	0.333590	0.705700	0.678470
Zn101	Zn10	0.271720	0.968850	0.477200
Zn111	Zn11	0.349440	0.054120	0.493390
Zn121	Zn12	0.744790	0.999840	0.039790
Zn131	Zn13	0.847390	0.200670	0.262880
Zn141	Zn14	0.825120	0.996120	0.955320
Zn151	Zn15	0.753180	0.205770	0.357060
Zn161	Zn16	0.800680	0.291440	0.715000
Zn171	Zn17	0.828700	0.255940	0.819550
Zn181	Zn18	0.833590	0.294300	0.321530
Zn191	Zn19	0.771720	0.531150	0.977200
Zn201	Zn20	0.849440	0.445880	0.993390
Zn211	Zn21	0.244790	0.500160	0.539790
Zn221	Zn22	0.347390	0.299330	0.762880
Zn231	Zn23	0.325120	0.503880	0.455320
Zn241	Zn24	0.253180	0.294230	0.857060
Zn251	Zn25	0.300680	0.208560	0.215000
Zn261	Zn26	0.328700	0.244060	0.319550
Zn271	Zn27	0.333590	0.205700	0.821530
Zn281	Zn28	0.271720	0.468850	0.022800
Zn291	Zn29	0.349440	0.554120	0.006610
Zn301	Zn30	0.744790	0.499840	0.460210
Zn311	Zn31	0.847390	0.700670	0.237120
Zn321	Zn32	0.825120	0.496120	0.544680
Zn331	Zn33	0.753180	0.705770	0.142940
Zn341	Zn34	0.800680	0.791440	0.785000
Zn351	Zn35	0.828700	0.755940	0.680450
Zn361	Zn36	0.833590	0.794300	0.178470
H11	H1	0.423800	0.999500	0.878600
H21	H2	0.638300	0.001300	0.873700
H31	H3	0.537000	0.987300	0.988300
H41	H4	0.622500	0.027700	0.810200
H51	H5	0.607300	0.978400	0.798200
H61	H6	0.662400	0.042500	0.732800
H71	H7	0.616400	0.023500	0.694700
H81	H8	0.466100	0.988700	0.755700
H91	H9	0.525100	0.959700	0.733800
H101	H10	0.431700	0.024600	0.623100
H111	H11	0.308600	0.919400	0.603900
H121	H12	0.420900	0.927700	0.713200
H131	H13	0.724200	0.909600	0.747300
H141	H14	0.821400	0.892800	0.635700
H151	H15	0.709500	0.001400	0.656300
H161	H16	0.564900	0.992800	0.485100
H171	H17	0.447600	0.888800	0.444500
H181	H18	0.653100	0.872900	0.468100
H191	H19	0.631400	0.801000	0.434000
H201	H20	0.605200	0.800800	0.482200
H211	H21	0.649800	0.716100	0.433900
H221	H22	0.590000	0.687500	0.455600
H231	H23	0.459000	0.771600	0.469900
H241	H24	0.509500	0.751900	0.505300
H251	H25	0.399000	0.634900	0.468400
H261	H26	0.264100	0.646500	0.566100
H271	H27	0.384800	0.750400	0.527700
H281	H28	0.470900	0.145700	0.760600
H291	H29	0.568800	0.261700	0.743900
H301	H30	0.684400	0.150700	0.771600
H311	H31	0.523700	0.075500	0.721900
H321	H32	0.490000	0.068000	0.767800
H331	H33	0.676900	0.643600	0.476900
H341	H34	0.815500	0.628200	0.576400
H351	H35	0.710100	0.741900	0.560200
H361	H36	0.559700	0.735000	0.208300
H371	H37	0.680500	0.739100	0.313700
H381	H38	0.468700	0.754400	0.324800
H391	H39	0.496500	0.773200	0.393300
H401	H40	0.504200	0.721800	0.396300
H411	H41	0.437200	0.587700	0.627100
H421	H42	0.404000	0.607000	0.669300
H431	H43	0.363700	0.611400	0.625300
H441	H44	0.495000	0.726400	0.596900
H451	H45	0.550300	0.704600	0.565700
H461	H46	0.606900	0.743900	0.617500
H471	H47	0.570000	0.715900	0.653400
H481	H48	0.625100	0.693900	0.622400
H491	H49	0.898500	0.757100	0.522900
H501	H50	0.952200	0.754500	0.484100
H511	H51	0.805100	0.807800	0.536800
H521	H52	0.821500	0.850300	0.563400
H531	H53	0.769400	0.852400	0.524000
H541	H54	0.276500	0.056800	0.127500
H551	H55	0.321600	0.099000	0.118300
H561	H56	0.324600	0.076700	0.163800
H571	H57	0.550900	0.048400	0.125900
H581	H58	0.506400	0.018500	0.094200
H591	H59	0.572200	0.068700	0.053500
H601	H60	0.538300	0.107700	0.079300
H611	H61	0.491500	0.079300	0.048300
H621	H62	0.520400	0.107400	0.150300
H631	H63	0.444000	0.127600	0.155300
H641	H64	0.478800	0.096500	0.221400
H651	H65	0.490500	0.051100	0.198600
H661	H66	0.413900	0.070300	0.203100
H671	H67	0.004900	0.848400	0.478900
H681	H68	0.008200	0.798100	0.467900
H691	H69	0.548700	0.590500	0.607600
H701	H70	0.605900	0.625400	0.591900
H711	H71	0.552400	0.591900	0.537300
H721	H72	0.480500	0.610700	0.554300
H731	H73	0.539800	0.642700	0.538200
H741	H74	0.839600	0.723700	0.467200
H751	H75	0.807200	0.770800	0.471700
H761	H76	0.862000	0.760900	0.435000
H771	H77	0.991500	0.822100	0.401100
H781	H78	0.911600	0.821000	0.414600
H791	H79	0.953900	0.865200	0.416500
H801	H80	0.923800	0.000500	0.121400
H811	H81	0.138300	0.998700	0.126300
H821	H82	0.037000	0.012700	0.011700
H831	H83	0.122500	0.972300	0.189800
H841	H84	0.107300	0.021600	0.201800
H851	H85	0.162400	0.957500	0.267200
H861	H86	0.116400	0.976500	0.305300
H871	H87	0.966100	0.011300	0.244300
H881	H88	0.025100	0.040300	0.266200
H891	H89	0.931700	0.975400	0.376900
H901	H90	0.808600	0.080600	0.396100
H911	H91	0.920900	0.072300	0.286800
H921	H92	0.224200	0.090400	0.252700
H931	H93	0.321400	0.107200	0.364300
H941	H94	0.209500	0.998600	0.343700
H951	H95	0.064900	0.007200	0.514900
H961	H96	0.947600	0.111200	0.555500
H971	H97	0.153100	0.127100	0.531900
H981	H98	0.131400	0.199000	0.566000
H991	H99	0.105200	0.199200	0.517800
H1001	H100	0.149800	0.283900	0.566100
H1011	H101	0.090000	0.312500	0.544400
H1021	H102	0.959000	0.228400	0.530100
H1031	H103	0.009500	0.248100	0.494700
H1041	H104	0.899000	0.365100	0.531600
H1051	H105	0.764100	0.353500	0.433900
H1061	H106	0.884800	0.249600	0.472300
H1071	H107	0.970900	0.854300	0.239400
H1081	H108	0.068800	0.738300	0.256100
H1091	H109	0.184400	0.849300	0.228400
H1101	H110	0.023700	0.924500	0.278100
H1111	H111	0.990000	0.932000	0.232200
H1121	H112	0.176900	0.356400	0.523100
H1131	H113	0.315500	0.371800	0.423600
H1141	H114	0.210100	0.258100	0.439800
H1151	H115	0.059700	0.265000	0.791700
H1161	H116	0.180500	0.260900	0.686300
H1171	H117	0.968700	0.245600	0.675200
H1181	H118	0.996500	0.226800	0.606700
H1191	H119	0.004200	0.278200	0.603700
H1201	H120	0.937200	0.412300	0.372900
H1211	H121	0.904000	0.393000	0.330700
H1221	H122	0.863700	0.388600	0.374700
H1231	H123	0.995000	0.273600	0.403100
H1241	H124	0.050300	0.295400	0.434300
H1251	H125	0.106900	0.256100	0.382500
H1261	H126	0.070000	0.284100	0.346600
H1271	H127	0.125100	0.306100	0.377600
H1281	H128	0.398500	0.242900	0.477100
H1291	H129	0.452200	0.245500	0.515900
H1301	H130	0.305100	0.192200	0.463200
H1311	H131	0.321500	0.149700	0.436600
H1321	H132	0.269400	0.147600	0.476000
H1331	H133	0.776500	0.943200	0.872500
H1341	H134	0.821600	0.901000	0.881700
H1351	H135	0.824600	0.923300	0.836200
H1361	H136	0.050900	0.951600	0.874100
H1371	H137	0.006400	0.981500	0.905800
H1381	H138	0.072200	0.931300	0.946500
H1391	H139	0.038300	0.892300	0.920700
H1401	H140	0.991500	0.920700	0.951700
H1411	H141	0.020400	0.892600	0.849700
H1421	H142	0.944000	0.872400	0.844700
H1431	H143	0.978800	0.903500	0.778600
H1441	H144	0.990500	0.948900	0.801400
H1451	H145	0.913900	0.929700	0.796900
H1461	H146	0.504900	0.151600	0.521100
H1471	H147	0.508200	0.201900	0.532100
H1481	H148	0.048700	0.409500	0.392400
H1491	H149	0.105900	0.374600	0.408100
H1501	H150	0.052400	0.408100	0.462700
H1511	H151	0.980500	0.389300	0.445700
H1521	H152	0.039800	0.357300	0.461800
H1531	H153	0.339600	0.276300	0.532800
H1541	H154	0.307200	0.229200	0.528300
H1551	H155	0.362000	0.239100	0.565000
H1561	H156	0.491500	0.177900	0.598900
H1571	H157	0.411600	0.179000	0.585400
H1581	H158	0.453900	0.134800	0.583500
H1591	H159	0.423800	0.499500	0.621400
H1601	H160	0.638300	0.501300	0.626300
H1611	H161	0.537000	0.487300	0.511700
H1621	H162	0.622500	0.527700	0.689800
H1631	H163	0.607300	0.478400	0.701800
H1641	H164	0.662400	0.542500	0.767200
H1651	H165	0.616400	0.523500	0.805300
H1661	H166	0.466100	0.488700	0.744300
H1671	H167	0.525100	0.459700	0.766200
H1681	H168	0.431700	0.524600	0.876900
H1691	H169	0.308600	0.419400	0.896100
H1701	H170	0.420900	0.427700	0.786800
H1711	H171	0.724200	0.409600	0.752700
H1721	H172	0.821400	0.392800	0.864300
H1731	H173	0.709500	0.501400	0.843700
H1741	H174	0.564900	0.492800	0.014900
H1751	H175	0.447600	0.388800	0.055500
H1761	H176	0.653100	0.372900	0.031900
H1771	H177	0.631400	0.301000	0.066000
H1781	H178	0.605200	0.300800	0.017800
H1791	H179	0.649800	0.216100	0.066100
H1801	H180	0.590000	0.187500	0.044400
H1811	H181	0.459000	0.271600	0.030100
H1821	H182	0.509500	0.251900	0.994700
H1831	H183	0.399000	0.134900	0.031600
H1841	H184	0.264100	0.146500	0.933900
H1851	H185	0.384800	0.250400	0.972300
H1861	H186	0.470900	0.645700	0.739400
H1871	H187	0.568800	0.761700	0.756100
H1881	H188	0.684400	0.650700	0.728400
H1891	H189	0.523700	0.575500	0.778100
H1901	H190	0.490000	0.568000	0.732200
H1911	H191	0.676900	0.143600	0.023100
H1921	H192	0.815500	0.128200	0.923600
H1931	H193	0.710100	0.241900	0.939800
H1941	H194	0.559700	0.235000	0.291700
H1951	H195	0.680500	0.239100	0.186300
H1961	H196	0.468700	0.254400	0.175200
H1971	H197	0.496500	0.273200	0.106700
H1981	H198	0.504200	0.221800	0.103700
H1991	H199	0.437200	0.087700	0.872900
H2001	H200	0.404000	0.107000	0.830700
H2011	H201	0.363700	0.111400	0.874700
H2021	H202	0.495000	0.226400	0.903100
H2031	H203	0.550300	0.204600	0.934300
H2041	H204	0.606900	0.243900	0.882500
H2051	H205	0.570000	0.215900	0.846600
H2061	H206	0.625100	0.193900	0.877600
H2071	H207	0.898500	0.257100	0.977100
H2081	H208	0.952200	0.254500	0.015900
H2091	H209	0.805100	0.307800	0.963200
H2101	H210	0.821500	0.350300	0.936600
H2111	H211	0.769400	0.352400	0.976000
H2121	H212	0.276500	0.556800	0.372500
H2131	H213	0.321600	0.599000	0.381700
H2141	H214	0.324600	0.576700	0.336200
H2151	H215	0.550900	0.548400	0.374100
H2161	H216	0.506400	0.518500	0.405800
H2171	H217	0.572200	0.568700	0.446500
H2181	H218	0.538300	0.607700	0.420700
H2191	H219	0.491500	0.579300	0.451700
H2201	H220	0.520400	0.607400	0.349700
H2211	H221	0.444000	0.627600	0.344700
H2221	H222	0.478800	0.596500	0.278600
H2231	H223	0.490500	0.551100	0.301400
H2241	H224	0.413900	0.570300	0.296900
H2251	H225	0.004900	0.348400	0.021100
H2261	H226	0.008200	0.298100	0.032100
H2271	H227	0.548700	0.090500	0.892400
H2281	H228	0.605900	0.125400	0.908100
H2291	H229	0.552400	0.091900	0.962700
H2301	H230	0.480500	0.110700	0.945700
H2311	H231	0.539800	0.142700	0.961800
H2321	H232	0.839600	0.223700	0.032800
H2331	H233	0.807200	0.270800	0.028300
H2341	H234	0.862000	0.260900	0.065000
H2351	H235	0.991500	0.322100	0.098900
H2361	H236	0.911600	0.321000	0.085400
H2371	H237	0.953900	0.365200	0.083500
H2381	H238	0.923800	0.500500	0.378600
H2391	H239	0.138300	0.498700	0.373700
H2401	H240	0.037000	0.512700	0.488300
H2411	H241	0.122500	0.472300	0.310200
H2421	H242	0.107300	0.521600	0.298200
H2431	H243	0.162400	0.457500	0.232800
H2441	H244	0.116400	0.476500	0.194700
H2451	H245	0.966100	0.511300	0.255700
H2461	H246	0.025100	0.540300	0.233800
H2471	H247	0.931700	0.475400	0.123100
H2481	H248	0.808600	0.580600	0.103900
H2491	H249	0.920900	0.572300	0.213200
H2501	H250	0.224200	0.590400	0.247300
H2511	H251	0.321400	0.607200	0.135700
H2521	H252	0.209500	0.498600	0.156300
H2531	H253	0.064900	0.507200	0.985100
H2541	H254	0.947600	0.611200	0.944500
H2551	H255	0.153100	0.627100	0.968100
H2561	H256	0.131400	0.699000	0.934000
H2571	H257	0.105200	0.699200	0.982200
H2581	H258	0.149800	0.783900	0.933900
H2591	H259	0.090000	0.812500	0.955600
H2601	H260	0.959000	0.728400	0.969900
H2611	H261	0.009500	0.748100	0.005300
H2621	H262	0.899000	0.865100	0.968400
H2631	H263	0.764100	0.853500	0.066100
H2641	H264	0.884800	0.749600	0.027700
H2651	H265	0.970900	0.354300	0.260600
H2661	H266	0.068800	0.238300	0.243900
H2671	H267	0.184400	0.349300	0.271600
H2681	H268	0.023700	0.424500	0.221900
H2691	H269	0.990000	0.432000	0.267800
H2701	H270	0.176900	0.856400	0.976900
H2711	H271	0.315500	0.871800	0.076400
H2721	H272	0.210100	0.758100	0.060200
H2731	H273	0.059700	0.765000	0.708300
H2741	H274	0.180500	0.760900	0.813700
H2751	H275	0.968700	0.745600	0.824800
H2761	H276	0.996500	0.726800	0.893300
H2771	H277	0.004200	0.778200	0.896300
H2781	H278	0.937200	0.912300	0.127100
H2791	H279	0.904000	0.893000	0.169300
H2801	H280	0.863700	0.888600	0.125300
H2811	H281	0.995000	0.773600	0.096900
H2821	H282	0.050300	0.795400	0.065700
H2831	H283	0.106900	0.756100	0.117500
H2841	H284	0.070000	0.784100	0.153400
H2851	H285	0.125100	0.806100	0.122400
H2861	H286	0.398500	0.742900	0.022900
H2871	H287	0.452200	0.745500	0.984100
H2881	H288	0.305100	0.692200	0.036800
H2891	H289	0.321500	0.649700	0.063400
H2901	H290	0.269400	0.647600	0.024000
H2911	H291	0.776500	0.443200	0.627500
H2921	H292	0.821600	0.401000	0.618300
H2931	H293	0.824600	0.423300	0.663800
H2941	H294	0.050900	0.451600	0.625900
H2951	H295	0.006400	0.481500	0.594200
H2961	H296	0.072200	0.431300	0.553500
H2971	H297	0.038300	0.392300	0.579300
H2981	H298	0.991500	0.420700	0.548300
H2991	H299	0.020400	0.392600	0.650300
H3001	H300	0.944000	0.372400	0.655300
H3011	H301	0.978800	0.403500	0.721400
H3021	H302	0.990500	0.448900	0.698600
H3031	H303	0.913900	0.429700	0.703100
H3041	H304	0.504900	0.651600	0.978900
H3051	H305	0.508200	0.701900	0.967900
H3061	H306	0.048700	0.909500	0.107600
H3071	H307	0.105900	0.874600	0.091900
H3081	H308	0.052400	0.908100	0.037300
H3091	H309	0.980500	0.889300	0.054300
H3101	H310	0.039800	0.857300	0.038200
H3111	H311	0.339600	0.776300	0.967200
H3121	H312	0.307200	0.729200	0.971700
H3131	H313	0.362000	0.739100	0.935000
H3141	H314	0.491500	0.677900	0.901100
H3151	H315	0.411600	0.679000	0.914600
H3161	H316	0.453900	0.634800	0.916500
C11	C1	0.402400	0.992200	0.961800
C21	C2	0.764900	0.582800	0.511400
C31	C3	0.670000	0.987400	0.956100
C41	C4	0.469800	0.993000	0.936700
C51	C5	0.467100	0.997300	0.892700
C61	C6	0.529900	0.998500	0.869800
C71	C7	0.597100	0.997100	0.889600
C81	C8	0.599500	0.989200	0.933700
C91	C9	0.535500	0.989400	0.958400
C101	C10	0.587300	0.007700	0.798800
C111	C11	0.564400	0.022000	0.752600
C121	C12	0.628800	0.019900	0.724800
C131	C13	0.506100	0.989200	0.736100
C141	C14	0.435000	0.980600	0.672700
C151	C15	0.414300	0.997600	0.632300
C161	C16	0.367400	0.973900	0.605700
C171	C17	0.340900	0.934800	0.620700
C181	C18	0.361400	0.917800	0.660700
C191	C19	0.407500	0.939500	0.686700
C201	C20	0.334100	0.875200	0.675300
C211	C21	0.707100	0.956200	0.703200
C221	C22	0.734300	0.918600	0.719300
C231	C23	0.776000	0.895000	0.693700
C241	C24	0.792200	0.909600	0.653300
C251	C25	0.766200	0.948800	0.638200
C261	C26	0.724900	0.973700	0.664500
C271	C27	0.801800	0.850300	0.708500
C281	C28	0.785200	0.965200	0.592900
C291	C29	0.428600	0.972900	0.468400
C301	C30	0.344800	0.994400	0.563800
C311	C31	0.690900	0.955700	0.491400
C321	C32	0.620500	0.936300	0.478600
C331	C33	0.561200	0.963300	0.478000
C341	C34	0.494300	0.944800	0.466100
C351	C35	0.490400	0.900600	0.453700
C361	C36	0.550000	0.874600	0.455200
C371	C37	0.613700	0.891100	0.467300
C381	C38	0.590200	0.797900	0.452400
C391	C39	0.555800	0.753800	0.445400
C401	C40	0.612600	0.716100	0.455500
C411	C41	0.493600	0.748900	0.475700
C421	C42	0.404300	0.693400	0.495500
C431	C43	0.379500	0.651900	0.490300
C441	C44	0.327000	0.633200	0.515500
C451	C45	0.297900	0.658500	0.547700
C461	C46	0.319900	0.703600	0.552800
C471	C47	0.371900	0.721000	0.525700
C481	C48	0.302900	0.587400	0.510000
C491	C49	0.291500	0.731300	0.589200
C501	C50	0.437400	0.227900	0.752400
C511	C51	0.512600	0.161700	0.759200
C521	C52	0.509800	0.206000	0.753100
C531	C53	0.571400	0.232000	0.750600
C541	C54	0.637700	0.211300	0.758400
C551	C55	0.705100	0.237100	0.760100
C561	C56	0.641400	0.164300	0.765600
C571	C57	0.579000	0.139800	0.763500
C581	C58	0.533600	0.066800	0.751400
C591	C59	0.690000	0.697800	0.513600
C601	C60	0.701300	0.655400	0.500200
C611	C61	0.753100	0.629800	0.524000
C621	C62	0.785300	0.646100	0.560400
C631	C63	0.772600	0.690700	0.574100
C641	C64	0.722600	0.714000	0.550700
C651	C65	0.806200	0.707700	0.612200
C661	C66	0.431800	0.745400	0.243300
C671	C67	0.564200	0.738700	0.237900
C681	C68	0.629800	0.738700	0.256700
C691	C69	0.693500	0.728800	0.230700
C701	C70	0.636200	0.741200	0.300700
C711	C71	0.574600	0.747100	0.326300
C721	C72	0.508800	0.749500	0.308100
C731	C73	0.529100	0.749500	0.399700
C741	C74	0.190400	0.867200	0.566000
C751	C75	0.134900	0.855300	0.596600
C761	C76	0.956800	0.852100	0.579200
C771	C77	0.010400	0.845400	0.615200
C781	C78	0.119000	0.944100	0.597300
C791	C79	0.409500	0.611200	0.638800
C801	C80	0.446800	0.655100	0.630200
C811	C81	0.056200	0.915800	0.585800
C821	C82	0.532300	0.704600	0.595000
C831	C83	0.588200	0.715500	0.624500
C841	C84	0.908000	0.767300	0.493800
C851	C85	0.871900	0.848800	0.506000
C861	C86	0.811600	0.839000	0.535100
C871	C87	0.504500	0.744400	0.263400
C881	C88	0.381600	0.042900	0.118300
C891	C89	0.320500	0.071500	0.133400
C901	C90	0.513700	0.048300	0.104400
C911	C91	0.530400	0.078700	0.068200
C921	C92	0.471100	0.100600	0.155800
C931	C93	0.463000	0.077500	0.198600
C941	C94	0.978500	0.824000	0.467000
C951	C95	0.556300	0.617300	0.591300
C961	C96	0.530600	0.615500	0.552800
C971	C97	0.848900	0.754600	0.464300
C981	C98	0.956900	0.834000	0.420400
C991	C99	0.902400	0.007800	0.038200
C1001	C100	0.264900	0.417200	0.488600
C1011	C101	0.170000	0.012600	0.043900
C1021	C102	0.969800	0.007000	0.063300
C1031	C103	0.967100	0.002700	0.107300
C1041	C104	0.029900	0.001500	0.130200
C1051	C105	0.097100	0.002900	0.110400
C1061	C106	0.099500	0.010800	0.066300
C1071	C107	0.035500	0.010600	0.041600
C1081	C108	0.087300	0.992300	0.201200
C1091	C109	0.064400	0.978000	0.247400
C1101	C110	0.128800	0.980100	0.275200
C1111	C111	0.006100	0.010800	0.263900
C1121	C112	0.935000	0.019400	0.327300
C1131	C113	0.914300	0.002400	0.367700
C1141	C114	0.867400	0.026100	0.394300
C1151	C115	0.840900	0.065200	0.379300
C1161	C116	0.861400	0.082200	0.339300
C1171	C117	0.907500	0.060500	0.313300
C1181	C118	0.834100	0.124800	0.324700
C1191	C119	0.207100	0.043800	0.296800
C1201	C120	0.234300	0.081400	0.280700
C1211	C121	0.276000	0.105000	0.306300
C1221	C122	0.292200	0.090400	0.346700
C1231	C123	0.266200	0.051200	0.361800
C1241	C124	0.224900	0.026300	0.335500
C1251	C125	0.301800	0.149700	0.291500
C1261	C126	0.285200	0.034800	0.407100
C1271	C127	0.928600	0.027100	0.531600
C1281	C128	0.844800	0.005600	0.436200
C1291	C129	0.190900	0.044300	0.508600
C1301	C130	0.120500	0.063700	0.521400
C1311	C131	0.061200	0.036700	0.522000
C1321	C132	0.994300	0.055200	0.533900
C1331	C133	0.990400	0.099400	0.546300
C1341	C134	0.050000	0.125400	0.544800
C1351	C135	0.113700	0.108900	0.532700
C1361	C136	0.090200	0.202100	0.547600
C1371	C137	0.055800	0.246200	0.554600
C1381	C138	0.112600	0.283900	0.544500
C1391	C139	0.993600	0.251100	0.524300
C1401	C140	0.904300	0.306600	0.504500
C1411	C141	0.879500	0.348100	0.509700
C1421	C142	0.827000	0.366800	0.484500
C1431	C143	0.797900	0.341500	0.452300
C1441	C144	0.819900	0.296400	0.447200
C1451	C145	0.871900	0.279000	0.474300
C1461	C146	0.802900	0.412600	0.490000
C1471	C147	0.791500	0.268700	0.410800
C1481	C148	0.937400	0.772100	0.247600
C1491	C149	0.012600	0.838300	0.240800
C1501	C150	0.009800	0.794000	0.246900
C1511	C151	0.071400	0.768000	0.249400
C1521	C152	0.137700	0.788700	0.241600
C1531	C153	0.205100	0.762900	0.239900
C1541	C154	0.141400	0.835700	0.234400
C1551	C155	0.079000	0.860200	0.236500
C1561	C156	0.033600	0.933200	0.248600
C1571	C157	0.190000	0.302200	0.486400
C1581	C158	0.201300	0.344600	0.499800
C1591	C159	0.253100	0.370200	0.476000
C1601	C160	0.285300	0.353900	0.439600
C1611	C161	0.272600	0.309300	0.425900
C1621	C162	0.222600	0.286000	0.449300
C1631	C163	0.306200	0.292300	0.387800
C1641	C164	0.931800	0.254600	0.756700
C1651	C165	0.064200	0.261300	0.762100
C1661	C166	0.129800	0.261300	0.743300
C1671	C167	0.193500	0.271200	0.769300
C1681	C168	0.136200	0.258800	0.699300
C1691	C169	0.074600	0.252900	0.673700
C1701	C170	0.008800	0.250500	0.691900
C1711	C171	0.029100	0.250500	0.600300
C1721	C172	0.690400	0.132800	0.434000
C1731	C173	0.634900	0.144700	0.403400
C1741	C174	0.456800	0.147900	0.420800
C1751	C175	0.510400	0.154600	0.384800
C1761	C176	0.619000	0.055900	0.402700
C1771	C177	0.909500	0.388800	0.361200
C1781	C178	0.946800	0.344900	0.369800
C1791	C179	0.556200	0.084200	0.414200
C1801	C180	0.032300	0.295400	0.405000
C1811	C181	0.088200	0.284500	0.375500
C1821	C182	0.408000	0.232700	0.506200
C1831	C183	0.371900	0.151200	0.494000
C1841	C184	0.311600	0.161000	0.464900
C1851	C185	0.004500	0.255600	0.736600
C1861	C186	0.881600	0.957100	0.881700
C1871	C187	0.820500	0.928500	0.866600
C1881	C188	0.013700	0.951700	0.895600
C1891	C189	0.030400	0.921300	0.931800
C1901	C190	0.971100	0.899400	0.844200
C1911	C191	0.963000	0.922500	0.801400
C1921	C192	0.478500	0.176000	0.533000
C1931	C193	0.056300	0.382700	0.408700
C1941	C194	0.030600	0.384500	0.447200
C1951	C195	0.348900	0.245400	0.535700
C1961	C196	0.456900	0.166000	0.579600
C1971	C197	0.402400	0.492200	0.538200
C1981	C198	0.764900	0.082800	0.988600
C1991	C199	0.670000	0.487400	0.543900
C2001	C200	0.469800	0.493000	0.563300
C2011	C201	0.467100	0.497300	0.607300
C2021	C202	0.529900	0.498500	0.630200
C2031	C203	0.597100	0.497100	0.610400
C2041	C204	0.599500	0.489200	0.566300
C2051	C205	0.535500	0.489400	0.541600
C2061	C206	0.587300	0.507700	0.701200
C2071	C207	0.564400	0.522000	0.747400
C2081	C208	0.628800	0.519900	0.775200
C2091	C209	0.506100	0.489200	0.763900
C2101	C210	0.435000	0.480600	0.827300
C2111	C211	0.414300	0.497600	0.867700
C2121	C212	0.367400	0.473900	0.894300
C2131	C213	0.340900	0.434800	0.879300
C2141	C214	0.361400	0.417800	0.839300
C2151	C215	0.407500	0.439500	0.813300
C2161	C216	0.334100	0.375200	0.824700
C2171	C217	0.707100	0.456200	0.796800
C2181	C218	0.734300	0.418600	0.780700
C2191	C219	0.776000	0.395000	0.806300
C2201	C220	0.792200	0.409600	0.846700
C2211	C221	0.766200	0.448800	0.861800
C2221	C222	0.724900	0.473700	0.835500
C2231	C223	0.801800	0.350300	0.791500
C2241	C224	0.785200	0.465200	0.907100
C2251	C225	0.428600	0.472900	0.031600
C2261	C226	0.344800	0.494400	0.936200
C2271	C227	0.690900	0.455700	0.008600
C2281	C228	0.620500	0.436300	0.021400
C2291	C229	0.561200	0.463300	0.022000
C2301	C230	0.494300	0.444800	0.033900
C2311	C231	0.490400	0.400600	0.046300
C2321	C232	0.550000	0.374600	0.044800
C2331	C233	0.613700	0.391100	0.032700
C2341	C234	0.590200	0.297900	0.047600
C2351	C235	0.555800	0.253800	0.054600
C2361	C236	0.612600	0.216100	0.044500
C2371	C237	0.493600	0.248900	0.024300
C2381	C238	0.404300	0.193400	0.004500
C2391	C239	0.379500	0.151900	0.009700
C2401	C240	0.327000	0.133200	0.984500
C2411	C241	0.297900	0.158500	0.952300
C2421	C242	0.319900	0.203600	0.947200
C2431	C243	0.371900	0.221000	0.974300
C2441	C244	0.302900	0.087400	0.990000
C2451	C245	0.291500	0.231300	0.910800
C2461	C246	0.437400	0.727900	0.747600
C2471	C247	0.512600	0.661700	0.740800
C2481	C248	0.509800	0.706000	0.746900
C2491	C249	0.571400	0.732000	0.749400
C2501	C250	0.637700	0.711300	0.741600
C2511	C251	0.705100	0.737100	0.739900
C2521	C252	0.641400	0.664300	0.734400
C2531	C253	0.579000	0.639800	0.736500
C2541	C254	0.533600	0.566800	0.748600
C2551	C255	0.690000	0.197800	0.986400
C2561	C256	0.701300	0.155400	0.999800
C2571	C257	0.753100	0.129800	0.976000
C2581	C258	0.785300	0.146100	0.939600
C2591	C259	0.772600	0.190700	0.925900
C2601	C260	0.722600	0.214000	0.949300
C2611	C261	0.806200	0.207700	0.887800
C2621	C262	0.431800	0.245400	0.256700
C2631	C263	0.564200	0.238700	0.262100
C2641	C264	0.629800	0.238700	0.243300
C2651	C265	0.693500	0.228800	0.269300
C2661	C266	0.636200	0.241200	0.199300
C2671	C267	0.574600	0.247100	0.173700
C2681	C268	0.508800	0.249500	0.191900
C2691	C269	0.529100	0.249500	0.100300
C2701	C270	0.190400	0.367200	0.934000
C2711	C271	0.134900	0.355300	0.903400
C2721	C272	0.956800	0.352100	0.920800
C2731	C273	0.010400	0.345400	0.884800
C2741	C274	0.119000	0.444100	0.902700
C2751	C275	0.409500	0.111200	0.861200
C2761	C276	0.446800	0.155100	0.869800
C2771	C277	0.056200	0.415800	0.914200
C2781	C278	0.532300	0.204600	0.905000
C2791	C279	0.588200	0.215500	0.875500
C2801	C280	0.908000	0.267300	0.006200
C2811	C281	0.871900	0.348800	0.994000
C2821	C282	0.811600	0.339000	0.964900
C2831	C283	0.504500	0.244400	0.236600
C2841	C284	0.381600	0.542900	0.381700
C2851	C285	0.320500	0.571500	0.366600
C2861	C286	0.513700	0.548300	0.395600
C2871	C287	0.530400	0.578700	0.431800
C2881	C288	0.471100	0.600600	0.344200
C2891	C289	0.463000	0.577500	0.301400
C2901	C290	0.978500	0.324000	0.033000
C2911	C291	0.556300	0.117300	0.908700
C2921	C292	0.530600	0.115500	0.947200
C2931	C293	0.848900	0.254600	0.035700
C2941	C294	0.956900	0.334000	0.079600
C2951	C295	0.902400	0.507800	0.461800
C2961	C296	0.264900	0.917200	0.011400
C2971	C297	0.170000	0.512600	0.456100
C2981	C298	0.969800	0.507000	0.436700
C2991	C299	0.967100	0.502700	0.392700
C3001	C300	0.029900	0.501500	0.369800
C3011	C301	0.097100	0.502900	0.389600
C3021	C302	0.099500	0.510800	0.433700
C3031	C303	0.035500	0.510600	0.458400
C3041	C304	0.087300	0.492300	0.298800
C3051	C305	0.064400	0.478000	0.252600
C3061	C306	0.128800	0.480100	0.224800
C3071	C307	0.006100	0.510800	0.236100
C3081	C308	0.935000	0.519400	0.172700
C3091	C309	0.914300	0.502400	0.132300
C3101	C310	0.867400	0.526100	0.105700
C3111	C311	0.840900	0.565200	0.120700
C3121	C312	0.861400	0.582200	0.160700
C3131	C313	0.907500	0.560500	0.186700
C3141	C314	0.834100	0.624800	0.175300
C3151	C315	0.207100	0.543800	0.203200
C3161	C316	0.234300	0.581400	0.219300
C3171	C317	0.276000	0.605000	0.193700
C3181	C318	0.292200	0.590400	0.153300
C3191	C319	0.266200	0.551200	0.138200
C3201	C320	0.224900	0.526300	0.164500
C3211	C321	0.301800	0.649700	0.208500
C3221	C322	0.285200	0.534800	0.092900
C3231	C323	0.928600	0.527100	0.968400
C3241	C324	0.844800	0.505600	0.063800
C3251	C325	0.190900	0.544300	0.991400
C3261	C326	0.120500	0.563700	0.978600
C3271	C327	0.061200	0.536700	0.978000
C3281	C328	0.994300	0.555200	0.966100
C3291	C329	0.990400	0.599400	0.953700
C3301	C330	0.050000	0.625400	0.955200
C3311	C331	0.113700	0.608900	0.967300
C3321	C332	0.090200	0.702100	0.952400
C3331	C333	0.055800	0.746200	0.945400
C3341	C334	0.112600	0.783900	0.955500
C3351	C335	0.993600	0.751100	0.975700
C3361	C336	0.904300	0.806600	0.995500
C3371	C337	0.879500	0.848100	0.990300
C3381	C338	0.827000	0.866800	0.015500
C3391	C339	0.797900	0.841500	0.047700
C3401	C340	0.819900	0.796400	0.052800
C3411	C341	0.871900	0.779000	0.025700
C3421	C342	0.802900	0.912600	0.010000
C3431	C343	0.791500	0.768700	0.089200
C3441	C344	0.937400	0.272100	0.252400
C3451	C345	0.012600	0.338300	0.259200
C3461	C346	0.009800	0.294000	0.253100
C3471	C347	0.071400	0.268000	0.250600
C3481	C348	0.137700	0.288700	0.258400
C3491	C349	0.205100	0.262900	0.260100
C3501	C350	0.141400	0.335700	0.265600
C3511	C351	0.079000	0.360200	0.263500
C3521	C352	0.033600	0.433200	0.251400
C3531	C353	0.190000	0.802200	0.013600
C3541	C354	0.201300	0.844600	0.000200
C3551	C355	0.253100	0.870200	0.024000
C3561	C356	0.285300	0.853900	0.060400
C3571	C357	0.272600	0.809300	0.074100
C3581	C358	0.222600	0.786000	0.050700
C3591	C359	0.306200	0.792300	0.112200
C3601	C360	0.931800	0.754600	0.743300
C3611	C361	0.064200	0.761300	0.737900
C3621	C362	0.129800	0.761300	0.756700
C3631	C363	0.193500	0.771200	0.730700
C3641	C364	0.136200	0.758800	0.800700
C3651	C365	0.074600	0.752900	0.826300
C3661	C366	0.008800	0.750500	0.808100
C3671	C367	0.029100	0.750500	0.899700
C3681	C368	0.690400	0.632800	0.066000
C3691	C369	0.634900	0.644700	0.096600
C3701	C370	0.456800	0.647900	0.079200
C3711	C371	0.510400	0.654600	0.115200
C3721	C372	0.619000	0.555900	0.097300
C3731	C373	0.909500	0.888800	0.138800
C3741	C374	0.946800	0.844900	0.130200
C3751	C375	0.556200	0.584200	0.085800
C3761	C376	0.032300	0.795400	0.095000
C3771	C377	0.088200	0.784500	0.124500
C3781	C378	0.408000	0.732700	0.993800
C3791	C379	0.371900	0.651200	0.006000
C3801	C380	0.311600	0.661000	0.035100
C3811	C381	0.004500	0.755600	0.763400
C3821	C382	0.881600	0.457100	0.618300
C3831	C383	0.820500	0.428500	0.633400
C3841	C384	0.013700	0.451700	0.604400
C3851	C385	0.030400	0.421300	0.568200
C3861	C386	0.971100	0.399400	0.655800
C3871	C387	0.963000	0.422500	0.698600
C3881	C388	0.478500	0.676000	0.967000
C3891	C389	0.056300	0.882700	0.091300
C3901	C390	0.030600	0.884500	0.052800
C3911	C391	0.348900	0.745400	0.964300
C3921	C392	0.456900	0.666000	0.920400
N11	N1	0.443400	0.068700	0.122500
N21	N2	0.075800	0.870100	0.600800
N31	N3	0.501800	0.658500	0.606100
N41	N4	0.912100	0.816400	0.492800
N51	N5	0.943400	0.931300	0.877500
N61	N6	0.575800	0.129900	0.399200
N71	N7	0.001800	0.341500	0.393900
N81	N8	0.412100	0.183600	0.507200
N91	N9	0.443400	0.568700	0.377500
N101	N10	0.075800	0.370100	0.899200
N111	N11	0.501800	0.158500	0.893900
N121	N12	0.912100	0.316400	0.007200
N131	N13	0.943400	0.431300	0.622500
N141	N14	0.575800	0.629900	0.100800
N151	N15	0.001800	0.841500	0.106100
N161	N16	0.412100	0.683600	0.992800
O11	O1	0.409300	0.994330	0.002640
O21	O2	0.346500	0.991290	0.941010
O31	O3	0.380800	0.010900	0.098400
O41	O4	0.723000	0.989080	0.932890
O51	O5	0.194900	0.997400	0.903500
O61	O6	0.667000	0.987270	0.998250
O71	O7	0.804600	0.561500	0.538190
O81	O8	0.892600	0.887730	0.498640
O91	O9	0.736200	0.566670	0.478830
O101	O10	0.725700	0.088880	0.535280
O111	O11	0.355000	0.859220	0.710950
O121	O12	0.418700	0.688500	0.644600
O131	O13	0.287500	0.856260	0.651940
O141	O14	0.268300	0.659500	0.696000
O151	O15	0.263000	0.712170	0.619830
O161	O16	0.292300	0.771200	0.585150
O171	O17	0.158900	0.820300	0.611900
O181	O18	0.385000	0.205100	0.760110
O191	O19	0.435900	0.268400	0.747160
O201	O20	0.271200	0.567300	0.538680
O211	O21	0.326500	0.568350	0.474400
O221	O22	0.380400	0.745950	0.268480
O231	O23	0.427600	0.747680	0.202320
O241	O24	0.751600	0.722480	0.251620
O251	O25	0.688500	0.724790	0.189800
O261	O26	0.841300	0.684400	0.638100
O271	O27	0.801000	0.749200	0.619890
O281	O28	0.805300	0.844700	0.752100
O291	O29	0.814100	0.819960	0.682270
O301	O30	0.758200	0.001160	0.581390
O311	O31	0.824200	0.940040	0.570990
O321	O32	0.689400	0.996050	0.500410
O331	O33	0.743900	0.930790	0.491930
O341	O34	0.371000	0.952370	0.459910
O351	O35	0.435200	0.013170	0.477940
O361	O36	0.310300	0.966080	0.539400
O371	O37	0.362900	0.031590	0.554680
O381	O38	0.587500	0.096000	0.770650
O391	O39	0.461700	0.706030	0.469510
O401	O40	0.640200	0.725920	0.496230
O411	O41	0.538100	0.831580	0.442040
O421	O42	0.588200	0.751170	0.370910
O431	O43	0.658400	0.975800	0.732600
O441	O44	0.484700	0.005310	0.693920
O451	O45	0.521300	0.008680	0.825790
O461	O46	0.750400	0.227080	0.788170
O471	O47	0.713500	0.265400	0.732300
O481	O48	0.343700	0.770210	0.674830
O491	O49	0.909300	0.005670	0.997360
O501	O50	0.846500	0.008710	0.058990
O511	O51	0.880800	0.989100	0.901600
O521	O52	0.223000	0.010920	0.067110
O531	O53	0.694900	0.002600	0.096500
O541	O54	0.167000	0.012730	0.001750
O551	O55	0.304600	0.438500	0.461810
O561	O56	0.392600	0.112270	0.501360
O571	O57	0.236200	0.433330	0.521170
O581	O58	0.225700	0.911120	0.464720
O591	O59	0.855000	0.140780	0.289050
O601	O60	0.918700	0.311500	0.355400
O611	O61	0.787500	0.143740	0.348060
O621	O62	0.768300	0.340500	0.304000
O631	O63	0.763000	0.287830	0.380170
O641	O64	0.792300	0.228800	0.414850
O651	O65	0.658900	0.179700	0.388100
O661	O66	0.885000	0.794900	0.239890
O671	O67	0.935900	0.731600	0.252840
O681	O68	0.771200	0.432700	0.461320
O691	O69	0.826500	0.431650	0.525600
O701	O70	0.880400	0.254050	0.731520
O711	O71	0.927600	0.252320	0.797680
O721	O72	0.251600	0.277520	0.748380
O731	O73	0.188500	0.275210	0.810200
O741	O74	0.341300	0.315600	0.361900
O751	O75	0.301000	0.250800	0.380110
O761	O76	0.305300	0.155300	0.247900
O771	O77	0.314100	0.180040	0.317730
O781	O78	0.258200	0.998840	0.418610
O791	O79	0.324200	0.059960	0.429010
O801	O80	0.189400	0.003950	0.499590
O811	O81	0.243900	0.069210	0.508070
O821	O82	0.871000	0.047630	0.540090
O831	O83	0.935200	0.986830	0.522060
O841	O84	0.810300	0.033920	0.460600
O851	O85	0.862900	0.968410	0.445320
O861	O86	0.087500	0.904000	0.229350
O871	O87	0.961700	0.293970	0.530490
O881	O88	0.140200	0.274080	0.503770
O891	O89	0.038100	0.168420	0.557960
O901	O90	0.088200	0.248830	0.629090
O911	O91	0.158400	0.024200	0.267400
O921	O92	0.984700	0.994690	0.306080
O931	O93	0.021300	0.991320	0.174210
O941	O94	0.250400	0.772920	0.211830
O951	O95	0.213500	0.734600	0.267700
O961	O96	0.843700	0.229790	0.325170
O971	O97	0.409300	0.494330	0.497360
O981	O98	0.346500	0.491290	0.558990
O991	O99	0.380800	0.510900	0.401600
O1001	O100	0.723000	0.489080	0.567110
O1011	O101	0.194900	0.497400	0.596500
O1021	O102	0.667000	0.487270	0.501750
O1031	O103	0.804600	0.061500	0.961810
O1041	O104	0.892600	0.387730	0.001360
O1051	O105	0.736200	0.066670	0.021170
O1061	O106	0.725700	0.588880	0.964720
O1071	O107	0.355000	0.359220	0.789050
O1081	O108	0.418700	0.188500	0.855400
O1091	O109	0.287500	0.356260	0.848060
O1101	O110	0.268300	0.159500	0.804000
O1111	O111	0.263000	0.212170	0.880170
O1121	O112	0.292300	0.271200	0.914850
O1131	O113	0.158900	0.320300	0.888100
O1141	O114	0.385000	0.705100	0.739890
O1151	O115	0.435900	0.768400	0.752840
O1161	O116	0.271200	0.067300	0.961320
O1171	O117	0.326500	0.068350	0.025600
O1181	O118	0.380400	0.245950	0.231520
O1191	O119	0.427600	0.247680	0.297680
O1201	O120	0.751600	0.222480	0.248380
O1211	O121	0.688500	0.224790	0.310200
O1221	O122	0.841300	0.184400	0.861900
O1231	O123	0.801000	0.249200	0.880110
O1241	O124	0.805300	0.344700	0.747900
O1251	O125	0.814100	0.319960	0.817730
O1261	O126	0.758200	0.501160	0.918610
O1271	O127	0.824200	0.440040	0.929010
O1281	O128	0.689400	0.496050	0.999590
O1291	O129	0.743900	0.430790	0.008070
O1301	O130	0.371000	0.452370	0.040090
O1311	O131	0.435200	0.513170	0.022060
O1321	O132	0.310300	0.466080	0.960600
O1331	O133	0.362900	0.531590	0.945320
O1341	O134	0.587500	0.596000	0.729350
O1351	O135	0.461700	0.206030	0.030490
O1361	O136	0.640200	0.225920	0.003770
O1371	O137	0.538100	0.331580	0.057960
O1381	O138	0.588200	0.251170	0.129090
O1391	O139	0.658400	0.475800	0.767400
O1401	O140	0.484700	0.505310	0.806080
O1411	O141	0.521300	0.508680	0.674210
O1421	O142	0.750400	0.727080	0.711830
O1431	O143	0.713500	0.765400	0.767700
O1441	O144	0.343700	0.270210	0.825170
O1451	O145	0.909300	0.505670	0.502640
O1461	O146	0.846500	0.508710	0.441010
O1471	O147	0.880800	0.489100	0.598400
O1481	O148	0.223000	0.510920	0.432890
O1491	O149	0.694900	0.502600	0.403500
O1501	O150	0.167000	0.512730	0.498250
O1511	O151	0.304600	0.938500	0.038190
O1521	O152	0.392600	0.612270	0.998640
O1531	O153	0.236200	0.933330	0.978830
O1541	O154	0.225700	0.411120	0.035280
O1551	O155	0.855000	0.640780	0.210950
O1561	O156	0.918700	0.811500	0.144600
O1571	O157	0.787500	0.643740	0.151940
O1581	O158	0.768300	0.840500	0.196000
O1591	O159	0.763000	0.787830	0.119830
O1601	O160	0.792300	0.728800	0.085150
O1611	O161	0.658900	0.679700	0.111900
O1621	O162	0.885000	0.294900	0.260110
O1631	O163	0.935900	0.231600	0.247160
O1641	O164	0.771200	0.932700	0.038680
O1651	O165	0.826500	0.931650	0.974400
O1661	O166	0.880400	0.754050	0.768480
O1671	O167	0.927600	0.752320	0.702320
O1681	O168	0.251600	0.777520	0.751620
O1691	O169	0.188500	0.775210	0.689800
O1701	O170	0.341300	0.815600	0.138100
O1711	O171	0.301000	0.750800	0.119890
O1721	O172	0.305300	0.655300	0.252100
O1731	O173	0.314100	0.680040	0.182270
O1741	O174	0.258200	0.498840	0.081390
O1751	O175	0.324200	0.559960	0.070990
O1761	O176	0.189400	0.503950	0.000410
O1771	O177	0.243900	0.569210	0.991930
O1781	O178	0.871000	0.547630	0.959910
O1791	O179	0.935200	0.486830	0.977940
O1801	O180	0.810300	0.533920	0.039400
O1811	O181	0.862900	0.468410	0.054680
O1821	O182	0.087500	0.404000	0.270650
O1831	O183	0.961700	0.793970	0.969510
O1841	O184	0.140200	0.774080	0.996230
O1851	O185	0.038100	0.668420	0.942040
O1861	O186	0.088200	0.748830	0.870910
O1871	O187	0.158400	0.524200	0.232600
O1881	O188	0.984700	0.494690	0.193920
O1891	O189	0.021300	0.491320	0.325790
O1901	O190	0.250400	0.272920	0.288170
O1911	O191	0.213500	0.234600	0.232300
O1921	O192	0.843700	0.729790	0.174830
