data_WEMDID_freeONLY_PM
_symmetry_space_group_name_H-M	'P1'
_cell_length_a	9.716600
_cell_length_b	11.926000
_cell_length_c	12.380000
_cell_angle_alpha	90.000000
_cell_angle_beta	99.420000
_cell_angle_gamma	90.000000
_symmetry_Int_Tables_number 1

loop_
_symmetry_equiv_pos_as_xyz
'x,y,z'

loop_
_atom_site_label
_atom_site_type_symbol
_atom_site_fract_x
_atom_site_fract_y
_atom_site_fract_z
Nd11	Nd1	0.787120	0.518540	0.670740
Nd21	Nd2	0.712880	0.018540	0.829260
Nd31	Nd3	0.212880	0.481460	0.329260
Nd41	Nd4	0.287120	0.981460	0.170740
H11	H1	0.006500	0.586400	0.851500
H21	H2	0.014500	0.470200	0.853100
H31	H3	0.915400	0.524300	0.903300
H41	H4	0.493500	0.086400	0.648500
H51	H5	0.485500	0.970200	0.646900
H61	H6	0.584600	0.024300	0.596700
H71	H7	0.993500	0.413600	0.148500
H81	H8	0.985500	0.529800	0.146900
H91	H9	0.084600	0.475700	0.096700
H101	H10	0.506500	0.913600	0.351500
H111	H11	0.514500	0.029800	0.353100
H121	H12	0.415400	0.975700	0.403300
C11	C1	0.062500	0.501700	0.547200
C21	C2	0.494000	0.564200	0.498200
C31	C3	0.699200	0.749400	0.782200
C41	C4	0.798500	0.792900	0.704200
C51	C5	0.437500	0.001700	0.952800
C61	C6	0.006000	0.064200	0.001800
C71	C7	0.800800	0.249400	0.717800
C81	C8	0.701500	0.292900	0.795800
C91	C9	0.937500	0.498300	0.452800
C101	C10	0.506000	0.435800	0.501800
C111	C11	0.300800	0.250600	0.217800
C121	C12	0.201500	0.207100	0.295800
C131	C13	0.562500	0.998300	0.047200
C141	C14	0.994000	0.935800	0.998200
C151	C15	0.199200	0.750600	0.282200
C161	C16	0.298500	0.707100	0.204200
O11	O1	0.181000	0.486800	0.523000
O21	O2	0.034600	0.518000	0.641200
O31	O3	0.399600	0.606300	0.429900
O41	O4	0.581100	0.618300	0.565300
O51	O5	0.694900	0.645800	0.796600
O61	O6	0.632300	0.822000	0.825700
O71	O7	0.859000	0.719500	0.656100
O81	O8	0.810200	0.896600	0.696300
O91	O9	0.959600	0.526000	0.849500
O101	O10	0.319000	0.986800	0.977000
O111	O11	0.465400	0.018000	0.858800
O121	O12	0.100400	0.106300	0.070100
O131	O13	0.918900	0.118300	0.934700
O141	O14	0.805100	0.145800	0.703400
O151	O15	0.867700	0.322000	0.674300
O161	O16	0.641000	0.219500	0.843900
O171	O17	0.689800	0.396600	0.803700
O181	O18	0.540400	0.026000	0.650500
O191	O19	0.819000	0.513200	0.477000
O201	O20	0.965400	0.482000	0.358800
O211	O21	0.600400	0.393700	0.570100
O221	O22	0.418900	0.381700	0.434700
O231	O23	0.305100	0.354200	0.203400
O241	O24	0.367700	0.178000	0.174300
O251	O25	0.141000	0.280500	0.343900
O261	O26	0.189800	0.103400	0.303700
O271	O27	0.040400	0.474000	0.150500
O281	O28	0.681000	0.013200	0.023000
O291	O29	0.534600	0.982000	0.141200
O301	O30	0.899600	0.893700	0.929900
O311	O31	0.081100	0.881700	0.065300
O321	O32	0.194900	0.854200	0.296600
O331	O33	0.132300	0.678000	0.325700
O341	O34	0.359000	0.780500	0.156100
O351	O35	0.310200	0.603400	0.196300
O361	O36	0.459600	0.974000	0.349500
