data_WEMDOJ_freeONLY_PM
_symmetry_space_group_name_H-M	'P1'
_cell_length_a	9.688500
_cell_length_b	11.817000
_cell_length_c	12.326000
_cell_angle_alpha	90.000000
_cell_angle_beta	99.260000
_cell_angle_gamma	90.000000
_symmetry_Int_Tables_number 1

loop_
_symmetry_equiv_pos_as_xyz
'x,y,z'

loop_
_atom_site_label
_atom_site_type_symbol
_atom_site_fract_x
_atom_site_fract_y
_atom_site_fract_z
Sm11	Sm1	0.786380	0.516450	0.669520
Sm21	Sm2	0.713620	0.016450	0.830480
Sm31	Sm3	0.213620	0.483550	0.330480
Sm41	Sm4	0.286380	0.983550	0.169520
H11	H1	0.913100	0.505000	0.900000
H21	H2	0.986500	0.590800	0.857700
H31	H3	0.022300	0.478600	0.844100
H41	H4	0.586900	0.005000	0.600000
H51	H5	0.513500	0.090800	0.642300
H61	H6	0.477700	0.978600	0.655900
H71	H7	0.086900	0.495000	0.100000
H81	H8	0.013500	0.409200	0.142300
H91	H9	0.977700	0.521400	0.155900
H101	H10	0.413100	0.995000	0.400000
H111	H11	0.486500	0.909200	0.357700
H121	H12	0.522300	0.021400	0.344100
C11	C1	0.495000	0.565200	0.499200
C21	C2	0.799900	0.246900	0.717400
C31	C3	0.699700	0.290500	0.794800
C41	C4	0.063200	0.500900	0.547600
C51	C5	0.005000	0.065200	0.000800
C61	C6	0.700100	0.746900	0.782600
C71	C7	0.800300	0.790500	0.705200
C81	C8	0.436800	0.000900	0.952400
C91	C9	0.505000	0.434800	0.500800
C101	C10	0.200100	0.753100	0.282600
C111	C11	0.300300	0.709500	0.205200
C121	C12	0.936800	0.499100	0.452400
C131	C13	0.995000	0.934800	0.999200
C141	C14	0.299900	0.253100	0.217400
C151	C15	0.199700	0.209500	0.294800
C161	C16	0.563200	0.999100	0.047600
O11	O1	0.583000	0.618200	0.565800
O21	O2	0.398900	0.607900	0.432200
O31	O3	0.866600	0.320310	0.673000
O41	O4	0.807000	0.142300	0.705000
O51	O5	0.640000	0.216600	0.843800
O61	O6	0.686200	0.395500	0.801100
O71	O7	0.033600	0.515100	0.642400
O81	O8	0.181400	0.487500	0.522500
O91	O9	0.955000	0.523900	0.847300
O101	O10	0.917000	0.118200	0.934200
O111	O11	0.101100	0.107900	0.067800
O121	O12	0.633400	0.820310	0.827000
O131	O13	0.693000	0.642300	0.795000
O141	O14	0.860000	0.716600	0.656200
O151	O15	0.813800	0.895500	0.698900
O161	O16	0.466400	0.015100	0.857600
O171	O17	0.318600	0.987500	0.977500
O181	O18	0.545000	0.023900	0.652700
O191	O19	0.417000	0.381800	0.434200
O201	O20	0.601100	0.392100	0.567800
O211	O21	0.133400	0.679690	0.327000
O221	O22	0.193000	0.857700	0.295000
O231	O23	0.360000	0.783400	0.156200
O241	O24	0.313800	0.604500	0.198900
O251	O25	0.966400	0.484900	0.357600
O261	O26	0.818600	0.512500	0.477500
O271	O27	0.045000	0.476100	0.152700
O281	O28	0.083000	0.881800	0.065800
O291	O29	0.898900	0.892100	0.932200
O301	O30	0.366600	0.179690	0.173000
O311	O31	0.307000	0.357700	0.205000
O321	O32	0.140000	0.283400	0.343800
O331	O33	0.186200	0.104500	0.301100
O341	O34	0.533600	0.984900	0.142400
O351	O35	0.681400	0.012500	0.022500
O361	O36	0.455000	0.976100	0.347300
