data_WENLAE_manual_PM
_symmetry_space_group_name_H-M	'P1'
_cell_length_a	9.199900
_cell_length_b	15.578000
_cell_length_c	22.142000
_cell_angle_alpha	102.860000
_cell_angle_beta	101.550000
_cell_angle_gamma	104.520000
_symmetry_Int_Tables_number 1

loop_
_symmetry_equiv_pos_as_xyz
'x,y,z'

loop_
_atom_site_label
_atom_site_type_symbol
_atom_site_fract_x
_atom_site_fract_y
_atom_site_fract_z
Dy11	Dy1	0.514110	0.862230	0.804320
Dy21	Dy2	0.029170	0.912850	0.857740
Dy31	Dy3	0.485890	0.137770	0.195680
Dy41	Dy4	0.970830	0.087150	0.142260
H11	H1	0.865600	0.833600	0.665600
H21	H2	0.742300	0.834300	0.566700
H31	H3	0.283000	0.918300	0.631100
H41	H4	0.665100	0.789600	0.452300
H51	H5	0.670200	0.892100	0.481200
H61	H6	0.679900	0.858500	0.410300
H71	H7	0.983700	0.849000	0.368100
H81	H8	0.967400	0.909800	0.280600
H91	H9	0.432500	0.010500	0.330500
H101	H10	0.451200	0.954700	0.418700
H111	H11	0.998600	0.665200	0.908500
H121	H12	0.936000	0.521500	0.925100
H131	H13	0.271600	0.461200	0.847200
H141	H14	0.334500	0.607900	0.831800
H151	H15	0.115600	0.260600	0.018900
H161	H16	0.510400	0.192000	0.028700
H171	H17	0.596900	0.299000	0.977000
H181	H18	0.675600	0.447200	0.965000
H191	H19	0.607900	0.373300	0.897300
H201	H20	0.615500	0.476700	0.903800
H211	H21	0.593500	0.564700	0.803700
H221	H22	0.989900	0.563700	0.705400
H231	H23	0.927400	0.698300	0.733700
H241	H24	0.949000	0.396600	0.649000
H251	H25	0.079000	0.444400	0.714300
H261	H26	0.005100	0.336400	0.691200
H271	H27	0.257500	0.271500	0.791600
H281	H28	0.225900	0.157400	0.842300
H291	H29	0.596600	0.098000	0.794400
H301	H30	0.622700	0.209300	0.741000
H311	H31	0.134400	0.166400	0.334400
H321	H32	0.257700	0.165700	0.433300
H331	H33	0.717000	0.081700	0.368900
H341	H34	0.334900	0.210400	0.547700
H351	H35	0.329800	0.107900	0.518800
H361	H36	0.320100	0.141500	0.589700
H371	H37	0.016300	0.151000	0.631900
H381	H38	0.032600	0.090200	0.719400
H391	H39	0.567500	0.989500	0.669500
H401	H40	0.548800	0.045300	0.581300
H411	H41	0.001400	0.334800	0.091500
H421	H42	0.064000	0.478500	0.074900
H431	H43	0.728400	0.538800	0.152800
H441	H44	0.665500	0.392100	0.168200
H451	H45	0.884400	0.739400	0.981100
H461	H46	0.489600	0.808000	0.971300
H471	H47	0.403100	0.701000	0.023000
H481	H48	0.324400	0.552800	0.035000
H491	H49	0.392100	0.626700	0.102700
H501	H50	0.384500	0.523300	0.096200
H511	H51	0.406500	0.435300	0.196300
H521	H52	0.010100	0.436300	0.294600
H531	H53	0.072600	0.301700	0.266300
H541	H54	0.051000	0.603400	0.351000
H551	H55	0.921000	0.555600	0.285700
H561	H56	0.994900	0.663600	0.308800
H571	H57	0.742500	0.728500	0.208400
H581	H58	0.774100	0.842600	0.157700
H591	H59	0.403400	0.902000	0.205600
H601	H60	0.377300	0.790700	0.259000
C11	C1	0.168400	0.876700	0.724200
C21	C2	0.090400	0.878600	0.659100
C31	C3	0.923800	0.851300	0.638200
C41	C4	0.850700	0.851200	0.579400
C51	C5	0.936000	0.876300	0.536700
C61	C6	0.099000	0.902100	0.556400
C71	C7	0.174700	0.902100	0.618200
C81	C8	0.708900	0.852700	0.453000
C91	C9	0.217400	0.895300	0.402200
C101	C10	0.074400	0.882100	0.360700
C111	C11	0.064300	0.918000	0.307700
C121	C12	0.199400	0.965400	0.296200
C131	C13	0.341700	0.978100	0.338200
C141	C14	0.354100	0.944700	0.391100
C151	C15	0.190800	0.004300	0.240000
C161	C16	0.205700	0.746200	0.855800
C171	C17	0.172300	0.651000	0.869200
C181	C18	0.053700	0.624700	0.896400
C191	C19	0.015700	0.538800	0.906100
C201	C20	0.096000	0.477600	0.887500
C211	C21	0.217300	0.502100	0.859500
C221	C22	0.254200	0.589800	0.850500
C231	C23	0.261500	0.330600	0.979000
C241	C24	0.212300	0.268400	0.010300
C251	C25	0.305500	0.215500	0.030200
C261	C26	0.448300	0.227300	0.016500
C271	C27	0.499500	0.291000	0.984900
C281	C28	0.407900	0.343400	0.964500
C291	C29	0.251800	0.152700	0.067700
C301	C30	0.598800	0.428100	0.924300
C311	C31	0.704500	0.729700	0.789600
C321	C32	0.753600	0.644100	0.771600
C331	C33	0.673800	0.564400	0.784100
C341	C34	0.715200	0.485200	0.767100
C351	C35	0.834500	0.484200	0.736600
C361	C36	0.910100	0.564100	0.725300
C371	C37	0.873700	0.645000	0.741900
C381	C38	0.984900	0.394200	0.692200
C391	C39	0.445300	0.251400	0.762800
C401	C40	0.324600	0.235700	0.792300
C411	C41	0.305500	0.167900	0.822200
C421	C42	0.406900	0.113600	0.822500
C431	C43	0.527000	0.132100	0.793000
C441	C44	0.544900	0.199300	0.762000
C451	C45	0.390000	0.038400	0.856100
C461	C46	0.831600	0.123300	0.275800
C471	C47	0.909600	0.121400	0.340900
C481	C48	0.076200	0.148700	0.361800
C491	C49	0.149300	0.148800	0.420600
C501	C50	0.064000	0.123700	0.463300
C511	C51	0.901000	0.097900	0.443600
C521	C52	0.825300	0.097900	0.381800
C531	C53	0.291100	0.147300	0.547000
C541	C54	0.782600	0.104700	0.597800
C551	C55	0.925600	0.117900	0.639300
C561	C56	0.935700	0.082000	0.692300
C571	C57	0.800600	0.034600	0.703800
C581	C58	0.658300	0.021900	0.661800
C591	C59	0.645900	0.055300	0.608900
C601	C60	0.809200	0.995700	0.760000
C611	C61	0.794300	0.253800	0.144200
C621	C62	0.827700	0.349000	0.130800
C631	C63	0.946300	0.375300	0.103600
C641	C64	0.984300	0.461200	0.093900
C651	C65	0.904000	0.522400	0.112500
C661	C66	0.782700	0.497900	0.140500
C671	C67	0.745800	0.410200	0.149500
C681	C68	0.738500	0.669400	0.021000
C691	C69	0.787700	0.731600	0.989700
C701	C70	0.694500	0.784500	0.969800
C711	C71	0.551700	0.772700	0.983500
C721	C72	0.500500	0.709000	0.015100
C731	C73	0.592100	0.656600	0.035500
C741	C74	0.748200	0.847300	0.932300
C751	C75	0.401200	0.571900	0.075700
C761	C76	0.295500	0.270300	0.210400
C771	C77	0.246400	0.355900	0.228400
C781	C78	0.326200	0.435600	0.215900
C791	C79	0.284800	0.514800	0.232900
C801	C80	0.165500	0.515800	0.263400
C811	C81	0.089900	0.435900	0.274700
C821	C82	0.126300	0.355000	0.258100
C831	C83	0.015100	0.605800	0.307800
C841	C84	0.554700	0.748600	0.237200
C851	C85	0.675400	0.764300	0.207700
C861	C86	0.694500	0.832100	0.177800
C871	C87	0.593100	0.886400	0.177500
C881	C88	0.473000	0.867900	0.207000
C891	C89	0.455100	0.800700	0.238000
C901	C90	0.610000	0.961600	0.143900
S11	S1	0.228800	0.851100	0.467850
S21	S2	0.049300	0.367800	0.900190
S31	S3	0.475000	0.343800	0.729280
S41	S4	0.771200	0.148900	0.532150
S51	S5	0.950700	0.632200	0.099810
S61	S6	0.525000	0.656200	0.270720
O11	O1	0.088100	0.859900	0.762500
O21	O2	0.315700	0.893500	0.738400
O31	O3	0.877100	0.879700	0.475900
O41	O4	0.185700	0.928200	0.515100
O51	O5	0.107700	0.764800	0.452300
O61	O6	0.386900	0.856800	0.495500
O71	O7	0.058500	0.001300	0.209000
O81	O8	0.316400	0.036000	0.226500
O91	O9	0.129100	0.794900	0.875300
O101	O10	0.309700	0.765600	0.826500
O111	O11	0.900900	0.347900	0.913600
O121	O12	0.079800	0.301800	0.853200
O131	O13	0.178300	0.391800	0.967100
O141	O14	0.499700	0.003200	0.865600
O151	O15	0.267400	0.017100	0.873400
O161	O16	0.117500	0.142500	0.074700
O171	O17	0.345900	0.113600	0.093300
O181	O18	0.359700	0.390500	0.736100
O191	O19	0.638200	0.406000	0.780500
O201	O20	0.571200	0.719200	0.801800
O211	O21	0.445700	0.409200	0.934100
O221	O22	0.789100	0.807200	0.791600
O231	O23	0.868200	0.401800	0.725100
O241	O24	0.500200	0.317000	0.668100
O251	O25	0.911900	0.140100	0.237500
O261	O26	0.684300	0.106500	0.261600
O271	O27	0.122900	0.120300	0.524100
O281	O28	0.814300	0.071800	0.484900
O291	O29	0.892300	0.235200	0.547700
O301	O30	0.613100	0.143200	0.504500
O311	O31	0.941500	0.998700	0.791000
O321	O32	0.683600	0.964000	0.773500
O331	O33	0.870900	0.205100	0.124700
O341	O34	0.690300	0.234400	0.173500
O351	O35	0.099100	0.652100	0.086400
O361	O36	0.920200	0.698200	0.146800
O371	O37	0.821700	0.608200	0.032900
O381	O38	0.500300	0.996800	0.134400
O391	O39	0.732600	0.982900	0.126600
O401	O40	0.882500	0.857500	0.925300
O411	O41	0.654100	0.886400	0.906700
O421	O42	0.640300	0.609500	0.263900
O431	O43	0.361800	0.594000	0.219500
O441	O44	0.428800	0.280800	0.198200
O451	O45	0.554300	0.590800	0.065900
O461	O46	0.210900	0.192800	0.208400
O471	O47	0.131800	0.598200	0.274900
O481	O48	0.499800	0.683000	0.331900
