data_WEVQIX_freeONLY_PM
_symmetry_space_group_name_H-M	'P1'
_cell_length_a	14.595000
_cell_length_b	14.595000
_cell_length_c	15.267000
_cell_angle_alpha	90.000000
_cell_angle_beta	90.000000
_cell_angle_gamma	120.000000
_symmetry_Int_Tables_number 1

loop_
_symmetry_equiv_pos_as_xyz
'x,y,z'

loop_
_atom_site_label
_atom_site_type_symbol
_atom_site_fract_x
_atom_site_fract_y
_atom_site_fract_z
Y11	Y1	0.333330	0.666660	0.250000
Y21	Y2	0.666670	0.333340	0.250000
Y31	Y3	0.666670	0.333340	0.750000
Y41	Y4	0.333330	0.666660	0.750000
Cu11	Cu1	0.500000	0.500000	0.000000
Cu21	Cu2	0.000000	0.500000	0.000000
Cu31	Cu3	0.500000	0.000000	0.000000
Cu41	Cu4	0.000000	0.500000	0.500000
Cu51	Cu5	0.500000	0.500000	0.500000
Cu61	Cu6	0.500000	0.000000	0.500000
H11	H1	0.796500	0.162300	0.839600
H21	H2	0.716800	0.087300	0.768000
H31	H3	0.365800	0.203500	0.839600
H41	H4	0.370500	0.283200	0.768000
H51	H5	0.837700	0.634200	0.839600
H61	H6	0.912700	0.629500	0.768000
H71	H7	0.203500	0.837700	0.839600
H81	H8	0.283200	0.912700	0.768000
H91	H9	0.634200	0.796500	0.839600
H101	H10	0.629500	0.716800	0.768000
H111	H11	0.162300	0.365800	0.839600
H121	H12	0.087300	0.370500	0.768000
H131	H13	0.634200	0.837700	0.660400
H141	H14	0.629500	0.912700	0.732000
H151	H15	0.162300	0.796500	0.660400
H161	H16	0.087300	0.716800	0.732000
H171	H17	0.203500	0.365800	0.660400
H181	H18	0.283200	0.370500	0.732000
H191	H19	0.365800	0.162300	0.660400
H201	H20	0.370500	0.087300	0.732000
H211	H21	0.837700	0.203500	0.660400
H221	H22	0.912700	0.283200	0.732000
H231	H23	0.796500	0.634200	0.660400
H241	H24	0.716800	0.629500	0.732000
H251	H25	0.203500	0.837700	0.160400
H261	H26	0.283200	0.912700	0.232000
H271	H27	0.634200	0.796500	0.160400
H281	H28	0.629500	0.716800	0.232000
H291	H29	0.162300	0.365800	0.160400
H301	H30	0.087300	0.370500	0.232000
H311	H31	0.796500	0.162300	0.160400
H321	H32	0.716800	0.087300	0.232000
H331	H33	0.365800	0.203500	0.160400
H341	H34	0.370500	0.283200	0.232000
H351	H35	0.837700	0.634200	0.160400
H361	H36	0.912700	0.629500	0.232000
H371	H37	0.365800	0.162300	0.339600
H381	H38	0.370500	0.087300	0.268000
H391	H39	0.837700	0.203500	0.339600
H401	H40	0.912700	0.283200	0.268000
H411	H41	0.796500	0.634200	0.339600
H421	H42	0.716800	0.629500	0.268000
H431	H43	0.634200	0.837700	0.339600
H441	H44	0.629500	0.912700	0.268000
H451	H45	0.162300	0.796500	0.339600
H461	H46	0.087300	0.716800	0.268000
H471	H47	0.203500	0.365800	0.339600
H481	H48	0.283200	0.370500	0.268000
C11	C1	0.131100	0.644800	0.361100
C21	C2	0.850500	0.263500	0.696400
C31	C3	0.513700	0.868900	0.361100
C41	C4	0.413000	0.149500	0.696400
C51	C5	0.355200	0.486300	0.361100
C61	C6	0.736500	0.587000	0.696400
C71	C7	0.868900	0.355200	0.361100
C81	C8	0.149500	0.736500	0.696400
C91	C9	0.486300	0.131100	0.361100
C101	C10	0.587000	0.850500	0.696400
C111	C11	0.644800	0.513700	0.361100
C121	C12	0.263500	0.413000	0.696400
C131	C13	0.486300	0.355200	0.138900
C141	C14	0.587000	0.736500	0.803600
C151	C15	0.644800	0.131100	0.138900
C161	C16	0.263500	0.850500	0.803600
C171	C17	0.868900	0.513700	0.138900
C181	C18	0.149500	0.413000	0.803600
C191	C19	0.513700	0.644800	0.138900
C201	C20	0.413000	0.263500	0.803600
C211	C21	0.355200	0.868900	0.138900
C221	C22	0.736500	0.149500	0.803600
C231	C23	0.131100	0.486300	0.138900
C241	C24	0.850500	0.587000	0.803600
C251	C25	0.868900	0.355200	0.638900
C261	C26	0.149500	0.736500	0.303600
C271	C27	0.486300	0.131100	0.638900
C281	C28	0.587000	0.850500	0.303600
C291	C29	0.644800	0.513700	0.638900
C301	C30	0.263500	0.413000	0.303600
C311	C31	0.131100	0.644800	0.638900
C321	C32	0.850500	0.263500	0.303600
C331	C33	0.513700	0.868900	0.638900
C341	C34	0.413000	0.149500	0.303600
C351	C35	0.355200	0.486300	0.638900
C361	C36	0.736500	0.587000	0.303600
C371	C37	0.513700	0.644800	0.861100
C381	C38	0.413000	0.263500	0.196400
C391	C39	0.355200	0.868900	0.861100
C401	C40	0.736500	0.149500	0.196400
C411	C41	0.131100	0.486300	0.861100
C421	C42	0.850500	0.587000	0.196400
C431	C43	0.486300	0.355200	0.861100
C441	C44	0.587000	0.736500	0.196400
C451	C45	0.644800	0.131100	0.861100
C461	C46	0.263500	0.850500	0.196400
C471	C47	0.868900	0.513700	0.861100
C481	C48	0.149500	0.413000	0.196400
O11	O1	0.196000	0.612300	0.354950
O21	O2	0.053600	0.610500	0.410500
O31	O3	0.416300	0.804000	0.354950
O41	O4	0.556900	0.946400	0.410500
O51	O5	0.387700	0.583700	0.354950
O61	O6	0.389500	0.443100	0.410500
O71	O7	0.804000	0.387700	0.354950
O81	O8	0.946400	0.389500	0.410500
O91	O9	0.583700	0.196000	0.354950
O101	O10	0.443100	0.053600	0.410500
O111	O11	0.612300	0.416300	0.354950
O121	O12	0.610500	0.556900	0.410500
O131	O13	0.583700	0.387700	0.145050
O141	O14	0.443100	0.389500	0.089500
O151	O15	0.612300	0.196000	0.145050
O161	O16	0.610500	0.053600	0.089500
O171	O17	0.804000	0.416300	0.145050
O181	O18	0.946400	0.556900	0.089500
O191	O19	0.416300	0.612300	0.145050
O201	O20	0.556900	0.610500	0.089500
O211	O21	0.387700	0.804000	0.145050
O221	O22	0.389500	0.946400	0.089500
O231	O23	0.196000	0.583700	0.145050
O241	O24	0.053600	0.443100	0.089500
O251	O25	0.804000	0.387700	0.645050
O261	O26	0.946400	0.389500	0.589500
O271	O27	0.583700	0.196000	0.645050
O281	O28	0.443100	0.053600	0.589500
O291	O29	0.612300	0.416300	0.645050
O301	O30	0.610500	0.556900	0.589500
O311	O31	0.196000	0.612300	0.645050
O321	O32	0.053600	0.610500	0.589500
O331	O33	0.416300	0.804000	0.645050
O341	O34	0.556900	0.946400	0.589500
O351	O35	0.387700	0.583700	0.645050
O361	O36	0.389500	0.443100	0.589500
O371	O37	0.416300	0.612300	0.854950
O381	O38	0.556900	0.610500	0.910500
O391	O39	0.387700	0.804000	0.854950
O401	O40	0.389500	0.946400	0.910500
O411	O41	0.196000	0.583700	0.854950
O421	O42	0.053600	0.443100	0.910500
O431	O43	0.583700	0.387700	0.854950
O441	O44	0.443100	0.389500	0.910500
O451	O45	0.612300	0.196000	0.854950
O461	O46	0.610500	0.053600	0.910500
O471	O47	0.804000	0.416300	0.854950
O481	O48	0.946400	0.556900	0.910500
O491	O49	0.763800	0.236200	0.750000
O501	O50	0.472400	0.236200	0.750000
O511	O51	0.763800	0.527600	0.750000
O521	O52	0.236200	0.763800	0.750000
O531	O53	0.527600	0.763800	0.750000
O541	O54	0.236200	0.472400	0.750000
O551	O55	0.236200	0.763800	0.250000
O561	O56	0.527600	0.763800	0.250000
O571	O57	0.236200	0.472400	0.250000
O581	O58	0.763800	0.236200	0.250000
O591	O59	0.472400	0.236200	0.250000
O601	O60	0.763800	0.527600	0.250000
