data_WEVZUT_freeONLY_PM
_symmetry_space_group_name_H-M	'P1'
_cell_length_a	14.333900
_cell_length_b	20.760000
_cell_length_c	21.507000
_cell_angle_alpha	69.992000
_cell_angle_beta	73.154000
_cell_angle_gamma	72.353000
_symmetry_Int_Tables_number 1

loop_
_symmetry_equiv_pos_as_xyz
'x,y,z'

loop_
_atom_site_label
_atom_site_type_symbol
_atom_site_fract_x
_atom_site_fract_y
_atom_site_fract_z
La11	La1	0.571380	0.885660	0.588070
La21	La2	0.878200	0.517040	0.612840
La31	La3	0.510100	0.910770	0.935920
La41	La4	0.433090	0.548900	0.132310
La51	La5	0.428620	0.114340	0.411930
La61	La6	0.121800	0.482960	0.387160
La71	La7	0.489900	0.089230	0.064080
La81	La8	0.566910	0.451100	0.867690
P11	P1	0.546290	0.939870	0.745220
P21	P2	0.332190	0.931230	0.827280
P31	P3	0.303600	0.997790	0.060170
P41	P4	0.369740	0.099790	0.925520
P51	P5	0.627220	0.068970	0.514990
P61	P6	0.679980	0.988440	0.411410
P71	P7	0.162380	0.459540	0.562220
P81	P8	0.077610	0.608270	0.490680
P91	P9	0.422360	0.750970	0.066890
P101	P10	0.621030	0.657420	0.097550
P111	P11	0.827120	0.382100	0.778940
P121	P12	0.666150	0.420520	0.699700
P131	P13	0.724040	0.705590	0.566180
P141	P14	0.847740	0.798890	0.575320
P151	P15	0.634380	0.541780	0.971540
P161	P16	0.653550	0.407810	0.091590
P171	P17	0.453710	0.060130	0.254780
P181	P18	0.667810	0.068770	0.172720
P191	P19	0.696400	0.002210	0.939830
P201	P20	0.630260	0.900210	0.074480
P211	P21	0.372780	0.931030	0.485010
P221	P22	0.320020	0.011560	0.588590
P231	P23	0.837620	0.540460	0.437780
P241	P24	0.922390	0.391730	0.509320
P251	P25	0.577640	0.249030	0.933110
P261	P26	0.378970	0.342580	0.902450
P271	P27	0.172880	0.617900	0.221060
P281	P28	0.333850	0.579480	0.300300
P291	P29	0.275960	0.294410	0.433820
P301	P30	0.152260	0.201110	0.424680
P311	P31	0.365620	0.458220	0.028460
P321	P32	0.346450	0.592190	0.908410
H11	H1	0.333800	0.055800	0.798300
H21	H2	0.439500	0.045700	0.793500
H31	H3	0.251100	0.045200	0.910500
H41	H4	0.225400	0.992800	0.973000
H51	H5	0.812600	0.949200	0.478100
H61	H6	0.804300	0.996900	0.515900
H71	H7	0.257900	0.597200	0.459100
H81	H8	0.296400	0.522200	0.477800
H91	H9	0.426000	0.690500	0.195500
H101	H10	0.522500	0.680700	0.209600
H111	H11	0.888600	0.328900	0.680500
H121	H12	0.806700	0.334600	0.651500
H131	H13	0.840100	0.836800	0.454700
H141	H14	0.746500	0.818800	0.464000
H151	H15	0.807500	0.417000	0.984300
H161	H16	0.821800	0.487900	0.956700
H171	H17	0.390400	0.991100	0.714800
H181	H18	0.429200	0.081500	0.634100
H191	H19	0.418400	0.192000	0.560400
H201	H20	0.376700	0.290800	0.601600
H211	H21	0.346200	0.274200	0.715500
H221	H22	0.216500	0.105700	0.002800
H231	H23	0.063000	0.128400	0.011500
H241	H24	0.900900	0.153000	0.999900
H251	H25	0.857400	0.107900	0.932200
H261	H26	0.975300	0.038400	0.874100
H271	H27	0.742400	0.079500	0.412800
H281	H28	0.883000	0.100100	0.375700
H291	H29	0.049400	0.103100	0.333700
H301	H30	0.174600	0.008000	0.374400
H311	H31	0.130100	0.913000	0.454000
H321	H32	0.165900	0.564300	0.578300
H331	H33	0.297500	0.552900	0.616800
H341	H34	0.443100	0.564200	0.633900
H351	H35	0.575500	0.588600	0.546200
H361	H36	0.566200	0.598700	0.442200
H371	H37	0.544900	0.771500	0.104600
H381	H38	0.451100	0.852500	0.150300
H391	H39	0.387000	0.924600	0.220800
H401	H40	0.334300	0.878800	0.336600
H411	H41	0.336700	0.760900	0.379000
H421	H42	0.729700	0.313800	0.773600
H431	H43	0.802700	0.203400	0.796000
H441	H44	0.861600	0.088100	0.794400
H451	H45	0.955100	0.059100	0.694400
H461	H46	0.981600	0.148800	0.599200
H471	H47	0.889800	0.714500	0.516500
H481	H48	0.899000	0.680000	0.425700
H491	H49	0.946800	0.667900	0.318100
H501	H50	0.922700	0.766600	0.225200
H511	H51	0.847200	0.874800	0.245000
H521	H52	0.717700	0.506800	0.059300
H531	H53	0.992100	0.411600	0.936400
H541	H54	0.136500	0.378000	0.978700
H551	H55	0.126700	0.379800	0.087700
H561	H56	0.972500	0.415100	0.154400
H571	H57	0.605500	0.003700	0.658500
H581	H58	0.386500	0.828400	0.838600
H591	H59	0.172900	0.012900	0.125700
H601	H60	0.667900	0.150300	0.520800
H611	H61	0.232300	0.420900	0.640100
H621	H62	0.336000	0.843000	0.081800
H631	H63	0.732000	0.679800	0.119500
H641	H64	0.869400	0.306300	0.859500
H651	H65	0.732000	0.649300	0.504600
H661	H66	0.873300	0.756500	0.668900
H671	H67	0.653500	0.637100	0.912300
H681	H68	0.574200	0.400500	0.032200
H691	H69	0.666200	0.944200	0.201700
H701	H70	0.560500	0.954300	0.206500
H711	H71	0.748900	0.954800	0.089500
H721	H72	0.774600	0.007200	0.027000
H731	H73	0.187400	0.050800	0.521900
H741	H74	0.195700	0.003100	0.484100
H751	H75	0.742100	0.402800	0.540900
H761	H76	0.703600	0.477800	0.522200
H771	H77	0.574000	0.309500	0.804500
H781	H78	0.477500	0.319300	0.790400
H791	H79	0.111400	0.671100	0.319500
H801	H80	0.193300	0.665400	0.348500
H811	H81	0.159900	0.163200	0.545300
H821	H82	0.253500	0.181200	0.536000
H831	H83	0.192500	0.583000	0.015700
H841	H84	0.178200	0.512100	0.043300
H851	H85	0.609600	0.008900	0.285200
H861	H86	0.570800	0.918500	0.365900
H871	H87	0.581600	0.808000	0.439600
H881	H88	0.623300	0.709200	0.398400
H891	H89	0.653800	0.725800	0.284500
H901	H90	0.783500	0.894300	0.997200
H911	H91	0.937000	0.871600	0.988500
H921	H92	0.099100	0.847000	0.000100
H931	H93	0.142600	0.892100	0.067800
H941	H94	0.024700	0.961600	0.125900
H951	H95	0.257600	0.920500	0.587200
H961	H96	0.117000	0.899900	0.624300
H971	H97	0.950600	0.896900	0.666300
H981	H98	0.825400	0.992000	0.625600
H991	H99	0.869900	0.087000	0.546000
H1001	H100	0.834100	0.435700	0.421700
H1011	H101	0.702500	0.447100	0.383200
H1021	H102	0.556900	0.435800	0.366100
H1031	H103	0.424500	0.411400	0.453800
H1041	H104	0.433800	0.401300	0.557800
H1051	H105	0.455100	0.228500	0.895400
H1061	H106	0.548900	0.147500	0.849700
H1071	H107	0.613000	0.075400	0.779200
H1081	H108	0.665700	0.121200	0.663400
H1091	H109	0.663300	0.239100	0.621000
H1101	H110	0.270300	0.686200	0.226400
H1111	H111	0.197300	0.796600	0.204000
H1121	H112	0.138400	0.911900	0.205600
H1131	H113	0.044900	0.940900	0.305600
H1141	H114	0.018400	0.851200	0.400800
H1151	H115	0.110200	0.285500	0.483500
H1161	H116	0.101000	0.320000	0.574300
H1171	H117	0.053200	0.332100	0.681900
H1181	H118	0.077300	0.233400	0.774800
H1191	H119	0.152800	0.125200	0.755000
H1201	H120	0.282300	0.493200	0.940700
H1211	H121	0.007900	0.588400	0.063600
H1221	H122	0.863500	0.622000	0.021300
H1231	H123	0.873300	0.620200	0.912300
H1241	H124	0.027500	0.584900	0.845600
H1251	H125	0.394500	0.996300	0.341500
H1261	H126	0.613500	0.171600	0.161400
H1271	H127	0.827100	0.987100	0.874300
H1281	H128	0.332100	0.849700	0.479200
H1291	H129	0.767700	0.579100	0.359900
H1301	H130	0.664000	0.157000	0.918200
H1311	H131	0.268000	0.320200	0.880500
H1321	H132	0.130600	0.693700	0.140500
H1331	H133	0.268000	0.350700	0.495400
H1341	H134	0.126700	0.243500	0.331100
H1351	H135	0.346500	0.362900	0.087700
H1361	H136	0.425800	0.599500	0.967800
C11	C1	0.412200	0.982800	0.756600
C21	C2	0.394200	0.111800	0.720900
C31	C3	0.412700	0.120500	0.650300
C41	C4	0.406200	0.186200	0.606700
C51	C5	0.381100	0.245800	0.631200
C61	C6	0.363600	0.235500	0.698600
C71	C7	0.264700	0.066600	0.987300
C81	C8	0.120400	0.062100	0.949300
C91	C9	0.046200	0.108800	0.984400
C101	C10	0.950300	0.123600	0.976600
C111	C11	0.923700	0.096900	0.936100
C121	C12	0.993000	0.055500	0.902700
C131	C13	0.723900	0.038400	0.448500
C141	C14	0.907200	0.001300	0.442300
C151	C15	0.932700	0.062100	0.391800
C161	C16	0.032000	0.063600	0.367000
C171	C17	0.107500	0.006700	0.391000
C181	C18	0.080600	0.951000	0.437800
C191	C19	0.174600	0.550300	0.537500
C201	C20	0.346600	0.568200	0.513900
C211	C21	0.351000	0.561800	0.580800
C221	C22	0.438200	0.569100	0.590300
C231	C23	0.518200	0.583500	0.538100
C241	C24	0.511900	0.589500	0.477500
C251	C25	0.517700	0.729800	0.116600
C261	C26	0.434600	0.760900	0.224600
C271	C27	0.429200	0.833800	0.196500
C281	C28	0.390900	0.876500	0.238800
C291	C29	0.357700	0.849600	0.308200
C301	C30	0.360600	0.779600	0.333100
C311	C31	0.763300	0.348900	0.738400
C321	C32	0.859300	0.244800	0.695900
C331	C33	0.839200	0.192000	0.756200
C341	C34	0.874500	0.123700	0.754900
C351	C35	0.929900	0.105700	0.695200
C361	C36	0.944700	0.159000	0.639400
C371	C37	0.828300	0.750200	0.524800
C381	C38	0.844300	0.786300	0.399600
C391	C39	0.888900	0.719400	0.389000
C401	C40	0.917400	0.712200	0.324800
C411	C41	0.902800	0.771000	0.269100
C421	C42	0.858400	0.835100	0.281200
C431	C43	0.710300	0.479900	0.032200
C441	C44	0.895800	0.433500	0.020100
C451	C45	0.988200	0.412300	0.980100
C461	C46	0.074700	0.392200	0.005500
C471	C47	0.068800	0.393200	0.070800
C481	C48	0.976400	0.414400	0.110700
C491	C49	0.587800	0.017200	0.243400
C501	C50	0.605800	0.888200	0.279100
C511	C51	0.587300	0.879500	0.349700
C521	C52	0.593800	0.813800	0.393300
C531	C53	0.618900	0.754200	0.368800
C541	C54	0.636400	0.764500	0.301400
C551	C55	0.735300	0.933400	0.012700
C561	C56	0.879600	0.937900	0.050700
C571	C57	0.953800	0.891200	0.015600
C581	C58	0.049700	0.876400	0.023400
C591	C59	0.076300	0.903100	0.063900
C601	C60	0.007000	0.944500	0.097300
C611	C61	0.276100	0.961600	0.551500
C621	C62	0.092800	0.998700	0.557700
C631	C63	0.067300	0.937900	0.608200
C641	C64	0.968000	0.936400	0.633000
C651	C65	0.892500	0.993300	0.609000
C661	C66	0.919400	0.049000	0.562200
C671	C67	0.825400	0.449700	0.462500
C681	C68	0.653400	0.431800	0.486100
C691	C69	0.649000	0.438200	0.419200
C701	C70	0.561800	0.430900	0.409700
C711	C71	0.481800	0.416500	0.461900
C721	C72	0.488100	0.410500	0.522500
C731	C73	0.482300	0.270200	0.883400
C741	C74	0.565400	0.239100	0.775400
C751	C75	0.570800	0.166200	0.803500
C761	C76	0.609100	0.123500	0.761200
C771	C77	0.642300	0.150400	0.691800
C781	C78	0.639400	0.220400	0.666900
C791	C79	0.236700	0.651100	0.261600
C801	C80	0.140700	0.755200	0.304100
C811	C81	0.160800	0.808000	0.243800
C821	C82	0.125500	0.876300	0.245100
C831	C83	0.070100	0.894300	0.304800
C841	C84	0.055300	0.841000	0.360600
C851	C85	0.171700	0.249800	0.475200
C861	C86	0.155700	0.213700	0.600400
C871	C87	0.111100	0.280600	0.611000
C881	C88	0.082600	0.287800	0.675200
C891	C89	0.097200	0.229000	0.730900
C901	C90	0.141600	0.164900	0.718800
C911	C91	0.289700	0.520100	0.967800
C921	C92	0.104200	0.566500	0.979900
C931	C93	0.011800	0.587700	0.019900
C941	C94	0.925300	0.607800	0.994500
C951	C95	0.931200	0.606800	0.929200
C961	C96	0.023600	0.585600	0.889300
N11	N1	0.393900	0.050300	0.770000
N21	N2	0.370700	0.170100	0.742300
N31	N3	0.215800	0.039600	0.953400
N41	N4	0.091300	0.037100	0.909200
N51	N5	0.813200	0.993800	0.473800
N61	N6	0.982700	0.947300	0.463300
N71	N7	0.271100	0.559700	0.494400
N81	N8	0.427400	0.583000	0.462700
N91	N9	0.474400	0.712800	0.189100
N101	N10	0.397600	0.736100	0.292000
N111	N11	0.831400	0.314900	0.689500
N121	N12	0.908600	0.225900	0.639500
N131	N13	0.813000	0.801200	0.459300
N141	N14	0.830500	0.841900	0.344700
N151	N15	0.811100	0.454000	0.995700
N161	N16	0.889900	0.434500	0.085400
N171	N17	0.606100	0.949700	0.230000
N181	N18	0.629300	0.829900	0.257700
N191	N19	0.784200	0.960400	0.046600
N201	N20	0.908700	0.962900	0.090800
N211	N21	0.186800	0.006200	0.526200
N221	N22	0.017300	0.052700	0.536700
N231	N23	0.728900	0.440300	0.505600
N241	N24	0.572600	0.417000	0.537300
N251	N25	0.525600	0.287200	0.810900
N261	N26	0.602400	0.263900	0.708000
N271	N27	0.168600	0.685100	0.310500
N281	N28	0.091400	0.774100	0.360500
N291	N29	0.187000	0.198800	0.540700
N301	N30	0.169500	0.158100	0.655300
N311	N31	0.188900	0.546000	0.004300
N321	N32	0.110100	0.565500	0.914600
O11	O1	0.600900	0.000700	0.698220
O21	O2	0.567300	0.884400	0.709500
O31	O3	0.574200	0.916900	0.813030
O41	O4	0.224500	0.967800	0.825500
O51	O5	0.355500	0.859300	0.811400
O61	O6	0.360600	0.922700	0.892180
O71	O7	0.359800	0.933240	0.036360
O81	O8	0.203200	0.980500	0.108800
O91	O9	0.354900	0.026300	0.092940
O101	O10	0.324900	0.160700	0.871170
O111	O11	0.422400	0.122400	0.963380
O121	O12	0.432300	0.037980	0.898040
O131	O13	0.608900	0.004030	0.571950
O141	O14	0.541100	0.115740	0.483110
O151	O15	0.674800	0.109000	0.543340
O161	O16	0.588400	0.035780	0.385030
O171	O17	0.658900	0.923610	0.468550
O181	O18	0.767600	0.968840	0.355820
O191	O19	0.247700	0.414500	0.602500
O201	O20	0.060800	0.456370	0.605100
O211	O21	0.189800	0.437180	0.498100
O221	O22	0.103100	0.585940	0.426300
O231	O23	0.090300	0.682160	0.475500
O241	O24	0.977400	0.597270	0.534700
O251	O25	0.330200	0.802200	0.099800
O261	O26	0.391400	0.683960	0.078980
O271	O27	0.461600	0.790310	0.995630
O281	O28	0.584000	0.590470	0.126400
O291	O29	0.699700	0.649400	0.139200
O301	O30	0.663700	0.678000	0.022640
O311	O31	0.749400	0.417600	0.827700
O321	O32	0.893300	0.425700	0.724200
O331	O33	0.896500	0.316200	0.819400
O341	O34	0.710800	0.484400	0.663300
O351	O35	0.639400	0.393300	0.650900
O361	O36	0.580600	0.428400	0.759500
O371	O37	0.698500	0.688200	0.507900
O381	O38	0.634800	0.758800	0.589800
O391	O39	0.759000	0.638060	0.617110
O401	O40	0.757200	0.856600	0.584300
O411	O41	0.860500	0.740400	0.643300
O421	O42	0.942900	0.824600	0.541900
O431	O43	0.530000	0.561700	0.011540
O441	O44	0.684200	0.607100	0.940200
O451	O45	0.645500	0.509200	0.916800
O461	O46	0.562700	0.441500	0.135100
O471	O47	0.623000	0.373900	0.047100
O481	O48	0.731400	0.353400	0.125900
O491	O49	0.449700	0.810500	0.683900
O501	O50	0.920100	0.577400	0.688700
O511	O51	0.662800	0.803900	0.920400
O521	O52	0.384900	0.443000	0.236200
O531	O53	0.399100	0.999300	0.301780
O541	O54	0.432700	0.115600	0.290500
O551	O55	0.425800	0.083100	0.186970
O561	O56	0.775500	0.032200	0.174500
O571	O57	0.644500	0.140700	0.188600
O581	O58	0.639400	0.077300	0.107820
O591	O59	0.640200	0.066760	0.963640
O601	O60	0.796800	0.019500	0.891200
O611	O61	0.645100	0.973700	0.907060
O621	O62	0.675100	0.839300	0.128830
O631	O63	0.577600	0.877600	0.036620
O641	O64	0.567700	0.962020	0.101960
O651	O65	0.391100	0.995970	0.428050
O661	O66	0.458900	0.884260	0.516890
O671	O67	0.325200	0.891000	0.456660
O681	O68	0.411600	0.964220	0.614970
O691	O69	0.341100	0.076390	0.531450
O701	O70	0.232400	0.031160	0.644180
O711	O71	0.752300	0.585500	0.397500
O721	O72	0.939200	0.543630	0.394900
O731	O73	0.810200	0.562820	0.501900
O741	O74	0.896900	0.414060	0.573700
O751	O75	0.909700	0.317840	0.524500
O761	O76	0.022600	0.402730	0.465300
O771	O77	0.669800	0.197800	0.900200
O781	O78	0.608600	0.316040	0.921020
O791	O79	0.538400	0.209690	0.004370
O801	O80	0.416000	0.409530	0.873600
O811	O81	0.300300	0.350600	0.860800
O821	O82	0.336300	0.322000	0.977360
O831	O83	0.250600	0.582400	0.172300
O841	O84	0.106700	0.574300	0.275800
O851	O85	0.103500	0.683800	0.180600
O861	O86	0.289200	0.515600	0.336700
O871	O87	0.360600	0.606700	0.349100
O881	O88	0.419400	0.571600	0.240500
O891	O89	0.301500	0.311800	0.492100
O901	O90	0.365200	0.241200	0.410200
O911	O91	0.241000	0.361940	0.382890
O921	O92	0.242800	0.143400	0.415700
O931	O93	0.139500	0.259600	0.356700
O941	O94	0.057100	0.175400	0.458100
O951	O95	0.470000	0.438300	0.988460
O961	O96	0.315800	0.392900	0.059800
O971	O97	0.354500	0.490800	0.083200
O981	O98	0.437300	0.558500	0.864900
O991	O99	0.377000	0.626100	0.952900
O1001	O100	0.268600	0.646600	0.874100
O1011	O101	0.550300	0.189500	0.316100
O1021	O102	0.079900	0.422600	0.311300
O1031	O103	0.337200	0.196100	0.079600
O1041	O104	0.615100	0.557000	0.763800
