data_WIBSAD_freeONLY_PM
_symmetry_space_group_name_H-M	'P1'
_cell_length_a	35.494500
_cell_length_b	35.494500
_cell_length_c	35.494500
_cell_angle_alpha	109.471000
_cell_angle_beta	109.471000
_cell_angle_gamma	109.471000
_symmetry_Int_Tables_number 1

loop_
_symmetry_equiv_pos_as_xyz
'x,y,z'

loop_
_atom_site_label
_atom_site_type_symbol
_atom_site_fract_x
_atom_site_fract_y
_atom_site_fract_z
Zn11	Zn1	0.406060	0.601850	0.655320
Zn21	Zn2	0.446540	0.750750	0.844680
Zn31	Zn3	0.053460	0.898140	0.304200
Zn41	Zn4	0.093940	0.749260	0.195800
Zn51	Zn5	0.804210	0.053470	0.398150
Zn61	Zn6	0.695790	0.093930	0.249250
Zn71	Zn7	0.155320	0.406060	0.101860
Zn81	Zn8	0.344680	0.446540	0.250740
Zn91	Zn9	0.750740	0.344680	0.946530
Zn101	Zn10	0.601860	0.155320	0.906070
Zn111	Zn11	0.749260	0.695800	0.593940
Zn121	Zn12	0.898140	0.804200	0.553460
Zn131	Zn13	0.250740	0.946530	0.344680
Zn141	Zn14	0.101860	0.906070	0.155320
Zn151	Zn15	0.249260	0.593940	0.695800
Zn161	Zn16	0.398140	0.553460	0.804200
Zn171	Zn17	0.906060	0.655320	0.601850
Zn181	Zn18	0.946540	0.844680	0.750750
Zn191	Zn19	0.553460	0.304200	0.898140
Zn201	Zn20	0.593940	0.195800	0.749260
Zn211	Zn21	0.304210	0.398150	0.053470
Zn221	Zn22	0.195790	0.249250	0.093930
Zn231	Zn23	0.655320	0.101860	0.406060
Zn241	Zn24	0.844680	0.250740	0.446540
Zn251	Zn25	0.500000	0.648520	0.500000
Zn261	Zn26	0.500000	0.480220	0.500000
Zn271	Zn27	0.648520	0.000000	0.000000
Zn281	Zn28	0.480220	0.000000	0.000000
Zn291	Zn29	0.851480	0.851480	0.351480
Zn301	Zn30	0.019780	0.019780	0.519780
Zn311	Zn31	0.000000	0.500000	0.148520
Zn321	Zn32	0.000000	0.500000	0.980220
Zn331	Zn33	0.500000	0.148520	0.500000
Zn341	Zn34	0.500000	0.980220	0.500000
Zn351	Zn35	0.148520	0.000000	0.000000
Zn361	Zn36	0.980220	0.000000	0.000000
Zn371	Zn37	0.000000	0.500000	0.648520
Zn381	Zn38	0.000000	0.500000	0.480220
Zn391	Zn39	0.351480	0.351480	0.851480
Zn401	Zn40	0.519780	0.519780	0.019780
Fe11	Fe1	0.379120	0.521980	0.499220
Fe21	Fe2	0.282270	0.467360	0.637450
Fe31	Fe3	0.522760	0.879900	0.000780
Fe41	Fe4	0.329910	0.644820	0.862550
Fe51	Fe5	0.977240	0.978020	0.357140
Fe61	Fe6	0.170090	0.032640	0.314910
Fe71	Fe7	0.120880	0.620100	0.142860
Fe81	Fe8	0.217730	0.855180	0.185090
Fe91	Fe9	0.857140	0.977240	0.478020
Fe101	Fe10	0.814910	0.170090	0.532640
Fe111	Fe11	0.642860	0.120880	0.120100
Fe121	Fe12	0.685090	0.217730	0.355180
Fe131	Fe13	0.999220	0.379120	0.021980
Fe141	Fe14	0.137450	0.282270	0.967360
Fe151	Fe15	0.500780	0.522760	0.379900
Fe161	Fe16	0.362550	0.329910	0.144820
Fe171	Fe17	0.879900	0.500780	0.022760
Fe181	Fe18	0.644820	0.362550	0.829910
Fe191	Fe19	0.521980	0.999220	0.879120
Fe201	Fe20	0.467360	0.137450	0.782270
Fe211	Fe21	0.620100	0.642860	0.620880
Fe221	Fe22	0.855180	0.685090	0.717730
Fe231	Fe23	0.978020	0.857140	0.477240
Fe241	Fe24	0.032640	0.814910	0.670090
Fe251	Fe25	0.379900	0.022760	0.500780
Fe261	Fe26	0.144820	0.829910	0.362550
Fe271	Fe27	0.021980	0.879120	0.999220
Fe281	Fe28	0.967360	0.782270	0.137450
Fe291	Fe29	0.120100	0.620880	0.642860
Fe301	Fe30	0.355180	0.717730	0.685090
Fe311	Fe31	0.478020	0.477240	0.857140
Fe321	Fe32	0.532640	0.670090	0.814910
Fe331	Fe33	0.879120	0.499220	0.521980
Fe341	Fe34	0.782270	0.637450	0.467360
Fe351	Fe35	0.022760	0.000780	0.879900
Fe361	Fe36	0.829910	0.862550	0.644820
Fe371	Fe37	0.477240	0.357140	0.978020
Fe381	Fe38	0.670090	0.314910	0.032640
Fe391	Fe39	0.620880	0.142860	0.620100
Fe401	Fe40	0.717730	0.185090	0.855180
Fe411	Fe41	0.357140	0.478020	0.977240
Fe421	Fe42	0.314910	0.532640	0.170090
Fe431	Fe43	0.142860	0.120100	0.120880
Fe441	Fe44	0.185090	0.355180	0.217730
Fe451	Fe45	0.499220	0.021980	0.379120
Fe461	Fe46	0.637450	0.967360	0.282270
Fe471	Fe47	0.000780	0.379900	0.522760
Fe481	Fe48	0.862550	0.144820	0.329910
B11	B1	0.217500	0.363300	0.564800
B21	B2	0.276200	0.454300	0.429700
B31	B3	0.298500	0.652700	0.935200
B41	B4	0.524600	0.846500	0.070300
B51	B5	0.201500	0.136700	0.354200
B61	B6	0.975400	0.045700	0.321900
B71	B7	0.282500	0.847300	0.145800
B81	B8	0.223800	0.653500	0.178100
B91	B9	0.854200	0.201500	0.636700
B101	B10	0.821900	0.975400	0.545700
B111	B11	0.645800	0.282500	0.347300
B121	B12	0.678100	0.223800	0.153500
B131	B13	0.064800	0.217500	0.863300
B141	B14	0.929700	0.276200	0.954300
B151	B15	0.435200	0.298500	0.152700
B161	B16	0.570300	0.524600	0.346500
B171	B17	0.652700	0.435200	0.798500
B181	B18	0.846500	0.570300	0.024600
B191	B19	0.363300	0.064800	0.717500
B201	B20	0.454300	0.929700	0.776200
B211	B21	0.847300	0.645800	0.782500
B221	B22	0.653500	0.678100	0.723800
B231	B23	0.136700	0.854200	0.701500
B241	B24	0.045700	0.821900	0.475400
B251	B25	0.152700	0.798500	0.435200
B261	B26	0.346500	0.024600	0.570300
B271	B27	0.863300	0.717500	0.064800
B281	B28	0.954300	0.776200	0.929700
B291	B29	0.347300	0.782500	0.645800
B301	B30	0.153500	0.723800	0.678100
B311	B31	0.636700	0.701500	0.854200
B321	B32	0.545700	0.475400	0.821900
B331	B33	0.717500	0.564800	0.363300
B341	B34	0.776200	0.429700	0.454300
B351	B35	0.798500	0.935200	0.652700
B361	B36	0.024600	0.070300	0.846500
B371	B37	0.701500	0.354200	0.136700
B381	B38	0.475400	0.321900	0.045700
B391	B39	0.782500	0.145800	0.847300
B401	B40	0.723800	0.178100	0.653500
B411	B41	0.354200	0.636700	0.201500
B421	B42	0.321900	0.545700	0.975400
B431	B43	0.145800	0.347300	0.282500
B441	B44	0.178100	0.153500	0.223800
B451	B45	0.564800	0.863300	0.217500
B461	B46	0.429700	0.954300	0.276200
B471	B47	0.935200	0.152700	0.298500
B481	B48	0.070300	0.346500	0.524600
H11	H1	0.196700	0.330200	0.541500
H21	H2	0.274000	0.319700	0.555500
H31	H3	0.358100	0.371800	0.606100
H41	H4	0.371000	0.450700	0.650700
H51	H5	0.157000	0.320500	0.595900
H61	H6	0.164100	0.373700	0.667400
H71	H7	0.228200	0.451500	0.694700
H81	H8	0.164200	0.354200	0.475800
H91	H9	0.181600	0.427800	0.474400
H101	H10	0.243400	0.490600	0.554800
H111	H11	0.243100	0.432400	0.407100
H121	H12	0.351100	0.607000	0.521100
H131	H13	0.244000	0.382100	0.454100
H141	H14	0.299300	0.392600	0.523500
H151	H15	0.372600	0.464500	0.555100
H161	H16	0.264700	0.411200	0.336100
H171	H17	0.337300	0.437600	0.333300
H181	H18	0.400600	0.491300	0.413500
H191	H19	0.288700	0.655200	0.958500
H201	H20	0.264200	0.718500	0.944500
H211	H21	0.265700	0.752000	0.893900
H221	H22	0.300000	0.720300	0.849300
H231	H23	0.224600	0.561100	0.904100
H241	H24	0.206300	0.496700	0.832600
H251	H25	0.256800	0.533500	0.805300
H261	H26	0.378400	0.688400	0.024200
H271	H27	0.453400	0.707200	0.025600
H281	H28	0.435800	0.688600	0.945200
H291	H29	0.525300	0.836000	0.092900
H301	H30	0.585900	0.830000	0.978900
H311	H31	0.428000	0.789900	0.045900
H321	H32	0.369100	0.775800	0.976500
H331	H33	0.409400	0.817500	0.944900
H341	H34	0.575100	0.928600	0.163900
H351	H35	0.604300	0.004000	0.166700
H361	H36	0.577800	0.987100	0.086500
H371	H37	0.211300	0.169800	0.366500
H381	H38	0.235800	0.180300	0.454300
H391	H39	0.234300	0.128200	0.486300
H401	H40	0.200000	0.049300	0.420300
H411	H41	0.275400	0.179500	0.336500
H421	H42	0.293700	0.126300	0.290400
H431	H43	0.243200	0.048500	0.276700
H441	H44	0.121600	0.145800	0.310000
H451	H45	0.046600	0.072200	0.253800
H461	H46	0.064200	0.009400	0.252800
H471	H47	0.974700	0.067600	0.310700
H481	H48	0.914100	0.893000	0.244100
H491	H49	0.072000	0.117900	0.361900
H501	H50	0.130900	0.107400	0.406700
H511	H51	0.090600	0.035500	0.408100
H521	H52	0.924900	0.088800	0.353500
H531	H53	0.895700	0.062400	0.399700
H541	H54	0.922200	0.008700	0.409300
H551	H55	0.303300	0.844800	0.133500
H561	H56	0.226000	0.781500	0.045700
H571	H57	0.141900	0.748000	0.013700
H581	H58	0.129000	0.779700	0.079700
H591	H59	0.343000	0.938900	0.163500
H601	H60	0.335900	0.003300	0.209600
H611	H61	0.271800	0.966500	0.223300
H621	H62	0.335800	0.811600	0.190000
H631	H63	0.318400	0.792800	0.246200
H641	H64	0.256600	0.811400	0.247200
H651	H65	0.256900	0.664000	0.189300
H661	H66	0.148900	0.670000	0.255900
H671	H67	0.256000	0.710100	0.138100
H681	H68	0.200700	0.724200	0.093300
H691	H69	0.127400	0.682500	0.091900
H701	H70	0.235300	0.571400	0.146500
H711	H71	0.162700	0.496000	0.100300
H721	H72	0.099400	0.512900	0.090700
H731	H73	0.866500	0.211300	0.669800
H741	H74	0.954300	0.235800	0.680300
H751	H75	0.986300	0.234300	0.628200
H761	H76	0.920300	0.200000	0.549300
H771	H77	0.836500	0.275400	0.679500
H781	H78	0.790400	0.293700	0.626300
H791	H79	0.776700	0.243200	0.548500
H801	H80	0.810000	0.121600	0.645800
H811	H81	0.753800	0.046600	0.572200
H821	H82	0.752800	0.064200	0.509400
H831	H83	0.810700	0.974700	0.567600
H841	H84	0.744100	0.914100	0.393000
H851	H85	0.861900	0.072000	0.617900
H861	H86	0.906700	0.130900	0.607400
H871	H87	0.908100	0.090600	0.535500
H881	H88	0.853500	0.924900	0.588800
H891	H89	0.899700	0.895700	0.562400
H901	H90	0.909300	0.922200	0.508700
H911	H91	0.633500	0.303300	0.344800
H921	H92	0.545700	0.226000	0.281500
H931	H93	0.513700	0.141900	0.248000
H941	H94	0.579700	0.129000	0.279700
H951	H95	0.663500	0.343000	0.438900
H961	H96	0.709600	0.335900	0.503300
H971	H97	0.723300	0.271800	0.466500
H981	H98	0.690000	0.335800	0.311600
H991	H99	0.746200	0.318400	0.292800
H1001	H100	0.747200	0.256600	0.311400
H1011	H101	0.689300	0.256900	0.164000
H1021	H102	0.755900	0.148900	0.170000
H1031	H103	0.638100	0.256000	0.210100
H1041	H104	0.593300	0.200700	0.224200
H1051	H105	0.591900	0.127400	0.182500
H1061	H106	0.646500	0.235300	0.071400
H1071	H107	0.600300	0.162700	0.996000
H1081	H108	0.590700	0.099400	0.012900
H1091	H109	0.041500	0.196700	0.830200
H1101	H110	0.055500	0.274000	0.819700
H1111	H111	0.106100	0.358100	0.871800
H1121	H112	0.150700	0.371000	0.950700
H1131	H113	0.095900	0.157000	0.820500
H1141	H114	0.167400	0.164100	0.873700
H1151	H115	0.194700	0.228200	0.951500
H1161	H116	0.975800	0.164200	0.854200
H1171	H117	0.974400	0.181600	0.927800
H1181	H118	0.054800	0.243400	0.990600
H1191	H119	0.907100	0.243100	0.932400
H1201	H120	0.021100	0.351100	0.107000
H1211	H121	0.954100	0.244000	0.882100
H1221	H122	0.023500	0.299300	0.892600
H1231	H123	0.055100	0.372600	0.964500
H1241	H124	0.836100	0.264700	0.911200
H1251	H125	0.833300	0.337300	0.937600
H1261	H126	0.913500	0.400600	0.991300
H1271	H127	0.458500	0.288700	0.155200
H1281	H128	0.444500	0.264200	0.218500
H1291	H129	0.393900	0.265700	0.252000
H1301	H130	0.349300	0.300000	0.220300
H1311	H131	0.404100	0.224600	0.061100
H1321	H132	0.332600	0.206300	0.996700
H1331	H133	0.305300	0.256800	0.033500
H1341	H134	0.524200	0.378400	0.188400
H1351	H135	0.525600	0.453400	0.207200
H1361	H136	0.445200	0.435800	0.188600
H1371	H137	0.592900	0.525300	0.336000
H1381	H138	0.478900	0.585900	0.330000
H1391	H139	0.545900	0.428000	0.289900
H1401	H140	0.476500	0.369100	0.275800
H1411	H141	0.444900	0.409400	0.317500
H1421	H142	0.663900	0.575100	0.428600
H1431	H143	0.666700	0.604300	0.504000
H1441	H144	0.586500	0.577800	0.487100
H1451	H145	0.655200	0.458500	0.788700
H1461	H146	0.718500	0.444500	0.764200
H1471	H147	0.752000	0.393900	0.765700
H1481	H148	0.720300	0.349300	0.800000
H1491	H149	0.561100	0.404100	0.724600
H1501	H150	0.496700	0.332600	0.706300
H1511	H151	0.533500	0.305300	0.756800
H1521	H152	0.688400	0.524200	0.878400
H1531	H153	0.707200	0.525600	0.953400
H1541	H154	0.688600	0.445200	0.935800
H1551	H155	0.836000	0.592900	0.025300
H1561	H156	0.830000	0.478900	0.085900
H1571	H157	0.789900	0.545900	0.928000
H1581	H158	0.775800	0.476500	0.869100
H1591	H159	0.817500	0.444900	0.909400
H1601	H160	0.928600	0.663900	0.075100
H1611	H161	0.004000	0.666700	0.104300
H1621	H162	0.987100	0.586500	0.077800
H1631	H163	0.330200	0.041500	0.696700
H1641	H164	0.319700	0.055500	0.774000
H1651	H165	0.371800	0.106100	0.858100
H1661	H166	0.450700	0.150700	0.871000
H1671	H167	0.320500	0.095900	0.657000
H1681	H168	0.373700	0.167400	0.664100
H1691	H169	0.451500	0.194700	0.728200
H1701	H170	0.354200	0.975800	0.664200
H1711	H171	0.427800	0.974400	0.681600
H1721	H172	0.490600	0.054800	0.743400
H1731	H173	0.432400	0.907100	0.743100
H1741	H174	0.607000	0.021100	0.851100
H1751	H175	0.382100	0.954100	0.744000
H1761	H176	0.392600	0.023500	0.799300
H1771	H177	0.464500	0.055100	0.872600
H1781	H178	0.411200	0.836100	0.764700
H1791	H179	0.437600	0.833300	0.837300
H1801	H180	0.491300	0.913500	0.900600
H1811	H181	0.844800	0.633500	0.803300
H1821	H182	0.781500	0.545700	0.726000
H1831	H183	0.748000	0.513700	0.641900
H1841	H184	0.779700	0.579700	0.629000
H1851	H185	0.938900	0.663500	0.843000
H1861	H186	0.003300	0.709600	0.835900
H1871	H187	0.966500	0.723300	0.771800
H1881	H188	0.811600	0.690000	0.835800
H1891	H189	0.792800	0.746200	0.818400
H1901	H190	0.811400	0.747200	0.756600
H1911	H191	0.664000	0.689300	0.756900
H1921	H192	0.670000	0.755900	0.648900
H1931	H193	0.710100	0.638100	0.756000
H1941	H194	0.724200	0.593300	0.700700
H1951	H195	0.682500	0.591900	0.627400
H1961	H196	0.571400	0.646500	0.735300
H1971	H197	0.496000	0.600300	0.662700
H1981	H198	0.512900	0.590700	0.599400
H1991	H199	0.169800	0.866500	0.711300
H2001	H200	0.180300	0.954300	0.735800
H2011	H201	0.128200	0.986300	0.734300
H2021	H202	0.049300	0.920300	0.700000
H2031	H203	0.179500	0.836500	0.775400
H2041	H204	0.126300	0.790400	0.793700
H2051	H205	0.048500	0.776700	0.743200
H2061	H206	0.145800	0.810000	0.621600
H2071	H207	0.072200	0.753800	0.546600
H2081	H208	0.009400	0.752800	0.564200
H2091	H209	0.067600	0.810700	0.474700
H2101	H210	0.893000	0.744100	0.414100
H2111	H211	0.117900	0.861900	0.572000
H2121	H212	0.107400	0.906700	0.630900
H2131	H213	0.035500	0.908100	0.590600
H2141	H214	0.088800	0.853500	0.424900
H2151	H215	0.062400	0.899700	0.395700
H2161	H216	0.008700	0.909300	0.422200
H2171	H217	0.155200	0.788700	0.458500
H2181	H218	0.218500	0.764200	0.444500
H2191	H219	0.252000	0.765700	0.393900
H2201	H220	0.220300	0.800000	0.349300
H2211	H221	0.061100	0.724600	0.404100
H2221	H222	0.996700	0.706300	0.332600
H2231	H223	0.033500	0.756800	0.305300
H2241	H224	0.188400	0.878400	0.524200
H2251	H225	0.207200	0.953400	0.525600
H2261	H226	0.188600	0.935800	0.445200
H2271	H227	0.336000	0.025300	0.592900
H2281	H228	0.330000	0.085900	0.478900
H2291	H229	0.289900	0.928000	0.545900
H2301	H230	0.275800	0.869100	0.476500
H2311	H231	0.317500	0.909400	0.444900
H2321	H232	0.428600	0.075100	0.663900
H2331	H233	0.504000	0.104300	0.666700
H2341	H234	0.487100	0.077800	0.586500
H2351	H235	0.830200	0.696700	0.041500
H2361	H236	0.819700	0.774000	0.055500
H2371	H237	0.871800	0.858100	0.106100
H2381	H238	0.950700	0.871000	0.150700
H2391	H239	0.820500	0.657000	0.095900
H2401	H240	0.873700	0.664100	0.167400
H2411	H241	0.951500	0.728200	0.194700
H2421	H242	0.854200	0.664200	0.975800
H2431	H243	0.927800	0.681600	0.974400
H2441	H244	0.990600	0.743400	0.054800
H2451	H245	0.932400	0.743100	0.907100
H2461	H246	0.107000	0.851100	0.021100
H2471	H247	0.882100	0.744000	0.954100
H2481	H248	0.892600	0.799300	0.023500
H2491	H249	0.964500	0.872600	0.055100
H2501	H250	0.911200	0.764700	0.836100
H2511	H251	0.937600	0.837300	0.833300
H2521	H252	0.991300	0.900600	0.913500
H2531	H253	0.344800	0.803300	0.633500
H2541	H254	0.281500	0.726000	0.545700
H2551	H255	0.248000	0.641900	0.513700
H2561	H256	0.279700	0.629000	0.579700
H2571	H257	0.438900	0.843000	0.663500
H2581	H258	0.503300	0.835900	0.709600
H2591	H259	0.466500	0.771800	0.723300
H2601	H260	0.311600	0.835800	0.690000
H2611	H261	0.292800	0.818400	0.746200
H2621	H262	0.311400	0.756600	0.747200
H2631	H263	0.164000	0.756900	0.689300
H2641	H264	0.170000	0.648900	0.755900
H2651	H265	0.210100	0.756000	0.638100
H2661	H266	0.224200	0.700700	0.593300
H2671	H267	0.182500	0.627400	0.591900
H2681	H268	0.071400	0.735300	0.646500
H2691	H269	0.996000	0.662700	0.600300
H2701	H270	0.012900	0.599400	0.590700
H2711	H271	0.669800	0.711300	0.866500
H2721	H272	0.680300	0.735800	0.954300
H2731	H273	0.628200	0.734300	0.986300
H2741	H274	0.549300	0.700000	0.920300
H2751	H275	0.679500	0.775400	0.836500
H2761	H276	0.626300	0.793700	0.790400
H2771	H277	0.548500	0.743200	0.776700
H2781	H278	0.645800	0.621600	0.810000
H2791	H279	0.572200	0.546600	0.753800
H2801	H280	0.509400	0.564200	0.752800
H2811	H281	0.567600	0.474700	0.810700
H2821	H282	0.393000	0.414100	0.744100
H2831	H283	0.617900	0.572000	0.861900
H2841	H284	0.607400	0.630900	0.906700
H2851	H285	0.535500	0.590600	0.908100
H2861	H286	0.588800	0.424900	0.853500
H2871	H287	0.562400	0.395700	0.899700
H2881	H288	0.508700	0.422200	0.909300
H2891	H289	0.696700	0.541500	0.330200
H2901	H290	0.774000	0.555500	0.319700
H2911	H291	0.858100	0.606100	0.371800
H2921	H292	0.871000	0.650700	0.450700
H2931	H293	0.657000	0.595900	0.320500
H2941	H294	0.664100	0.667400	0.373700
H2951	H295	0.728200	0.694700	0.451500
H2961	H296	0.664200	0.475800	0.354200
H2971	H297	0.681600	0.474400	0.427800
H2981	H298	0.743400	0.554800	0.490600
H2991	H299	0.743100	0.407100	0.432400
H3001	H300	0.851100	0.521100	0.607000
H3011	H301	0.744000	0.454100	0.382100
H3021	H302	0.799300	0.523500	0.392600
H3031	H303	0.872600	0.555100	0.464500
H3041	H304	0.764700	0.336100	0.411200
H3051	H305	0.837300	0.333300	0.437600
H3061	H306	0.900600	0.413500	0.491300
H3071	H307	0.788700	0.958500	0.655200
H3081	H308	0.764200	0.944500	0.718500
H3091	H309	0.765700	0.893900	0.752000
H3101	H310	0.800000	0.849300	0.720300
H3111	H311	0.724600	0.904100	0.561100
H3121	H312	0.706300	0.832600	0.496700
H3131	H313	0.756800	0.805300	0.533500
H3141	H314	0.878400	0.024200	0.688400
H3151	H315	0.953400	0.025600	0.707200
H3161	H316	0.935800	0.945200	0.688600
H3171	H317	0.025300	0.092900	0.836000
H3181	H318	0.085900	0.978900	0.830000
H3191	H319	0.928000	0.045900	0.789900
H3201	H320	0.869100	0.976500	0.775800
H3211	H321	0.909400	0.944900	0.817500
H3221	H322	0.075100	0.163900	0.928600
H3231	H323	0.104300	0.166700	0.004000
H3241	H324	0.077800	0.086500	0.987100
H3251	H325	0.711300	0.366500	0.169800
H3261	H326	0.735800	0.454300	0.180300
H3271	H327	0.734300	0.486300	0.128200
H3281	H328	0.700000	0.420300	0.049300
H3291	H329	0.775400	0.336500	0.179500
H3301	H330	0.793700	0.290400	0.126300
H3311	H331	0.743200	0.276700	0.048500
H3321	H332	0.621600	0.310000	0.145800
H3331	H333	0.546600	0.253800	0.072200
H3341	H334	0.564200	0.252800	0.009400
H3351	H335	0.474700	0.310700	0.067600
H3361	H336	0.414100	0.244100	0.893000
H3371	H337	0.572000	0.361900	0.117900
H3381	H338	0.630900	0.406700	0.107400
H3391	H339	0.590600	0.408100	0.035500
H3401	H340	0.424900	0.353500	0.088800
H3411	H341	0.395700	0.399700	0.062400
H3421	H342	0.422200	0.409300	0.008700
H3431	H343	0.803300	0.133500	0.844800
H3441	H344	0.726000	0.045700	0.781500
H3451	H345	0.641900	0.013700	0.748000
H3461	H346	0.629000	0.079700	0.779700
H3471	H347	0.843000	0.163500	0.938900
H3481	H348	0.835900	0.209600	0.003300
H3491	H349	0.771800	0.223300	0.966500
H3501	H350	0.835800	0.190000	0.811600
H3511	H351	0.818400	0.246200	0.792800
H3521	H352	0.756600	0.247200	0.811400
H3531	H353	0.756900	0.189300	0.664000
H3541	H354	0.648900	0.255900	0.670000
H3551	H355	0.756000	0.138100	0.710100
H3561	H356	0.700700	0.093300	0.724200
H3571	H357	0.627400	0.091900	0.682500
H3581	H358	0.735300	0.146500	0.571400
H3591	H359	0.662700	0.100300	0.496000
H3601	H360	0.599400	0.090700	0.512900
H3611	H361	0.366500	0.669800	0.211300
H3621	H362	0.454300	0.680300	0.235800
H3631	H363	0.486300	0.628200	0.234300
H3641	H364	0.420300	0.549300	0.200000
H3651	H365	0.336500	0.679500	0.275400
H3661	H366	0.290400	0.626300	0.293700
H3671	H367	0.276700	0.548500	0.243200
H3681	H368	0.310000	0.645800	0.121600
H3691	H369	0.253800	0.572200	0.046600
H3701	H370	0.252800	0.509400	0.064200
H3711	H371	0.310700	0.567600	0.974700
H3721	H372	0.244100	0.393000	0.914100
H3731	H373	0.361900	0.617900	0.072000
H3741	H374	0.406700	0.607400	0.130900
H3751	H375	0.408100	0.535500	0.090600
H3761	H376	0.353500	0.588800	0.924900
H3771	H377	0.399700	0.562400	0.895700
H3781	H378	0.409300	0.508700	0.922200
H3791	H379	0.133500	0.344800	0.303300
H3801	H380	0.045700	0.281500	0.226000
H3811	H381	0.013700	0.248000	0.141900
H3821	H382	0.079700	0.279700	0.129000
H3831	H383	0.163500	0.438900	0.343000
H3841	H384	0.209600	0.503300	0.335900
H3851	H385	0.223300	0.466500	0.271800
H3861	H386	0.190000	0.311600	0.335800
H3871	H387	0.246200	0.292800	0.318400
H3881	H388	0.247200	0.311400	0.256600
H3891	H389	0.189300	0.164000	0.256900
H3901	H390	0.255900	0.170000	0.148900
H3911	H391	0.138100	0.210100	0.256000
H3921	H392	0.093300	0.224200	0.200700
H3931	H393	0.091900	0.182500	0.127400
H3941	H394	0.146500	0.071400	0.235300
H3951	H395	0.100300	0.996000	0.162700
H3961	H396	0.090700	0.012900	0.099400
H3971	H397	0.541500	0.830200	0.196700
H3981	H398	0.555500	0.819700	0.274000
H3991	H399	0.606100	0.871800	0.358100
H4001	H400	0.650700	0.950700	0.371000
H4011	H401	0.595900	0.820500	0.157000
H4021	H402	0.667400	0.873700	0.164100
H4031	H403	0.694700	0.951500	0.228200
H4041	H404	0.475800	0.854200	0.164200
H4051	H405	0.474400	0.927800	0.181600
H4061	H406	0.554800	0.990600	0.243400
H4071	H407	0.407100	0.932400	0.243100
H4081	H408	0.521100	0.107000	0.351100
H4091	H409	0.454100	0.882100	0.244000
H4101	H410	0.523500	0.892600	0.299300
H4111	H411	0.555100	0.964500	0.372600
H4121	H412	0.336100	0.911200	0.264700
H4131	H413	0.333300	0.937600	0.337300
H4141	H414	0.413500	0.991300	0.400600
H4151	H415	0.958500	0.155200	0.288700
H4161	H416	0.944500	0.218500	0.264200
H4171	H417	0.893900	0.252000	0.265700
H4181	H418	0.849300	0.220300	0.300000
H4191	H419	0.904100	0.061100	0.224600
H4201	H420	0.832600	0.996700	0.206300
H4211	H421	0.805300	0.033500	0.256800
H4221	H422	0.024200	0.188400	0.378400
H4231	H423	0.025600	0.207200	0.453400
H4241	H424	0.945200	0.188600	0.435800
H4251	H425	0.092900	0.336000	0.525300
H4261	H426	0.978900	0.330000	0.585900
H4271	H427	0.045900	0.289900	0.428000
H4281	H428	0.976500	0.275800	0.369100
H4291	H429	0.944900	0.317500	0.409400
H4301	H430	0.163900	0.428600	0.575100
H4311	H431	0.166700	0.504000	0.604300
H4321	H432	0.086500	0.487100	0.577800
C11	C1	0.420500	0.573630	0.500330
C21	C2	0.425870	0.505670	0.509800
C31	C3	0.375790	0.674870	0.668200
C41	C4	0.487880	0.643980	0.751380
C51	C5	0.404070	0.560500	0.564170
C61	C6	0.329670	0.514350	0.638020
C71	C7	0.289000	0.351300	0.576900
C81	C8	0.335200	0.379900	0.604300
C91	C9	0.342190	0.423770	0.629560
C101	C10	0.177500	0.352400	0.613900
C111	C11	0.181400	0.381100	0.653300
C121	C12	0.217100	0.424200	0.667700
C131	C13	0.185900	0.384000	0.500900
C141	C14	0.195300	0.424400	0.499900
C151	C15	0.229400	0.458870	0.544670
C161	C16	0.249900	0.510800	0.453700
C171	C17	0.280200	0.559800	0.487200
C181	C18	0.326800	0.576100	0.502900
C191	C19	0.274800	0.406600	0.473400
C201	C20	0.304300	0.411800	0.510700
C211	C21	0.345000	0.451800	0.528000
C221	C22	0.294630	0.432800	0.361430
C231	C23	0.334300	0.446800	0.359700
C241	C24	0.369100	0.476900	0.404200
C251	C25	0.573300	0.920170	0.999670
C261	C26	0.495870	0.916070	0.990200
C271	C27	0.506670	0.707590	0.831800
C281	C28	0.392600	0.736500	0.748620
C291	C29	0.496330	0.839900	0.935830
C301	C30	0.376330	0.691650	0.861980
C311	C31	0.274400	0.712100	0.923100
C321	C32	0.275600	0.730900	0.895700
C331	C33	0.294210	0.712630	0.870440
C341	C34	0.238500	0.563600	0.886100
C351	C35	0.227800	0.528100	0.846700
C361	C36	0.256500	0.549400	0.832300
C371	C37	0.383100	0.685000	0.999100
C381	C38	0.424500	0.695400	0.000100
C391	C39	0.414200	0.684730	0.955330
C401	C40	0.557100	0.796200	0.046300
C411	C41	0.572600	0.793000	0.012800
C421	C42	0.573200	0.823900	0.997100
C431	C43	0.433200	0.801400	0.026600
C441	C44	0.401100	0.793600	0.989300
C451	C45	0.423800	0.817000	0.972000
C461	C46	0.571370	0.933200	0.138570
C471	C47	0.587100	0.974600	0.140300
C481	C48	0.572700	0.964900	0.095800
C491	C49	0.926700	0.926370	0.346870
C501	C50	0.004130	0.994330	0.420200
C511	C51	0.993330	0.825130	0.200920
C521	C52	0.107400	0.856020	0.343900
C531	C53	0.003670	0.939500	0.343570
C541	C54	0.123670	0.985650	0.315320
C551	C55	0.225600	0.148700	0.437700
C561	C56	0.224400	0.120100	0.455300
C571	C57	0.205790	0.076230	0.418420
C581	C58	0.261500	0.147600	0.325100
C591	C59	0.272200	0.118900	0.300300
C601	C60	0.243500	0.075800	0.292900
C611	C61	0.116900	0.116000	0.301900
C621	C62	0.075500	0.075600	0.270900
C631	C63	0.085800	0.041130	0.270530
C641	C64	0.942900	0.989200	0.239100
C651	C65	0.927400	0.940200	0.220400
C661	C66	0.926800	0.923900	0.250700
C671	C67	0.066800	0.093400	0.368200
C681	C68	0.098900	0.088200	0.392500
C691	C69	0.076200	0.048200	0.393200
C701	C70	0.928630	0.067200	0.361830
C711	C71	0.912900	0.053200	0.387500
C721	C72	0.927300	0.023100	0.392200
C731	C73	0.079500	0.579830	0.153130
C741	C74	0.074130	0.583930	0.079800
C751	C75	0.124210	0.792410	0.299080
C761	C76	0.012120	0.763500	0.156100
C771	C77	0.095930	0.660100	0.156430
C781	C78	0.170330	0.808350	0.184680
C791	C79	0.211000	0.787900	0.062300
C801	C80	0.164800	0.769100	0.044700
C811	C81	0.157810	0.787370	0.081580
C821	C82	0.322500	0.936400	0.174900
C831	C83	0.318600	0.971900	0.199700
C841	C84	0.282900	0.950600	0.207100
C851	C85	0.314100	0.815000	0.198100
C861	C86	0.304700	0.804600	0.229100
C871	C87	0.270600	0.815270	0.229470
C881	C88	0.250100	0.703800	0.260900
C891	C89	0.219800	0.707000	0.279600
C901	C90	0.173200	0.676100	0.249300
C911	C91	0.225200	0.698600	0.131800
C921	C92	0.195700	0.706400	0.107500
C931	C93	0.155000	0.683000	0.106800
C941	C94	0.205370	0.566800	0.138170
C951	C95	0.165700	0.525400	0.112500
C961	C96	0.130900	0.535100	0.107800
C971	C97	0.846870	0.926700	0.426370
C981	C98	0.920200	0.004130	0.494330
C991	C99	0.700920	0.993330	0.325130
C1001	C100	0.843900	0.107400	0.356020
C1011	C101	0.843570	0.003670	0.439500
C1021	C102	0.815320	0.123670	0.485650
C1031	C103	0.937700	0.225600	0.648700
C1041	C104	0.955300	0.224400	0.620100
C1051	C105	0.918420	0.205790	0.576230
C1061	C106	0.825100	0.261500	0.647600
C1071	C107	0.800300	0.272200	0.618900
C1081	C108	0.792900	0.243500	0.575800
C1091	C109	0.801900	0.116900	0.616000
C1101	C110	0.770900	0.075500	0.575600
C1111	C111	0.770530	0.085800	0.541130
C1121	C112	0.739100	0.942900	0.489200
C1131	C113	0.720400	0.927400	0.440200
C1141	C114	0.750700	0.926800	0.423900
C1151	C115	0.868200	0.066800	0.593400
C1161	C116	0.892500	0.098900	0.588200
C1171	C117	0.893200	0.076200	0.548200
C1181	C118	0.861830	0.928630	0.567200
C1191	C119	0.887500	0.912900	0.553200
C1201	C120	0.892200	0.927300	0.523100
C1211	C121	0.653130	0.079500	0.079830
C1221	C122	0.579800	0.074130	0.083930
C1231	C123	0.799080	0.124210	0.292410
C1241	C124	0.656100	0.012120	0.263500
C1251	C125	0.656430	0.095930	0.160100
C1261	C126	0.684680	0.170330	0.308350
C1271	C127	0.562300	0.211000	0.287900
C1281	C128	0.544700	0.164800	0.269100
C1291	C129	0.581580	0.157810	0.287370
C1301	C130	0.674900	0.322500	0.436400
C1311	C131	0.699700	0.318600	0.471900
C1321	C132	0.707100	0.282900	0.450600
C1331	C133	0.698100	0.314100	0.315000
C1341	C134	0.729100	0.304700	0.304600
C1351	C135	0.729470	0.270600	0.315270
C1361	C136	0.760900	0.250100	0.203800
C1371	C137	0.779600	0.219800	0.207000
C1381	C138	0.749300	0.173200	0.176100
C1391	C139	0.631800	0.225200	0.198600
C1401	C140	0.607500	0.195700	0.206400
C1411	C141	0.606800	0.155000	0.183000
C1421	C142	0.638170	0.205370	0.066800
C1431	C143	0.612500	0.165700	0.025400
C1441	C144	0.607800	0.130900	0.035100
C1451	C145	0.000330	0.420500	0.073630
C1461	C146	0.009800	0.425870	0.005670
C1471	C147	0.168200	0.375790	0.174870
C1481	C148	0.251380	0.487880	0.143980
C1491	C149	0.064170	0.404070	0.060500
C1501	C150	0.138020	0.329670	0.014350
C1511	C151	0.076900	0.289000	0.851300
C1521	C152	0.104300	0.335200	0.879900
C1531	C153	0.129560	0.342190	0.923770
C1541	C154	0.113900	0.177500	0.852400
C1551	C155	0.153300	0.181400	0.881100
C1561	C156	0.167700	0.217100	0.924200
C1571	C157	0.000900	0.185900	0.884000
C1581	C158	0.999900	0.195300	0.924400
C1591	C159	0.044670	0.229400	0.958870
C1601	C160	0.953700	0.249900	0.010800
C1611	C161	0.987200	0.280200	0.059800
C1621	C162	0.002900	0.326800	0.076100
C1631	C163	0.973400	0.274800	0.906600
C1641	C164	0.010700	0.304300	0.911800
C1651	C165	0.028000	0.345000	0.951800
C1661	C166	0.861430	0.294630	0.932800
C1671	C167	0.859700	0.334300	0.946800
C1681	C168	0.904200	0.369100	0.976900
C1691	C169	0.499670	0.573300	0.420170
C1701	C170	0.490200	0.495870	0.416070
C1711	C171	0.331800	0.506670	0.207590
C1721	C172	0.248620	0.392600	0.236500
C1731	C173	0.435830	0.496330	0.339900
C1741	C174	0.361980	0.376330	0.191650
C1751	C175	0.423100	0.274400	0.212100
C1761	C176	0.395700	0.275600	0.230900
C1771	C177	0.370440	0.294210	0.212630
C1781	C178	0.386100	0.238500	0.063600
C1791	C179	0.346700	0.227800	0.028100
C1801	C180	0.332300	0.256500	0.049400
C1811	C181	0.499100	0.383100	0.185000
C1821	C182	0.500100	0.424500	0.195400
C1831	C183	0.455330	0.414200	0.184730
C1841	C184	0.546300	0.557100	0.296200
C1851	C185	0.512800	0.572600	0.293000
C1861	C186	0.497100	0.573200	0.323900
C1871	C187	0.526600	0.433200	0.301400
C1881	C188	0.489300	0.401100	0.293600
C1891	C189	0.472000	0.423800	0.317000
C1901	C190	0.638570	0.571370	0.433200
C1911	C191	0.640300	0.587100	0.474600
C1921	C192	0.595800	0.572700	0.464900
C1931	C193	0.920170	0.499670	0.073300
C1941	C194	0.916070	0.490200	0.995870
C1951	C195	0.707590	0.331800	0.006670
C1961	C196	0.736500	0.248620	0.892600
C1971	C197	0.839900	0.435830	0.996330
C1981	C198	0.691650	0.361980	0.876330
C1991	C199	0.712100	0.423100	0.774400
C2001	C200	0.730900	0.395700	0.775600
C2011	C201	0.712630	0.370440	0.794210
C2021	C202	0.563600	0.386100	0.738500
C2031	C203	0.528100	0.346700	0.727800
C2041	C204	0.549400	0.332300	0.756500
C2051	C205	0.685000	0.499100	0.883100
C2061	C206	0.695400	0.500100	0.924500
C2071	C207	0.684730	0.455330	0.914200
C2081	C208	0.796200	0.546300	0.057100
C2091	C209	0.793000	0.512800	0.072600
C2101	C210	0.823900	0.497100	0.073200
C2111	C211	0.801400	0.526600	0.933200
C2121	C212	0.793600	0.489300	0.901100
C2131	C213	0.817000	0.472000	0.923800
C2141	C214	0.933200	0.638570	0.071370
C2151	C215	0.974600	0.640300	0.087100
C2161	C216	0.964900	0.595800	0.072700
C2171	C217	0.573630	0.000330	0.920500
C2181	C218	0.505670	0.009800	0.925870
C2191	C219	0.674870	0.168200	0.875790
C2201	C220	0.643980	0.251380	0.987880
C2211	C221	0.560500	0.064170	0.904070
C2221	C222	0.514350	0.138020	0.829670
C2231	C223	0.351300	0.076900	0.789000
C2241	C224	0.379900	0.104300	0.835200
C2251	C225	0.423770	0.129560	0.842190
C2261	C226	0.352400	0.113900	0.677500
C2271	C227	0.381100	0.153300	0.681400
C2281	C228	0.424200	0.167700	0.717100
C2291	C229	0.384000	0.000900	0.685900
C2301	C230	0.424400	0.999900	0.695300
C2311	C231	0.458870	0.044670	0.729400
C2321	C232	0.510800	0.953700	0.749900
C2331	C233	0.559800	0.987200	0.780200
C2341	C234	0.576100	0.002900	0.826800
C2351	C235	0.406600	0.973400	0.774800
C2361	C236	0.411800	0.010700	0.804300
C2371	C237	0.451800	0.028000	0.845000
C2381	C238	0.432800	0.861430	0.794630
C2391	C239	0.446800	0.859700	0.834300
C2401	C240	0.476900	0.904200	0.869100
C2411	C241	0.579830	0.653130	0.579500
C2421	C242	0.583930	0.579800	0.574130
C2431	C243	0.792410	0.799080	0.624210
C2441	C244	0.763500	0.656100	0.512120
C2451	C245	0.660100	0.656430	0.595930
C2461	C246	0.808350	0.684680	0.670330
C2471	C247	0.787900	0.562300	0.711000
C2481	C248	0.769100	0.544700	0.664800
C2491	C249	0.787370	0.581580	0.657810
C2501	C250	0.936400	0.674900	0.822500
C2511	C251	0.971900	0.699700	0.818600
C2521	C252	0.950600	0.707100	0.782900
C2531	C253	0.815000	0.698100	0.814100
C2541	C254	0.804600	0.729100	0.804700
C2551	C255	0.815270	0.729470	0.770600
C2561	C256	0.703800	0.760900	0.750100
C2571	C257	0.707000	0.779600	0.719800
C2581	C258	0.676100	0.749300	0.673200
C2591	C259	0.698600	0.631800	0.725200
C2601	C260	0.706400	0.607500	0.695700
C2611	C261	0.683000	0.606800	0.655000
C2621	C262	0.566800	0.638170	0.705370
C2631	C263	0.525400	0.612500	0.665700
C2641	C264	0.535100	0.607800	0.630900
C2651	C265	0.926370	0.846870	0.426700
C2661	C266	0.994330	0.920200	0.504130
C2671	C267	0.825130	0.700920	0.493330
C2681	C268	0.856020	0.843900	0.607400
C2691	C269	0.939500	0.843570	0.503670
C2701	C270	0.985650	0.815320	0.623670
C2711	C271	0.148700	0.937700	0.725600
C2721	C272	0.120100	0.955300	0.724400
C2731	C273	0.076230	0.918420	0.705790
C2741	C274	0.147600	0.825100	0.761500
C2751	C275	0.118900	0.800300	0.772200
C2761	C276	0.075800	0.792900	0.743500
C2771	C277	0.116000	0.801900	0.616900
C2781	C278	0.075600	0.770900	0.575500
C2791	C279	0.041130	0.770530	0.585800
C2801	C280	0.989200	0.739100	0.442900
C2811	C281	0.940200	0.720400	0.427400
C2821	C282	0.923900	0.750700	0.426800
C2831	C283	0.093400	0.868200	0.566800
C2841	C284	0.088200	0.892500	0.598900
C2851	C285	0.048200	0.893200	0.576200
C2861	C286	0.067200	0.861830	0.428630
C2871	C287	0.053200	0.887500	0.412900
C2881	C288	0.023100	0.892200	0.427300
C2891	C289	0.420170	0.073300	0.499670
C2901	C290	0.416070	0.995870	0.490200
C2911	C291	0.207590	0.006670	0.331800
C2921	C292	0.236500	0.892600	0.248620
C2931	C293	0.339900	0.996330	0.435830
C2941	C294	0.191650	0.876330	0.361980
C2951	C295	0.212100	0.774400	0.423100
C2961	C296	0.230900	0.775600	0.395700
C2971	C297	0.212630	0.794210	0.370440
C2981	C298	0.063600	0.738500	0.386100
C2991	C299	0.028100	0.727800	0.346700
C3001	C300	0.049400	0.756500	0.332300
C3011	C301	0.185000	0.883100	0.499100
C3021	C302	0.195400	0.924500	0.500100
C3031	C303	0.184730	0.914200	0.455330
C3041	C304	0.296200	0.057100	0.546300
C3051	C305	0.293000	0.072600	0.512800
C3061	C306	0.323900	0.073200	0.497100
C3071	C307	0.301400	0.933200	0.526600
C3081	C308	0.293600	0.901100	0.489300
C3091	C309	0.317000	0.923800	0.472000
C3101	C310	0.433200	0.071370	0.638570
C3111	C311	0.474600	0.087100	0.640300
C3121	C312	0.464900	0.072700	0.595800
C3131	C313	0.073630	0.920500	0.000330
C3141	C314	0.005670	0.925870	0.009800
C3151	C315	0.174870	0.875790	0.168200
C3161	C316	0.143980	0.987880	0.251380
C3171	C317	0.060500	0.904070	0.064170
C3181	C318	0.014350	0.829670	0.138020
C3191	C319	0.851300	0.789000	0.076900
C3201	C320	0.879900	0.835200	0.104300
C3211	C321	0.923770	0.842190	0.129560
C3221	C322	0.852400	0.677500	0.113900
C3231	C323	0.881100	0.681400	0.153300
C3241	C324	0.924200	0.717100	0.167700
C3251	C325	0.884000	0.685900	0.000900
C3261	C326	0.924400	0.695300	0.999900
C3271	C327	0.958870	0.729400	0.044670
C3281	C328	0.010800	0.749900	0.953700
C3291	C329	0.059800	0.780200	0.987200
C3301	C330	0.076100	0.826800	0.002900
C3311	C331	0.906600	0.774800	0.973400
C3321	C332	0.911800	0.804300	0.010700
C3331	C333	0.951800	0.845000	0.028000
C3341	C334	0.932800	0.794630	0.861430
C3351	C335	0.946800	0.834300	0.859700
C3361	C336	0.976900	0.869100	0.904200
C3371	C337	0.079830	0.579500	0.653130
C3381	C338	0.083930	0.574130	0.579800
C3391	C339	0.292410	0.624210	0.799080
C3401	C340	0.263500	0.512120	0.656100
C3411	C341	0.160100	0.595930	0.656430
C3421	C342	0.308350	0.670330	0.684680
C3431	C343	0.287900	0.711000	0.562300
C3441	C344	0.269100	0.664800	0.544700
C3451	C345	0.287370	0.657810	0.581580
C3461	C346	0.436400	0.822500	0.674900
C3471	C347	0.471900	0.818600	0.699700
C3481	C348	0.450600	0.782900	0.707100
C3491	C349	0.315000	0.814100	0.698100
C3501	C350	0.304600	0.804700	0.729100
C3511	C351	0.315270	0.770600	0.729470
C3521	C352	0.203800	0.750100	0.760900
C3531	C353	0.207000	0.719800	0.779600
C3541	C354	0.176100	0.673200	0.749300
C3551	C355	0.198600	0.725200	0.631800
C3561	C356	0.206400	0.695700	0.607500
C3571	C357	0.183000	0.655000	0.606800
C3581	C358	0.066800	0.705370	0.638170
C3591	C359	0.025400	0.665700	0.612500
C3601	C360	0.035100	0.630900	0.607800
C3611	C361	0.426370	0.426700	0.846870
C3621	C362	0.494330	0.504130	0.920200
C3631	C363	0.325130	0.493330	0.700920
C3641	C364	0.356020	0.607400	0.843900
C3651	C365	0.439500	0.503670	0.843570
C3661	C366	0.485650	0.623670	0.815320
C3671	C367	0.648700	0.725600	0.937700
C3681	C368	0.620100	0.724400	0.955300
C3691	C369	0.576230	0.705790	0.918420
C3701	C370	0.647600	0.761500	0.825100
C3711	C371	0.618900	0.772200	0.800300
C3721	C372	0.575800	0.743500	0.792900
C3731	C373	0.616000	0.616900	0.801900
C3741	C374	0.575600	0.575500	0.770900
C3751	C375	0.541130	0.585800	0.770530
C3761	C376	0.489200	0.442900	0.739100
C3771	C377	0.440200	0.427400	0.720400
C3781	C378	0.423900	0.426800	0.750700
C3791	C379	0.593400	0.566800	0.868200
C3801	C380	0.588200	0.598900	0.892500
C3811	C381	0.548200	0.576200	0.893200
C3821	C382	0.567200	0.428630	0.861830
C3831	C383	0.553200	0.412900	0.887500
C3841	C384	0.523100	0.427300	0.892200
C3851	C385	0.920500	0.500330	0.573630
C3861	C386	0.925870	0.509800	0.505670
C3871	C387	0.875790	0.668200	0.674870
C3881	C388	0.987880	0.751380	0.643980
C3891	C389	0.904070	0.564170	0.560500
C3901	C390	0.829670	0.638020	0.514350
C3911	C391	0.789000	0.576900	0.351300
C3921	C392	0.835200	0.604300	0.379900
C3931	C393	0.842190	0.629560	0.423770
C3941	C394	0.677500	0.613900	0.352400
C3951	C395	0.681400	0.653300	0.381100
C3961	C396	0.717100	0.667700	0.424200
C3971	C397	0.685900	0.500900	0.384000
C3981	C398	0.695300	0.499900	0.424400
C3991	C399	0.729400	0.544670	0.458870
C4001	C400	0.749900	0.453700	0.510800
C4011	C401	0.780200	0.487200	0.559800
C4021	C402	0.826800	0.502900	0.576100
C4031	C403	0.774800	0.473400	0.406600
C4041	C404	0.804300	0.510700	0.411800
C4051	C405	0.845000	0.528000	0.451800
C4061	C406	0.794630	0.361430	0.432800
C4071	C407	0.834300	0.359700	0.446800
C4081	C408	0.869100	0.404200	0.476900
C4091	C409	0.073300	0.999670	0.920170
C4101	C410	0.995870	0.990200	0.916070
C4111	C411	0.006670	0.831800	0.707590
C4121	C412	0.892600	0.748620	0.736500
C4131	C413	0.996330	0.935830	0.839900
C4141	C414	0.876330	0.861980	0.691650
C4151	C415	0.774400	0.923100	0.712100
C4161	C416	0.775600	0.895700	0.730900
C4171	C417	0.794210	0.870440	0.712630
C4181	C418	0.738500	0.886100	0.563600
C4191	C419	0.727800	0.846700	0.528100
C4201	C420	0.756500	0.832300	0.549400
C4211	C421	0.883100	0.999100	0.685000
C4221	C422	0.924500	0.000100	0.695400
C4231	C423	0.914200	0.955330	0.684730
C4241	C424	0.057100	0.046300	0.796200
C4251	C425	0.072600	0.012800	0.793000
C4261	C426	0.073200	0.997100	0.823900
C4271	C427	0.933200	0.026600	0.801400
C4281	C428	0.901100	0.989300	0.793600
C4291	C429	0.923800	0.972000	0.817000
C4301	C430	0.071370	0.138570	0.933200
C4311	C431	0.087100	0.140300	0.974600
C4321	C432	0.072700	0.095800	0.964900
C4331	C433	0.426700	0.346870	0.926370
C4341	C434	0.504130	0.420200	0.994330
C4351	C435	0.493330	0.200920	0.825130
C4361	C436	0.607400	0.343900	0.856020
C4371	C437	0.503670	0.343570	0.939500
C4381	C438	0.623670	0.315320	0.985650
C4391	C439	0.725600	0.437700	0.148700
C4401	C440	0.724400	0.455300	0.120100
C4411	C441	0.705790	0.418420	0.076230
C4421	C442	0.761500	0.325100	0.147600
C4431	C443	0.772200	0.300300	0.118900
C4441	C444	0.743500	0.292900	0.075800
C4451	C445	0.616900	0.301900	0.116000
C4461	C446	0.575500	0.270900	0.075600
C4471	C447	0.585800	0.270530	0.041130
C4481	C448	0.442900	0.239100	0.989200
C4491	C449	0.427400	0.220400	0.940200
C4501	C450	0.426800	0.250700	0.923900
C4511	C451	0.566800	0.368200	0.093400
C4521	C452	0.598900	0.392500	0.088200
C4531	C453	0.576200	0.393200	0.048200
C4541	C454	0.428630	0.361830	0.067200
C4551	C455	0.412900	0.387500	0.053200
C4561	C456	0.427300	0.392200	0.023100
C4571	C457	0.579500	0.153130	0.579830
C4581	C458	0.574130	0.079800	0.583930
C4591	C459	0.624210	0.299080	0.792410
C4601	C460	0.512120	0.156100	0.763500
C4611	C461	0.595930	0.156430	0.660100
C4621	C462	0.670330	0.184680	0.808350
C4631	C463	0.711000	0.062300	0.787900
C4641	C464	0.664800	0.044700	0.769100
C4651	C465	0.657810	0.081580	0.787370
C4661	C466	0.822500	0.174900	0.936400
C4671	C467	0.818600	0.199700	0.971900
C4681	C468	0.782900	0.207100	0.950600
C4691	C469	0.814100	0.198100	0.815000
C4701	C470	0.804700	0.229100	0.804600
C4711	C471	0.770600	0.229470	0.815270
C4721	C472	0.750100	0.260900	0.703800
C4731	C473	0.719800	0.279600	0.707000
C4741	C474	0.673200	0.249300	0.676100
C4751	C475	0.725200	0.131800	0.698600
C4761	C476	0.695700	0.107500	0.706400
C4771	C477	0.655000	0.106800	0.683000
C4781	C478	0.705370	0.138170	0.566800
C4791	C479	0.665700	0.112500	0.525400
C4801	C480	0.630900	0.107800	0.535100
C4811	C481	0.346870	0.426370	0.926700
C4821	C482	0.420200	0.494330	0.004130
C4831	C483	0.200920	0.325130	0.993330
C4841	C484	0.343900	0.356020	0.107400
C4851	C485	0.343570	0.439500	0.003670
C4861	C486	0.315320	0.485650	0.123670
C4871	C487	0.437700	0.648700	0.225600
C4881	C488	0.455300	0.620100	0.224400
C4891	C489	0.418420	0.576230	0.205790
C4901	C490	0.325100	0.647600	0.261500
C4911	C491	0.300300	0.618900	0.272200
C4921	C492	0.292900	0.575800	0.243500
C4931	C493	0.301900	0.616000	0.116900
C4941	C494	0.270900	0.575600	0.075500
C4951	C495	0.270530	0.541130	0.085800
C4961	C496	0.239100	0.489200	0.942900
C4971	C497	0.220400	0.440200	0.927400
C4981	C498	0.250700	0.423900	0.926800
C4991	C499	0.368200	0.593400	0.066800
C5001	C500	0.392500	0.588200	0.098900
C5011	C501	0.393200	0.548200	0.076200
C5021	C502	0.361830	0.567200	0.928630
C5031	C503	0.387500	0.553200	0.912900
C5041	C504	0.392200	0.523100	0.927300
C5051	C505	0.153130	0.079830	0.079500
C5061	C506	0.079800	0.083930	0.074130
C5071	C507	0.299080	0.292410	0.124210
C5081	C508	0.156100	0.263500	0.012120
C5091	C509	0.156430	0.160100	0.095930
C5101	C510	0.184680	0.308350	0.170330
C5111	C511	0.062300	0.287900	0.211000
C5121	C512	0.044700	0.269100	0.164800
C5131	C513	0.081580	0.287370	0.157810
C5141	C514	0.174900	0.436400	0.322500
C5151	C515	0.199700	0.471900	0.318600
C5161	C516	0.207100	0.450600	0.282900
C5171	C517	0.198100	0.315000	0.314100
C5181	C518	0.229100	0.304600	0.304700
C5191	C519	0.229470	0.315270	0.270600
C5201	C520	0.260900	0.203800	0.250100
C5211	C521	0.279600	0.207000	0.219800
C5221	C522	0.249300	0.176100	0.173200
C5231	C523	0.131800	0.198600	0.225200
C5241	C524	0.107500	0.206400	0.195700
C5251	C525	0.106800	0.183000	0.155000
C5261	C526	0.138170	0.066800	0.205370
C5271	C527	0.112500	0.025400	0.165700
C5281	C528	0.107800	0.035100	0.130900
C5291	C529	0.500330	0.073630	0.420500
C5301	C530	0.509800	0.005670	0.425870
C5311	C531	0.668200	0.174870	0.375790
C5321	C532	0.751380	0.143980	0.487880
C5331	C533	0.564170	0.060500	0.404070
C5341	C534	0.638020	0.014350	0.329670
C5351	C535	0.576900	0.851300	0.289000
C5361	C536	0.604300	0.879900	0.335200
C5371	C537	0.629560	0.923770	0.342190
C5381	C538	0.613900	0.852400	0.177500
C5391	C539	0.653300	0.881100	0.181400
C5401	C540	0.667700	0.924200	0.217100
C5411	C541	0.500900	0.884000	0.185900
C5421	C542	0.499900	0.924400	0.195300
C5431	C543	0.544670	0.958870	0.229400
C5441	C544	0.453700	0.010800	0.249900
C5451	C545	0.487200	0.059800	0.280200
C5461	C546	0.502900	0.076100	0.326800
C5471	C547	0.473400	0.906600	0.274800
C5481	C548	0.510700	0.911800	0.304300
C5491	C549	0.528000	0.951800	0.345000
C5501	C550	0.361430	0.932800	0.294630
C5511	C551	0.359700	0.946800	0.334300
C5521	C552	0.404200	0.976900	0.369100
C5531	C553	0.999670	0.420170	0.573300
C5541	C554	0.990200	0.416070	0.495870
C5551	C555	0.831800	0.207590	0.506670
C5561	C556	0.748620	0.236500	0.392600
C5571	C557	0.935830	0.339900	0.496330
C5581	C558	0.861980	0.191650	0.376330
C5591	C559	0.923100	0.212100	0.274400
C5601	C560	0.895700	0.230900	0.275600
C5611	C561	0.870440	0.212630	0.294210
C5621	C562	0.886100	0.063600	0.238500
C5631	C563	0.846700	0.028100	0.227800
C5641	C564	0.832300	0.049400	0.256500
C5651	C565	0.999100	0.185000	0.383100
C5661	C566	0.000100	0.195400	0.424500
C5671	C567	0.955330	0.184730	0.414200
C5681	C568	0.046300	0.296200	0.557100
C5691	C569	0.012800	0.293000	0.572600
C5701	C570	0.997100	0.323900	0.573200
C5711	C571	0.026600	0.301400	0.433200
C5721	C572	0.989300	0.293600	0.401100
C5731	C573	0.972000	0.317000	0.423800
C5741	C574	0.138570	0.433200	0.571370
C5751	C575	0.140300	0.474600	0.587100
C5761	C576	0.095800	0.464900	0.572700
N11	N1	0.446650	0.604200	0.500250
N21	N2	0.453780	0.495660	0.512000
N31	N3	0.386570	0.647740	0.658510
N41	N4	0.460640	0.627900	0.714300
N51	N5	0.415460	0.582370	0.601270
N61	N6	0.358490	0.544500	0.642270
N71	N7	0.268760	0.375860	0.585640
N81	N8	0.301670	0.421380	0.619050
N91	N9	0.207850	0.376750	0.604540
N101	N10	0.233000	0.421960	0.639220
N111	N11	0.212620	0.394320	0.543560
N121	N12	0.239200	0.440670	0.570910
N131	N13	0.284480	0.502230	0.454790
N141	N14	0.329470	0.537310	0.486080
N151	N15	0.293670	0.440410	0.465840
N161	N16	0.338330	0.468900	0.500330
N171	N17	0.305440	0.455010	0.405330
N181	N18	0.351470	0.483040	0.432830
N191	N19	0.603950	0.946400	0.999750
N201	N20	0.483660	0.941780	0.988000
N211	N21	0.489230	0.728060	0.841490
N221	N22	0.413600	0.746340	0.785700
N231	N23	0.481100	0.814190	0.898730
N241	N24	0.402230	0.716220	0.857730
N251	N25	0.290220	0.683120	0.914360
N261	N26	0.302330	0.682620	0.880950
N271	N27	0.272210	0.603310	0.895460
N281	N28	0.282740	0.593780	0.860780
N291	N29	0.350760	0.669060	0.956440
N301	N30	0.369760	0.668290	0.929090
N311	N31	0.547440	0.829690	0.045210
N321	N32	0.551230	0.843390	0.013920
N331	N33	0.474570	0.827830	0.034160
N341	N34	0.468570	0.838000	0.999670
N351	N35	0.549680	0.900110	0.094670
N361	N36	0.550210	0.918640	0.067170
N371	N37	0.896050	0.895800	0.342450
N381	N38	0.016340	0.004340	0.458120
N391	N39	0.010770	0.852260	0.238830
N401	N40	0.086400	0.872100	0.332740
N411	N41	0.018900	0.917630	0.333090
N421	N42	0.097770	0.955500	0.313990
N431	N43	0.209780	0.124140	0.392900
N441	N44	0.197670	0.078620	0.380290
N451	N45	0.227790	0.123250	0.331100
N461	N46	0.217260	0.078040	0.311040
N471	N47	0.149240	0.105680	0.318300
N481	N48	0.130240	0.059330	0.298530
N491	N49	0.952560	0.997770	0.282250
N501	N50	0.948770	0.962690	0.292160
N511	N51	0.025430	0.059590	0.353260
N521	N52	0.031430	0.031100	0.369430
N531	N53	0.950320	0.044990	0.350430
N541	N54	0.949790	0.016960	0.368430
N551	N55	0.053350	0.553600	0.157550
N561	N56	0.046220	0.558220	0.041880
N571	N57	0.113430	0.771940	0.261170
N581	N58	0.039360	0.753660	0.167260
N591	N59	0.084540	0.685810	0.166910
N601	N60	0.141510	0.783780	0.186010
N611	N61	0.231240	0.816880	0.107100
N621	N62	0.198330	0.817380	0.119710
N631	N63	0.292150	0.896690	0.168900
N641	N64	0.267000	0.906220	0.188960
N651	N65	0.287380	0.830940	0.181700
N661	N66	0.260800	0.831710	0.201470
N671	N67	0.215520	0.670310	0.217750
N681	N68	0.170530	0.656610	0.207840
N691	N69	0.206330	0.672170	0.146740
N701	N70	0.161670	0.662000	0.130570
N711	N71	0.194560	0.599890	0.149570
N721	N72	0.148530	0.581360	0.131570
N731	N73	0.842450	0.896050	0.395800
N741	N74	0.958120	0.016340	0.504340
N751	N75	0.738830	0.010770	0.352260
N761	N76	0.832740	0.086400	0.372100
N771	N77	0.833090	0.018900	0.417630
N781	N78	0.813990	0.097770	0.455500
N791	N79	0.892900	0.209780	0.624140
N801	N80	0.880290	0.197670	0.578620
N811	N81	0.831100	0.227790	0.623250
N821	N82	0.811040	0.217260	0.578040
N831	N83	0.818300	0.149240	0.605680
N841	N84	0.798530	0.130240	0.559330
N851	N85	0.782250	0.952560	0.497770
N861	N86	0.792160	0.948770	0.462690
N871	N87	0.853260	0.025430	0.559590
N881	N88	0.869430	0.031430	0.531100
N891	N89	0.850430	0.950320	0.544990
N901	N90	0.868430	0.949790	0.516960
N911	N91	0.657550	0.053350	0.053600
N921	N92	0.541880	0.046220	0.058220
N931	N93	0.761170	0.113430	0.271940
N941	N94	0.667260	0.039360	0.253660
N951	N95	0.666910	0.084540	0.185810
N961	N96	0.686010	0.141510	0.283780
N971	N97	0.607100	0.231240	0.316880
N981	N98	0.619710	0.198330	0.317380
N991	N99	0.668900	0.292150	0.396690
N1001	N100	0.688960	0.267000	0.406220
N1011	N101	0.681700	0.287380	0.330940
N1021	N102	0.701470	0.260800	0.331710
N1031	N103	0.717750	0.215520	0.170310
N1041	N104	0.707840	0.170530	0.156610
N1051	N105	0.646740	0.206330	0.172170
N1061	N106	0.630570	0.161670	0.162000
N1071	N107	0.649570	0.194560	0.099890
N1081	N108	0.631570	0.148530	0.081360
N1091	N109	0.000250	0.446650	0.104200
N1101	N110	0.012000	0.453780	0.995660
N1111	N111	0.158510	0.386570	0.147740
N1121	N112	0.214300	0.460640	0.127900
N1131	N113	0.101270	0.415460	0.082370
N1141	N114	0.142270	0.358490	0.044500
N1151	N115	0.085640	0.268760	0.875860
N1161	N116	0.119050	0.301670	0.921380
N1171	N117	0.104540	0.207850	0.876750
N1181	N118	0.139220	0.233000	0.921960
N1191	N119	0.043560	0.212620	0.894320
N1201	N120	0.070910	0.239200	0.940670
N1211	N121	0.954790	0.284480	0.002230
N1221	N122	0.986080	0.329470	0.037310
N1231	N123	0.965840	0.293670	0.940410
N1241	N124	0.000330	0.338330	0.968900
N1251	N125	0.905330	0.305440	0.955010
N1261	N126	0.932830	0.351470	0.983040
N1271	N127	0.499750	0.603950	0.446400
N1281	N128	0.488000	0.483660	0.441780
N1291	N129	0.341490	0.489230	0.228060
N1301	N130	0.285700	0.413600	0.246340
N1311	N131	0.398730	0.481100	0.314190
N1321	N132	0.357730	0.402230	0.216220
N1331	N133	0.414360	0.290220	0.183120
N1341	N134	0.380950	0.302330	0.182620
N1351	N135	0.395460	0.272210	0.103310
N1361	N136	0.360780	0.282740	0.093780
N1371	N137	0.456440	0.350760	0.169060
N1381	N138	0.429090	0.369760	0.168290
N1391	N139	0.545210	0.547440	0.329690
N1401	N140	0.513920	0.551230	0.343390
N1411	N141	0.534160	0.474570	0.327830
N1421	N142	0.499670	0.468570	0.338000
N1431	N143	0.594670	0.549680	0.400110
N1441	N144	0.567170	0.550210	0.418640
N1451	N145	0.946400	0.499750	0.103950
N1461	N146	0.941780	0.488000	0.983660
N1471	N147	0.728060	0.341490	0.989230
N1481	N148	0.746340	0.285700	0.913600
N1491	N149	0.814190	0.398730	0.981100
N1501	N150	0.716220	0.357730	0.902230
N1511	N151	0.683120	0.414360	0.790220
N1521	N152	0.682620	0.380950	0.802330
N1531	N153	0.603310	0.395460	0.772210
N1541	N154	0.593780	0.360780	0.782740
N1551	N155	0.669060	0.456440	0.850760
N1561	N156	0.668290	0.429090	0.869760
N1571	N157	0.829690	0.545210	0.047440
N1581	N158	0.843390	0.513920	0.051230
N1591	N159	0.827830	0.534160	0.974570
N1601	N160	0.838000	0.499670	0.968570
N1611	N161	0.900110	0.594670	0.049680
N1621	N162	0.918640	0.567170	0.050210
N1631	N163	0.604200	0.000250	0.946650
N1641	N164	0.495660	0.012000	0.953780
N1651	N165	0.647740	0.158510	0.886570
N1661	N166	0.627900	0.214300	0.960640
N1671	N167	0.582370	0.101270	0.915460
N1681	N168	0.544500	0.142270	0.858490
N1691	N169	0.375860	0.085640	0.768760
N1701	N170	0.421380	0.119050	0.801670
N1711	N171	0.376750	0.104540	0.707850
N1721	N172	0.421960	0.139220	0.733000
N1731	N173	0.394320	0.043560	0.712620
N1741	N174	0.440670	0.070910	0.739200
N1751	N175	0.502230	0.954790	0.784480
N1761	N176	0.537310	0.986080	0.829470
N1771	N177	0.440410	0.965840	0.793670
N1781	N178	0.468900	0.000330	0.838330
N1791	N179	0.455010	0.905330	0.805440
N1801	N180	0.483040	0.932830	0.851470
N1811	N181	0.553600	0.657550	0.553350
N1821	N182	0.558220	0.541880	0.546220
N1831	N183	0.771940	0.761170	0.613430
N1841	N184	0.753660	0.667260	0.539360
N1851	N185	0.685810	0.666910	0.584540
N1861	N186	0.783780	0.686010	0.641510
N1871	N187	0.816880	0.607100	0.731240
N1881	N188	0.817380	0.619710	0.698330
N1891	N189	0.896690	0.668900	0.792150
N1901	N190	0.906220	0.688960	0.767000
N1911	N191	0.830940	0.681700	0.787380
N1921	N192	0.831710	0.701470	0.760800
N1931	N193	0.670310	0.717750	0.715520
N1941	N194	0.656610	0.707840	0.670530
N1951	N195	0.672170	0.646740	0.706330
N1961	N196	0.662000	0.630570	0.661670
N1971	N197	0.599890	0.649570	0.694560
N1981	N198	0.581360	0.631570	0.648530
N1991	N199	0.895800	0.842450	0.396050
N2001	N200	0.004340	0.958120	0.516340
N2011	N201	0.852260	0.738830	0.510770
N2021	N202	0.872100	0.832740	0.586400
N2031	N203	0.917630	0.833090	0.518900
N2041	N204	0.955500	0.813990	0.597770
N2051	N205	0.124140	0.892900	0.709780
N2061	N206	0.078620	0.880290	0.697670
N2071	N207	0.123250	0.831100	0.727790
N2081	N208	0.078040	0.811040	0.717260
N2091	N209	0.105680	0.818300	0.649240
N2101	N210	0.059330	0.798530	0.630240
N2111	N211	0.997770	0.782250	0.452560
N2121	N212	0.962690	0.792160	0.448770
N2131	N213	0.059590	0.853260	0.525430
N2141	N214	0.031100	0.869430	0.531430
N2151	N215	0.044990	0.850430	0.450320
N2161	N216	0.016960	0.868430	0.449790
N2171	N217	0.446400	0.103950	0.499750
N2181	N218	0.441780	0.983660	0.488000
N2191	N219	0.228060	0.989230	0.341490
N2201	N220	0.246340	0.913600	0.285700
N2211	N221	0.314190	0.981100	0.398730
N2221	N222	0.216220	0.902230	0.357730
N2231	N223	0.183120	0.790220	0.414360
N2241	N224	0.182620	0.802330	0.380950
N2251	N225	0.103310	0.772210	0.395460
N2261	N226	0.093780	0.782740	0.360780
N2271	N227	0.169060	0.850760	0.456440
N2281	N228	0.168290	0.869760	0.429090
N2291	N229	0.329690	0.047440	0.545210
N2301	N230	0.343390	0.051230	0.513920
N2311	N231	0.327830	0.974570	0.534160
N2321	N232	0.338000	0.968570	0.499670
N2331	N233	0.400110	0.049680	0.594670
N2341	N234	0.418640	0.050210	0.567170
N2351	N235	0.104200	0.946650	0.000250
N2361	N236	0.995660	0.953780	0.012000
N2371	N237	0.147740	0.886570	0.158510
N2381	N238	0.127900	0.960640	0.214300
N2391	N239	0.082370	0.915460	0.101270
N2401	N240	0.044500	0.858490	0.142270
N2411	N241	0.875860	0.768760	0.085640
N2421	N242	0.921380	0.801670	0.119050
N2431	N243	0.876750	0.707850	0.104540
N2441	N244	0.921960	0.733000	0.139220
N2451	N245	0.894320	0.712620	0.043560
N2461	N246	0.940670	0.739200	0.070910
N2471	N247	0.002230	0.784480	0.954790
N2481	N248	0.037310	0.829470	0.986080
N2491	N249	0.940410	0.793670	0.965840
N2501	N250	0.968900	0.838330	0.000330
N2511	N251	0.955010	0.805440	0.905330
N2521	N252	0.983040	0.851470	0.932830
N2531	N253	0.053600	0.553350	0.657550
N2541	N254	0.058220	0.546220	0.541880
N2551	N255	0.271940	0.613430	0.761170
N2561	N256	0.253660	0.539360	0.667260
N2571	N257	0.185810	0.584540	0.666910
N2581	N258	0.283780	0.641510	0.686010
N2591	N259	0.316880	0.731240	0.607100
N2601	N260	0.317380	0.698330	0.619710
N2611	N261	0.396690	0.792150	0.668900
N2621	N262	0.406220	0.767000	0.688960
N2631	N263	0.330940	0.787380	0.681700
N2641	N264	0.331710	0.760800	0.701470
N2651	N265	0.170310	0.715520	0.717750
N2661	N266	0.156610	0.670530	0.707840
N2671	N267	0.172170	0.706330	0.646740
N2681	N268	0.162000	0.661670	0.630570
N2691	N269	0.099890	0.694560	0.649570
N2701	N270	0.081360	0.648530	0.631570
N2711	N271	0.395800	0.396050	0.842450
N2721	N272	0.504340	0.516340	0.958120
N2731	N273	0.352260	0.510770	0.738830
N2741	N274	0.372100	0.586400	0.832740
N2751	N275	0.417630	0.518900	0.833090
N2761	N276	0.455500	0.597770	0.813990
N2771	N277	0.624140	0.709780	0.892900
N2781	N278	0.578620	0.697670	0.880290
N2791	N279	0.623250	0.727790	0.831100
N2801	N280	0.578040	0.717260	0.811040
N2811	N281	0.605680	0.649240	0.818300
N2821	N282	0.559330	0.630240	0.798530
N2831	N283	0.497770	0.452560	0.782250
N2841	N284	0.462690	0.448770	0.792160
N2851	N285	0.559590	0.525430	0.853260
N2861	N286	0.531100	0.531430	0.869430
N2871	N287	0.544990	0.450320	0.850430
N2881	N288	0.516960	0.449790	0.868430
N2891	N289	0.946650	0.500250	0.604200
N2901	N290	0.953780	0.512000	0.495660
N2911	N291	0.886570	0.658510	0.647740
N2921	N292	0.960640	0.714300	0.627900
N2931	N293	0.915460	0.601270	0.582370
N2941	N294	0.858490	0.642270	0.544500
N2951	N295	0.768760	0.585640	0.375860
N2961	N296	0.801670	0.619050	0.421380
N2971	N297	0.707850	0.604540	0.376750
N2981	N298	0.733000	0.639220	0.421960
N2991	N299	0.712620	0.543560	0.394320
N3001	N300	0.739200	0.570910	0.440670
N3011	N301	0.784480	0.454790	0.502230
N3021	N302	0.829470	0.486080	0.537310
N3031	N303	0.793670	0.465840	0.440410
N3041	N304	0.838330	0.500330	0.468900
N3051	N305	0.805440	0.405330	0.455010
N3061	N306	0.851470	0.432830	0.483040
N3071	N307	0.103950	0.999750	0.946400
N3081	N308	0.983660	0.988000	0.941780
N3091	N309	0.989230	0.841490	0.728060
N3101	N310	0.913600	0.785700	0.746340
N3111	N311	0.981100	0.898730	0.814190
N3121	N312	0.902230	0.857730	0.716220
N3131	N313	0.790220	0.914360	0.683120
N3141	N314	0.802330	0.880950	0.682620
N3151	N315	0.772210	0.895460	0.603310
N3161	N316	0.782740	0.860780	0.593780
N3171	N317	0.850760	0.956440	0.669060
N3181	N318	0.869760	0.929090	0.668290
N3191	N319	0.047440	0.045210	0.829690
N3201	N320	0.051230	0.013920	0.843390
N3211	N321	0.974570	0.034160	0.827830
N3221	N322	0.968570	0.999670	0.838000
N3231	N323	0.049680	0.094670	0.900110
N3241	N324	0.050210	0.067170	0.918640
N3251	N325	0.396050	0.342450	0.895800
N3261	N326	0.516340	0.458120	0.004340
N3271	N327	0.510770	0.238830	0.852260
N3281	N328	0.586400	0.332740	0.872100
N3291	N329	0.518900	0.333090	0.917630
N3301	N330	0.597770	0.313990	0.955500
N3311	N331	0.709780	0.392900	0.124140
N3321	N332	0.697670	0.380290	0.078620
N3331	N333	0.727790	0.331100	0.123250
N3341	N334	0.717260	0.311040	0.078040
N3351	N335	0.649240	0.318300	0.105680
N3361	N336	0.630240	0.298530	0.059330
N3371	N337	0.452560	0.282250	0.997770
N3381	N338	0.448770	0.292160	0.962690
N3391	N339	0.525430	0.353260	0.059590
N3401	N340	0.531430	0.369430	0.031100
N3411	N341	0.450320	0.350430	0.044990
N3421	N342	0.449790	0.368430	0.016960
N3431	N343	0.553350	0.157550	0.553600
N3441	N344	0.546220	0.041880	0.558220
N3451	N345	0.613430	0.261170	0.771940
N3461	N346	0.539360	0.167260	0.753660
N3471	N347	0.584540	0.166910	0.685810
N3481	N348	0.641510	0.186010	0.783780
N3491	N349	0.731240	0.107100	0.816880
N3501	N350	0.698330	0.119710	0.817380
N3511	N351	0.792150	0.168900	0.896690
N3521	N352	0.767000	0.188960	0.906220
N3531	N353	0.787380	0.181700	0.830940
N3541	N354	0.760800	0.201470	0.831710
N3551	N355	0.715520	0.217750	0.670310
N3561	N356	0.670530	0.207840	0.656610
N3571	N357	0.706330	0.146740	0.672170
N3581	N358	0.661670	0.130570	0.662000
N3591	N359	0.694560	0.149570	0.599890
N3601	N360	0.648530	0.131570	0.581360
N3611	N361	0.342450	0.395800	0.896050
N3621	N362	0.458120	0.504340	0.016340
N3631	N363	0.238830	0.352260	0.010770
N3641	N364	0.332740	0.372100	0.086400
N3651	N365	0.333090	0.417630	0.018900
N3661	N366	0.313990	0.455500	0.097770
N3671	N367	0.392900	0.624140	0.209780
N3681	N368	0.380290	0.578620	0.197670
N3691	N369	0.331100	0.623250	0.227790
N3701	N370	0.311040	0.578040	0.217260
N3711	N371	0.318300	0.605680	0.149240
N3721	N372	0.298530	0.559330	0.130240
N3731	N373	0.282250	0.497770	0.952560
N3741	N374	0.292160	0.462690	0.948770
N3751	N375	0.353260	0.559590	0.025430
N3761	N376	0.369430	0.531100	0.031430
N3771	N377	0.350430	0.544990	0.950320
N3781	N378	0.368430	0.516960	0.949790
N3791	N379	0.157550	0.053600	0.053350
N3801	N380	0.041880	0.058220	0.046220
N3811	N381	0.261170	0.271940	0.113430
N3821	N382	0.167260	0.253660	0.039360
N3831	N383	0.166910	0.185810	0.084540
N3841	N384	0.186010	0.283780	0.141510
N3851	N385	0.107100	0.316880	0.231240
N3861	N386	0.119710	0.317380	0.198330
N3871	N387	0.168900	0.396690	0.292150
N3881	N388	0.188960	0.406220	0.267000
N3891	N389	0.181700	0.330940	0.287380
N3901	N390	0.201470	0.331710	0.260800
N3911	N391	0.217750	0.170310	0.215520
N3921	N392	0.207840	0.156610	0.170530
N3931	N393	0.146740	0.172170	0.206330
N3941	N394	0.130570	0.162000	0.161670
N3951	N395	0.149570	0.099890	0.194560
N3961	N396	0.131570	0.081360	0.148530
N3971	N397	0.500250	0.104200	0.446650
N3981	N398	0.512000	0.995660	0.453780
N3991	N399	0.658510	0.147740	0.386570
N4001	N400	0.714300	0.127900	0.460640
N4011	N401	0.601270	0.082370	0.415460
N4021	N402	0.642270	0.044500	0.358490
N4031	N403	0.585640	0.875860	0.268760
N4041	N404	0.619050	0.921380	0.301670
N4051	N405	0.604540	0.876750	0.207850
N4061	N406	0.639220	0.921960	0.233000
N4071	N407	0.543560	0.894320	0.212620
N4081	N408	0.570910	0.940670	0.239200
N4091	N409	0.454790	0.002230	0.284480
N4101	N410	0.486080	0.037310	0.329470
N4111	N411	0.465840	0.940410	0.293670
N4121	N412	0.500330	0.968900	0.338330
N4131	N413	0.405330	0.955010	0.305440
N4141	N414	0.432830	0.983040	0.351470
N4151	N415	0.999750	0.446400	0.603950
N4161	N416	0.988000	0.441780	0.483660
N4171	N417	0.841490	0.228060	0.489230
N4181	N418	0.785700	0.246340	0.413600
N4191	N419	0.898730	0.314190	0.481100
N4201	N420	0.857730	0.216220	0.402230
N4211	N421	0.914360	0.183120	0.290220
N4221	N422	0.880950	0.182620	0.302330
N4231	N423	0.895460	0.103310	0.272210
N4241	N424	0.860780	0.093780	0.282740
N4251	N425	0.956440	0.169060	0.350760
N4261	N426	0.929090	0.168290	0.369760
N4271	N427	0.045210	0.329690	0.547440
N4281	N428	0.013920	0.343390	0.551230
N4291	N429	0.034160	0.327830	0.474570
N4301	N430	0.999670	0.338000	0.468570
N4311	N431	0.094670	0.400110	0.549680
N4321	N432	0.067170	0.418640	0.550210
O11	O1	0.500000	0.426260	0.500000
O21	O2	0.426260	0.000000	0.000000
O31	O3	0.073740	0.073740	0.573740
O41	O4	0.000000	0.500000	0.926260
O51	O5	0.500000	0.926260	0.500000
O61	O6	0.926260	0.000000	0.000000
O71	O7	0.000000	0.500000	0.426260
O81	O8	0.573740	0.573740	0.073740
