data_WIFBAQ_freeONLY_PM
_symmetry_space_group_name_H-M	'P1'
_cell_length_a	11.914400
_cell_length_b	14.014600
_cell_length_c	15.768600
_cell_angle_alpha	91.901700
_cell_angle_beta	112.197000
_cell_angle_gamma	90.000000
_symmetry_Int_Tables_number 1

loop_
_symmetry_equiv_pos_as_xyz
'x,y,z'

loop_
_atom_site_label
_atom_site_type_symbol
_atom_site_fract_x
_atom_site_fract_y
_atom_site_fract_z
Cd11	Cd1	0.447960	0.372460	0.454520
Cd21	Cd2	0.993440	0.127540	0.545480
Cd31	Cd3	0.552040	0.627540	0.545480
Cd41	Cd4	0.006560	0.872460	0.454520
H11	H1	0.310600	0.409900	0.241000
H21	H2	0.331100	0.407500	0.102600
H31	H3	0.689300	0.383100	0.237400
H41	H4	0.657400	0.385900	0.371800
H51	H5	0.648000	0.372400	0.000000
H61	H6	0.691800	0.320800	0.093400
H71	H7	0.699100	0.432400	0.092600
H81	H8	0.228200	0.369700	0.899200
H91	H9	0.184900	0.307300	0.808000
H101	H10	0.181500	0.418900	0.804400
H111	H11	0.193500	0.370300	0.661000
H121	H12	0.235200	0.365300	0.531200
H131	H13	0.578400	0.340000	0.671000
H141	H14	0.549300	0.348500	0.805600
H151	H15	0.102500	0.186100	0.284400
H161	H16	0.202500	0.137300	0.256600
H171	H17	0.135900	0.021600	0.324400
H181	H18	0.263800	0.052200	0.396400
H191	H19	0.069600	0.090100	0.759000
H201	H20	0.228500	0.092500	0.897400
H211	H21	0.451900	0.116900	0.762600
H221	H22	0.285600	0.114100	0.628200
H231	H23	0.648000	0.127600	0.000000
H241	H24	0.598400	0.179200	0.906600
H251	H25	0.606500	0.067600	0.907400
H261	H26	0.329000	0.130300	0.100800
H271	H27	0.376900	0.192700	0.192000
H281	H28	0.377100	0.081100	0.195600
H291	H29	0.532500	0.129700	0.339000
H301	H30	0.704000	0.134700	0.468800
H311	H31	0.907400	0.160000	0.329000
H321	H32	0.743700	0.151500	0.194400
H331	H33	0.818100	0.313900	0.715600
H341	H34	0.945900	0.362700	0.743400
H351	H35	0.811500	0.478400	0.675600
H361	H36	0.867400	0.447800	0.603600
H371	H37	0.689400	0.590100	0.759000
H381	H38	0.668900	0.592500	0.897400
H391	H39	0.310700	0.616900	0.762600
H401	H40	0.342600	0.614100	0.628200
H411	H41	0.352000	0.627600	0.000000
H421	H42	0.308200	0.679200	0.906600
H431	H43	0.300900	0.567600	0.907400
H441	H44	0.771800	0.630300	0.100800
H451	H45	0.815100	0.692700	0.192000
H461	H46	0.818500	0.581100	0.195600
H471	H47	0.806500	0.629700	0.339000
H481	H48	0.764800	0.634700	0.468800
H491	H49	0.421600	0.660000	0.329000
H501	H50	0.450700	0.651500	0.194400
H511	H51	0.897500	0.813900	0.715600
H521	H52	0.797500	0.862700	0.743400
H531	H53	0.864100	0.978400	0.675600
H541	H54	0.736200	0.947800	0.603600
H551	H55	0.930400	0.909900	0.241000
H561	H56	0.771500	0.907500	0.102600
H571	H57	0.548100	0.883100	0.237400
H581	H58	0.714400	0.885900	0.371800
H591	H59	0.352000	0.872400	0.000000
H601	H60	0.401600	0.820800	0.093400
H611	H61	0.393500	0.932400	0.092600
H621	H62	0.671000	0.869700	0.899200
H631	H63	0.623100	0.807300	0.808000
H641	H64	0.622900	0.918900	0.804400
H651	H65	0.467500	0.870300	0.661000
H661	H66	0.296000	0.865300	0.531200
H671	H67	0.092600	0.840000	0.671000
H681	H68	0.256300	0.848500	0.805600
H691	H69	0.181900	0.686100	0.284400
H701	H70	0.054100	0.637300	0.256600
H711	H71	0.188500	0.521600	0.324400
H721	H72	0.132600	0.552200	0.396400
C11	C1	0.387720	0.403000	0.239840
C21	C2	0.398860	0.401400	0.156320
C31	C3	0.512610	0.390600	0.153620
C41	C4	0.610840	0.386900	0.236280
C51	C5	0.590900	0.389000	0.316800
C61	C6	0.527500	0.382900	0.063000
C71	C7	0.652910	0.376600	0.062220
C81	C8	0.225200	0.365600	0.837400
C91	C9	0.349380	0.366900	0.838760
C101	C10	0.367690	0.361100	0.749780
C111	C11	0.273180	0.365300	0.665160
C121	C12	0.299410	0.362100	0.587620
C131	C13	0.500090	0.347900	0.669380
C141	C14	0.483280	0.351900	0.750360
C151	C15	0.274360	0.237500	0.362520
C161	C16	0.182960	0.159100	0.308320
C171	C17	0.181400	0.073400	0.365200
C181	C18	0.126220	0.095000	0.434640
C191	C19	0.147880	0.097000	0.760160
C201	C20	0.242540	0.098600	0.843680
C211	C21	0.358990	0.109400	0.846380
C221	C22	0.374560	0.113100	0.763720
C231	C23	0.274100	0.111000	0.683200
C241	C24	0.464500	0.117100	0.937000
C251	C25	0.590690	0.123400	0.937780
C261	C26	0.387800	0.134400	0.162600
C271	C27	0.510620	0.133100	0.161240
C281	C28	0.617910	0.138900	0.250220
C291	C29	0.608020	0.134700	0.334840
C301	C30	0.711790	0.137900	0.412380
C311	C31	0.830710	0.152100	0.330620
C321	C32	0.732920	0.148100	0.249640
C331	C33	0.911840	0.262500	0.637480
C341	C34	0.874640	0.340900	0.691680
C351	C35	0.816200	0.426600	0.634800
C361	C36	0.691580	0.405000	0.565360
C371	C37	0.612280	0.597000	0.760160
C381	C38	0.601140	0.598600	0.843680
C391	C39	0.487390	0.609400	0.846380
C401	C40	0.389160	0.613100	0.763720
C411	C41	0.409100	0.611000	0.683200
C421	C42	0.472500	0.617100	0.937000
C431	C43	0.347090	0.623400	0.937780
C441	C44	0.774800	0.634400	0.162600
C451	C45	0.650620	0.633100	0.161240
C461	C46	0.632310	0.638900	0.250220
C471	C47	0.726820	0.634700	0.334840
C481	C48	0.700590	0.637900	0.412380
C491	C49	0.499910	0.652100	0.330620
C501	C50	0.516720	0.648100	0.249640
C511	C51	0.725640	0.762500	0.637480
C521	C52	0.817040	0.840900	0.691680
C531	C53	0.818600	0.926600	0.634800
C541	C54	0.873780	0.905000	0.565360
C551	C55	0.852120	0.903000	0.239840
C561	C56	0.757460	0.901400	0.156320
C571	C57	0.641010	0.890600	0.153620
C581	C58	0.625440	0.886900	0.236280
C591	C59	0.725900	0.889000	0.316800
C601	C60	0.535500	0.882900	0.063000
C611	C61	0.409310	0.876600	0.062220
C621	C62	0.612200	0.865600	0.837400
C631	C63	0.489380	0.866900	0.838760
C641	C64	0.382090	0.861100	0.749780
C651	C65	0.391980	0.865300	0.665160
C661	C66	0.288210	0.862100	0.587620
C671	C67	0.169290	0.847900	0.669380
C681	C68	0.267080	0.851900	0.750360
C691	C69	0.088160	0.737500	0.362520
C701	C70	0.125360	0.659100	0.308320
C711	C71	0.183800	0.573400	0.365200
C721	C72	0.308420	0.595000	0.434640
N11	N1	0.481550	0.395100	0.319700
N21	N2	0.427750	0.379900	0.992500
N31	N3	0.445460	0.371500	0.909120
N41	N4	0.409910	0.354600	0.588020
N51	N5	0.161850	0.104900	0.680300
N61	N6	0.435250	0.120100	0.007500
N71	N7	0.536340	0.128500	0.090880
N81	N8	0.821890	0.145400	0.411980
N91	N9	0.518450	0.604900	0.680300
N101	N10	0.572250	0.620100	0.007500
N111	N11	0.554540	0.628500	0.090880
N121	N12	0.590090	0.645400	0.411980
N131	N13	0.838150	0.895100	0.319700
N141	N14	0.564750	0.879900	0.992500
N151	N15	0.463660	0.871500	0.909120
N161	N16	0.178110	0.854600	0.588020
O11	O1	0.379380	0.213100	0.410360
O21	O2	0.243990	0.322900	0.354780
O31	O3	0.120110	0.178200	0.461820
O41	O4	0.082980	0.026900	0.462760
O51	O5	0.969020	0.286900	0.589640
O61	O6	0.889210	0.177100	0.645220
O71	O7	0.658290	0.321800	0.538180
O81	O8	0.620220	0.473100	0.537240
O91	O9	0.620620	0.786900	0.589640
O101	O10	0.756010	0.677100	0.645220
O111	O11	0.879890	0.821800	0.538180
O121	O12	0.917020	0.973100	0.537240
O131	O13	0.030980	0.713100	0.410360
O141	O14	0.110790	0.822900	0.354780
O151	O15	0.341710	0.678200	0.461820
O161	O16	0.379780	0.526900	0.462760
