data_WIKYAQ_freeONLY_PM
_symmetry_space_group_name_H-M	'P1'
_cell_length_a	16.015000
_cell_length_b	21.146000
_cell_length_c	23.843000
_cell_angle_alpha	90.000000
_cell_angle_beta	90.000000
_cell_angle_gamma	90.000000
_symmetry_Int_Tables_number 1

loop_
_symmetry_equiv_pos_as_xyz
'x,y,z'

loop_
_atom_site_label
_atom_site_type_symbol
_atom_site_fract_x
_atom_site_fract_y
_atom_site_fract_z
K11	K1	0.119010	0.094600	0.928370
K21	K2	0.380990	0.905400	0.428370
K31	K3	0.880990	0.594600	0.571630
K41	K4	0.619010	0.405400	0.071630
Co11	Co1	0.733080	0.880200	0.785810
Co21	Co2	0.766920	0.119800	0.285810
Co31	Co3	0.266920	0.380200	0.714190
Co41	Co4	0.233080	0.619800	0.214190
P11	P1	0.497320	0.740220	0.457660
P21	P2	0.002680	0.259780	0.957660
P31	P3	0.502680	0.240220	0.042340
P41	P4	0.997320	0.759780	0.542340
H11	H1	0.033300	0.855800	0.787500
H21	H2	0.723700	0.102300	0.844800
H31	H3	0.593400	0.039300	0.829500
H41	H4	0.431700	0.847600	0.827800
H51	H5	0.763400	0.699100	0.697400
H61	H6	0.810700	0.746100	0.807600
H71	H7	0.782200	0.809500	0.670600
H81	H8	0.874600	0.836200	0.660700
H91	H9	0.857400	0.761600	0.658500
H101	H10	0.968100	0.703700	0.706000
H111	H11	0.001900	0.765700	0.675000
H121	H12	0.055800	0.733800	0.723900
H131	H13	0.938100	0.712500	0.813800
H141	H14	0.927600	0.781200	0.841000
H151	H15	0.108100	0.758900	0.904500
H161	H16	0.014800	0.772000	0.910100
H171	H17	0.990100	0.870400	0.672200
H181	H18	0.012800	0.932200	0.707700
H191	H19	0.125100	0.828300	0.688000
H201	H20	0.148100	0.886700	0.728000
H211	H21	0.166600	0.902100	0.565900
H221	H22	0.129700	0.842800	0.592600
H231	H23	0.999600	0.010400	0.849100
H241	H24	0.033700	0.939500	0.844000
H251	H25	0.037200	0.985700	0.790900
H261	H26	0.928500	0.094200	0.790100
H271	H27	0.882900	0.144400	0.829900
H281	H28	0.952000	0.097800	0.855200
H291	H29	0.774300	0.019600	0.912400
H301	H30	0.815000	0.087700	0.922000
H311	H31	0.934100	0.936000	0.966800
H321	H32	0.847600	0.933800	0.940200
H331	H33	0.800200	0.082100	0.736100
H341	H34	0.779900	0.149400	0.763700
H351	H35	0.655600	0.062700	0.724600
H361	H36	0.634500	0.129000	0.753100
H371	H37	0.735300	0.192500	0.622300
H381	H38	0.779000	0.179400	0.677900
H391	H39	0.436600	0.914100	0.912200
H401	H40	0.529100	0.886100	0.906700
H411	H41	0.515600	0.959700	0.919200
H421	H42	0.449800	0.012400	0.785900
H431	H43	0.377000	0.981900	0.823200
H441	H44	0.444900	0.027300	0.851700
H451	H45	0.441200	0.843100	0.723900
H461	H46	0.463000	0.916700	0.725700
H471	H47	0.319300	0.891500	0.703600
H481	H48	0.332200	0.944300	0.750500
H491	H49	0.242400	0.783500	0.791200
H501	H50	0.302800	0.788200	0.742000
H511	H51	0.442700	0.759600	0.800700
H521	H52	0.474300	0.729500	0.742900
H531	H53	0.503200	0.699400	0.801300
H541	H54	0.615300	0.664400	0.838700
H551	H55	0.671500	0.608100	0.814600
H561	H56	0.714900	0.668400	0.842700
H571	H57	0.641800	0.609500	0.713100
H581	H58	0.561100	0.642900	0.738700
H591	H59	0.648000	0.678100	0.638600
H601	H60	0.589900	0.729200	0.669000
H611	H61	0.583400	0.632500	0.568300
H621	H62	0.803700	0.619000	0.793600
H631	H63	0.878800	0.645700	0.756000
H641	H64	0.795800	0.491100	0.715700
H651	H65	0.805800	0.520000	0.773900
H661	H66	0.420500	0.587900	0.578800
H671	H67	0.483400	0.567100	0.530100
H681	H68	0.400300	0.685900	0.534100
H691	H69	0.368400	0.574600	0.467000
H701	H70	0.302100	0.609600	0.506400
H711	H71	0.332200	0.642300	0.449400
H721	H72	0.566800	0.948300	0.559900
H731	H73	0.641800	0.867600	0.520100
H741	H74	0.500800	0.854000	0.501100
H751	H75	0.473100	0.801500	0.611400
H761	H76	0.345600	0.854900	0.609700
H771	H77	0.352100	0.810600	0.555400
H781	H78	0.673700	0.786800	0.570700
H791	H79	0.314000	0.902600	0.528300
H801	H80	0.603500	0.866600	0.692100
H811	H81	0.868500	0.973900	0.705200
H821	H82	0.695700	0.013200	0.548800
H831	H83	0.970400	0.042000	0.673500
H841	H84	0.978700	0.043400	0.606600
H851	H85	0.936000	0.101400	0.638900
H861	H86	0.793400	0.080400	0.509200
H871	H87	0.845000	0.121600	0.553600
H881	H88	0.888300	0.062700	0.523200
H891	H89	0.466700	0.144200	0.287500
H901	H90	0.776300	0.897700	0.344800
H911	H91	0.906600	0.960700	0.329500
H921	H92	0.068300	0.152400	0.327800
H931	H93	0.736600	0.300900	0.197400
H941	H94	0.689300	0.253900	0.307600
H951	H95	0.717800	0.190500	0.170600
H961	H96	0.625400	0.163800	0.160700
H971	H97	0.642600	0.238400	0.158500
H981	H98	0.531900	0.296300	0.206000
H991	H99	0.498100	0.234300	0.175000
H1001	H100	0.444200	0.266200	0.223900
H1011	H101	0.561900	0.287500	0.313800
H1021	H102	0.572400	0.218800	0.341000
H1031	H103	0.391900	0.241100	0.404500
H1041	H104	0.485200	0.228000	0.410100
H1051	H105	0.509900	0.129600	0.172200
H1061	H106	0.487200	0.067800	0.207700
H1071	H107	0.374900	0.171700	0.188000
H1081	H108	0.351900	0.113300	0.228000
H1091	H109	0.333400	0.097900	0.065900
H1101	H110	0.370300	0.157200	0.092600
H1111	H111	0.500400	0.989600	0.349100
H1121	H112	0.466300	0.060500	0.344000
H1131	H113	0.462800	0.014300	0.290900
H1141	H114	0.571500	0.905800	0.290100
H1151	H115	0.617100	0.855600	0.329900
H1161	H116	0.548000	0.902200	0.355200
H1171	H117	0.725700	0.980400	0.412400
H1181	H118	0.685000	0.912300	0.422000
H1191	H119	0.565900	0.064000	0.466800
H1201	H120	0.652400	0.066200	0.440200
H1211	H121	0.699800	0.917900	0.236100
H1221	H122	0.720100	0.850600	0.263700
H1231	H123	0.844400	0.937300	0.224600
H1241	H124	0.865500	0.871000	0.253100
H1251	H125	0.764700	0.807500	0.122300
H1261	H126	0.721000	0.820600	0.177900
H1271	H127	0.063400	0.085900	0.412200
H1281	H128	0.970900	0.113900	0.406700
H1291	H129	0.984400	0.040300	0.419200
H1301	H130	0.050200	0.987600	0.285900
H1311	H131	0.123000	0.018100	0.323200
H1321	H132	0.055100	0.972700	0.351700
H1331	H133	0.058800	0.156900	0.223900
H1341	H134	0.037000	0.083300	0.225700
H1351	H135	0.180700	0.108500	0.203600
H1361	H136	0.167800	0.055700	0.250500
H1371	H137	0.257600	0.216500	0.291200
H1381	H138	0.197200	0.211800	0.242000
H1391	H139	0.057300	0.240400	0.300700
H1401	H140	0.025700	0.270500	0.242900
H1411	H141	0.996800	0.300600	0.301300
H1421	H142	0.884700	0.335600	0.338700
H1431	H143	0.828500	0.391900	0.314600
H1441	H144	0.785100	0.331600	0.342700
H1451	H145	0.858200	0.390500	0.213100
H1461	H146	0.938900	0.357100	0.238700
H1471	H147	0.852000	0.321900	0.138600
H1481	H148	0.910100	0.270800	0.169000
H1491	H149	0.916600	0.367500	0.068300
H1501	H150	0.696300	0.381000	0.293600
H1511	H151	0.621200	0.354300	0.256000
H1521	H152	0.704200	0.508900	0.215700
H1531	H153	0.694200	0.480000	0.273900
H1541	H154	0.079500	0.412100	0.078800
H1551	H155	0.016600	0.432900	0.030100
H1561	H156	0.099700	0.314100	0.034100
H1571	H157	0.131600	0.425400	0.967000
H1581	H158	0.197900	0.390400	0.006400
H1591	H159	0.167800	0.357700	0.949400
H1601	H160	0.933200	0.051700	0.059900
H1611	H161	0.858200	0.132400	0.020100
H1621	H162	0.999200	0.146000	0.001100
H1631	H163	0.026900	0.198500	0.111400
H1641	H164	0.154400	0.145100	0.109700
H1651	H165	0.147900	0.189400	0.055400
H1661	H166	0.826300	0.213200	0.070700
H1671	H167	0.186000	0.097400	0.028300
H1681	H168	0.896500	0.133400	0.192100
H1691	H169	0.631500	0.026100	0.205200
H1701	H170	0.804300	0.986800	0.048800
H1711	H171	0.529600	0.958000	0.173500
H1721	H172	0.521300	0.956600	0.106600
H1731	H173	0.564000	0.898600	0.138900
H1741	H174	0.706600	0.919600	0.009200
H1751	H175	0.655000	0.878400	0.053600
H1761	H176	0.611700	0.937300	0.023200
H1771	H177	0.966700	0.355800	0.712500
H1781	H178	0.276300	0.602300	0.655200
H1791	H179	0.406600	0.539300	0.670500
H1801	H180	0.568300	0.347600	0.672200
H1811	H181	0.236600	0.199100	0.802600
H1821	H182	0.189300	0.246100	0.692400
H1831	H183	0.217800	0.309500	0.829400
H1841	H184	0.125400	0.336200	0.839300
H1851	H185	0.142600	0.261600	0.841500
H1861	H186	0.031900	0.203700	0.794000
H1871	H187	0.998100	0.265700	0.825000
H1881	H188	0.944200	0.233800	0.776100
H1891	H189	0.061900	0.212500	0.686200
H1901	H190	0.072400	0.281200	0.659000
H1911	H191	0.891900	0.258900	0.595500
H1921	H192	0.985200	0.272000	0.589900
H1931	H193	0.009900	0.370400	0.827800
H1941	H194	0.987200	0.432200	0.792300
H1951	H195	0.874900	0.328300	0.812000
H1961	H196	0.851900	0.386700	0.772000
H1971	H197	0.833400	0.402100	0.934100
H1981	H198	0.870300	0.342800	0.907400
H1991	H199	0.000400	0.510400	0.650900
H2001	H200	0.966300	0.439500	0.656000
H2011	H201	0.962800	0.485700	0.709100
H2021	H202	0.071500	0.594200	0.709900
H2031	H203	0.117100	0.644400	0.670100
H2041	H204	0.048000	0.597800	0.644800
H2051	H205	0.225700	0.519600	0.587600
H2061	H206	0.185000	0.587700	0.578000
H2071	H207	0.065900	0.436000	0.533200
H2081	H208	0.152400	0.433800	0.559800
H2091	H209	0.199800	0.582100	0.763900
H2101	H210	0.220100	0.649400	0.736300
H2111	H211	0.344400	0.562700	0.775400
H2121	H212	0.365500	0.629000	0.746900
H2131	H213	0.264700	0.692500	0.877700
H2141	H214	0.221000	0.679400	0.822100
H2151	H215	0.563400	0.414100	0.587800
H2161	H216	0.470900	0.386100	0.593300
H2171	H217	0.484400	0.459700	0.580800
H2181	H218	0.550200	0.512400	0.714100
H2191	H219	0.623000	0.481900	0.676800
H2201	H220	0.555100	0.527300	0.648300
H2211	H221	0.558800	0.343100	0.776100
H2221	H222	0.537000	0.416700	0.774300
H2231	H223	0.680700	0.391500	0.796400
H2241	H224	0.667800	0.444300	0.749500
H2251	H225	0.757600	0.283500	0.708800
H2261	H226	0.697200	0.288200	0.758000
H2271	H227	0.557300	0.259600	0.699300
H2281	H228	0.525700	0.229500	0.757100
H2291	H229	0.496800	0.199400	0.698700
H2301	H230	0.384700	0.164400	0.661300
H2311	H231	0.328500	0.108100	0.685400
H2321	H232	0.285100	0.168400	0.657300
H2331	H233	0.358200	0.109500	0.786900
H2341	H234	0.438900	0.142900	0.761300
H2351	H235	0.352000	0.178100	0.861400
H2361	H236	0.410100	0.229200	0.831000
H2371	H237	0.416600	0.132500	0.931700
H2381	H238	0.196300	0.119000	0.706400
H2391	H239	0.121200	0.145700	0.744000
H2401	H240	0.204200	0.991100	0.784300
H2411	H241	0.194200	0.020000	0.726100
H2421	H242	0.579500	0.087900	0.921200
H2431	H243	0.516600	0.067100	0.969900
H2441	H244	0.599700	0.185900	0.965900
H2451	H245	0.631600	0.074600	0.033000
H2461	H246	0.697900	0.109600	0.993600
H2471	H247	0.667800	0.142300	0.050600
H2481	H248	0.433200	0.448300	0.940100
H2491	H249	0.358200	0.367600	0.979900
H2501	H250	0.499200	0.354000	0.998900
H2511	H251	0.526900	0.301500	0.888600
H2521	H252	0.654400	0.354900	0.890300
H2531	H253	0.647900	0.310600	0.944600
H2541	H254	0.326300	0.286800	0.929300
H2551	H255	0.686000	0.402600	0.971700
H2561	H256	0.396500	0.366600	0.807900
H2571	H257	0.131500	0.473900	0.794800
H2581	H258	0.304300	0.513200	0.951200
H2591	H259	0.029600	0.542000	0.826500
H2601	H260	0.021300	0.543400	0.893400
H2611	H261	0.064000	0.601400	0.861100
H2621	H262	0.206600	0.580400	0.990800
H2631	H263	0.155000	0.621600	0.946400
H2641	H264	0.111700	0.562700	0.976800
H2651	H265	0.533300	0.644200	0.212500
H2661	H266	0.223700	0.397700	0.155200
H2671	H267	0.093400	0.460700	0.170500
H2681	H268	0.931700	0.652400	0.172200
H2691	H269	0.263400	0.800900	0.302600
H2701	H270	0.310700	0.753900	0.192400
H2711	H271	0.282200	0.690500	0.329400
H2721	H272	0.374600	0.663800	0.339300
H2731	H273	0.357400	0.738400	0.341500
H2741	H274	0.468100	0.796300	0.294000
H2751	H275	0.501900	0.734300	0.325000
H2761	H276	0.555800	0.766200	0.276100
H2771	H277	0.438100	0.787500	0.186200
H2781	H278	0.427600	0.718800	0.159000
H2791	H279	0.608100	0.741100	0.095500
H2801	H280	0.514800	0.728000	0.089900
H2811	H281	0.490100	0.629600	0.327800
H2821	H282	0.512800	0.567800	0.292300
H2831	H283	0.625100	0.671700	0.312000
H2841	H284	0.648100	0.613300	0.272000
H2851	H285	0.666600	0.597900	0.434100
H2861	H286	0.629700	0.657200	0.407400
H2871	H287	0.499600	0.489600	0.150900
H2881	H288	0.533700	0.560500	0.156000
H2891	H289	0.537200	0.514300	0.209100
H2901	H290	0.428500	0.405800	0.209900
H2911	H291	0.382900	0.355600	0.170100
H2921	H292	0.452000	0.402200	0.144800
H2931	H293	0.274300	0.480400	0.087600
H2941	H294	0.315000	0.412300	0.078000
H2951	H295	0.434100	0.564000	0.033200
H2961	H296	0.347600	0.566200	0.059800
H2971	H297	0.300200	0.417900	0.263900
H2981	H298	0.279900	0.350600	0.236300
H2991	H299	0.155600	0.437300	0.275400
H3001	H300	0.134500	0.371000	0.246900
H3011	H301	0.235300	0.307500	0.377700
H3021	H302	0.279000	0.320600	0.322100
H3031	H303	0.936600	0.585900	0.087800
H3041	H304	0.029100	0.613900	0.093300
H3051	H305	0.015600	0.540300	0.080800
H3061	H306	0.949800	0.487600	0.214100
H3071	H307	0.877000	0.518100	0.176800
H3081	H308	0.944900	0.472700	0.148300
H3091	H309	0.941200	0.656900	0.276100
H3101	H310	0.963000	0.583300	0.274300
H3111	H311	0.819300	0.608500	0.296400
H3121	H312	0.832200	0.555700	0.249500
H3131	H313	0.742400	0.716500	0.208800
H3141	H314	0.802800	0.711800	0.258000
H3151	H315	0.942700	0.740400	0.199300
H3161	H316	0.974300	0.770500	0.257100
H3171	H317	0.003200	0.800600	0.198700
H3181	H318	0.115300	0.835600	0.161300
H3191	H319	0.171500	0.891900	0.185400
H3201	H320	0.214900	0.831600	0.157300
H3211	H321	0.141800	0.890500	0.286900
H3221	H322	0.061100	0.857100	0.261300
H3231	H323	0.148000	0.821900	0.361400
H3241	H324	0.089900	0.770800	0.331000
H3251	H325	0.083400	0.867500	0.431700
H3261	H326	0.303700	0.881000	0.206400
H3271	H327	0.378800	0.854300	0.244000
H3281	H328	0.295800	0.008900	0.284300
H3291	H329	0.305800	0.980000	0.226100
H3301	H330	0.920500	0.912100	0.421200
H3311	H331	0.983400	0.932900	0.469900
H3321	H332	0.900300	0.814100	0.465900
H3331	H333	0.868400	0.925400	0.533000
H3341	H334	0.802100	0.890400	0.493600
H3351	H335	0.832200	0.857700	0.550600
H3361	H336	0.066800	0.551700	0.440100
H3371	H337	0.141800	0.632400	0.479900
H3381	H338	0.000800	0.646000	0.498900
H3391	H339	0.973100	0.698500	0.388600
H3401	H340	0.845600	0.645100	0.390300
H3411	H341	0.852100	0.689400	0.444600
H3421	H342	0.173700	0.713200	0.429300
H3431	H343	0.814000	0.597400	0.471700
H3441	H344	0.103500	0.633400	0.307900
H3451	H345	0.368500	0.526100	0.294800
H3461	H346	0.195700	0.486800	0.451200
H3471	H347	0.470400	0.458000	0.326500
H3481	H348	0.478700	0.456600	0.393400
H3491	H349	0.436000	0.398600	0.361100
H3501	H350	0.293400	0.419600	0.490800
H3511	H351	0.345000	0.378400	0.446400
H3521	H352	0.388300	0.437300	0.476800
C11	C1	0.750500	0.859300	0.861000
C21	C2	0.859300	0.796800	0.740900
C31	C3	0.954000	0.785300	0.754800
C41	C4	0.988900	0.854200	0.758000
C51	C5	0.913000	0.890100	0.779200
C61	C6	0.915900	0.950800	0.805900
C71	C7	0.848000	0.986400	0.815900
C81	C8	0.837900	0.052500	0.841200
C91	C9	0.753200	0.074100	0.817600
C101	C10	0.709400	0.010400	0.812900
C111	C11	0.624900	0.002500	0.820800
C121	C12	0.581600	0.946600	0.817300
C131	C13	0.492400	0.936600	0.835200
C141	C14	0.468800	0.874600	0.804000
C151	C15	0.555500	0.843800	0.797100
C161	C16	0.565600	0.782700	0.782600
C171	C17	0.649500	0.756900	0.770700
C181	C18	0.670800	0.687200	0.761700
C191	C19	0.763700	0.693400	0.739000
C201	C20	0.792800	0.756100	0.768400
C211	C21	0.841700	0.801500	0.676700
C221	C22	0.999100	0.743300	0.710900
C231	C23	0.961700	0.755800	0.814700
C241	C24	0.048900	0.752400	0.836600
C251	C25	0.022200	0.886100	0.704800
C261	C26	0.115800	0.874000	0.694400
C271	C27	0.145400	0.910800	0.644700
C281	C28	0.004900	0.973700	0.824200
C291	C29	0.906600	0.101800	0.827900
C301	C30	0.825200	0.045200	0.905900
C311	C31	0.897800	0.014500	0.938200
C321	C32	0.759200	0.105600	0.759200
C331	C33	0.675100	0.106900	0.728700
C341	C34	0.672900	0.138100	0.671000
C351	C35	0.493500	0.922900	0.899200
C361	C36	0.435800	0.995000	0.822900
C371	C37	0.431800	0.882700	0.745100
C381	C38	0.338600	0.898600	0.742500
C391	C39	0.284300	0.864900	0.779000
C401	C40	0.489600	0.738800	0.781800
C411	C41	0.667800	0.654000	0.819800
C421	C42	0.615500	0.651000	0.720400
C431	C43	0.598500	0.683400	0.663000
C441	C44	0.523700	0.656400	0.634400
C451	C45	0.819100	0.633700	0.755500
C461	C46	0.805700	0.581900	0.714600
C471	C47	0.462600	0.603800	0.551800
C481	C48	0.421700	0.648400	0.513000
C491	C49	0.349500	0.615700	0.481000
C501	C50	0.576000	0.911600	0.585700
C511	C51	0.605600	0.855100	0.552400
C521	C52	0.522700	0.828700	0.533400
C531	C53	0.466300	0.838200	0.585400
C541	C54	0.375700	0.848500	0.573900
C551	C55	0.643000	0.896800	0.679300
C561	C56	0.833200	0.982400	0.674100
C571	C57	0.859200	0.023400	0.633300
C581	C58	0.806800	0.036200	0.585300
C591	C59	0.730400	0.006000	0.580500
C601	C60	0.705200	0.964600	0.623200
C611	C61	0.754800	0.952500	0.670500
C621	C62	0.943500	0.055400	0.638600
C631	C63	0.835900	0.079000	0.538800
C641	C64	0.749500	0.140700	0.361000
C651	C65	0.640700	0.203200	0.240900
C661	C66	0.546000	0.214700	0.254800
C671	C67	0.511100	0.145800	0.258000
C681	C68	0.587000	0.109900	0.279200
C691	C69	0.584100	0.049200	0.305900
C701	C70	0.652000	0.013600	0.315900
C711	C71	0.662100	0.947500	0.341200
C721	C72	0.746800	0.925900	0.317600
C731	C73	0.790600	0.989600	0.312900
C741	C74	0.875100	0.997500	0.320800
C751	C75	0.918400	0.053400	0.317300
C761	C76	0.007600	0.063400	0.335200
C771	C77	0.031200	0.125400	0.304000
C781	C78	0.944500	0.156200	0.297100
C791	C79	0.934400	0.217300	0.282600
C801	C80	0.850500	0.243100	0.270700
C811	C81	0.829200	0.312800	0.261700
C821	C82	0.736300	0.306600	0.239000
C831	C83	0.707200	0.243900	0.268400
C841	C84	0.658300	0.198500	0.176700
C851	C85	0.500900	0.256700	0.210900
C861	C86	0.538300	0.244200	0.314700
C871	C87	0.451100	0.247600	0.336600
C881	C88	0.477800	0.113900	0.204800
C891	C89	0.384200	0.126000	0.194400
C901	C90	0.354600	0.089200	0.144700
C911	C91	0.495100	0.026300	0.324200
C921	C92	0.593400	0.898200	0.327900
C931	C93	0.674800	0.954800	0.405900
C941	C94	0.602200	0.985500	0.438200
C951	C95	0.740800	0.894400	0.259200
C961	C96	0.824900	0.893100	0.228700
C971	C97	0.827100	0.861900	0.171000
C981	C98	0.006500	0.077100	0.399200
C991	C99	0.064200	0.005000	0.322900
C1001	C100	0.068200	0.117300	0.245100
C1011	C101	0.161400	0.101400	0.242500
C1021	C102	0.215700	0.135100	0.279000
C1031	C103	0.010400	0.261200	0.281800
C1041	C104	0.832200	0.346000	0.319800
C1051	C105	0.884500	0.349000	0.220400
C1061	C106	0.901500	0.316600	0.163000
C1071	C107	0.976300	0.343600	0.134400
C1081	C108	0.680900	0.366300	0.255500
C1091	C109	0.694300	0.418100	0.214600
C1101	C110	0.037400	0.396200	0.051800
C1111	C111	0.078300	0.351600	0.013000
C1121	C112	0.150500	0.384300	0.981000
C1131	C113	0.924000	0.088400	0.085700
C1141	C114	0.894400	0.144900	0.052400
C1151	C115	0.977300	0.171300	0.033400
C1161	C116	0.033700	0.161800	0.085400
C1171	C117	0.124300	0.151500	0.073900
C1181	C118	0.857000	0.103200	0.179300
C1191	C119	0.666800	0.017600	0.174100
C1201	C120	0.640800	0.976600	0.133300
C1211	C121	0.693200	0.963800	0.085300
C1221	C122	0.769600	0.994000	0.080500
C1231	C123	0.794800	0.035400	0.123200
C1241	C124	0.745200	0.047500	0.170500
C1251	C125	0.556500	0.944600	0.138600
C1261	C126	0.664100	0.921000	0.038800
C1271	C127	0.249500	0.359300	0.639000
C1281	C128	0.140700	0.296800	0.759100
C1291	C129	0.046000	0.285300	0.745200
C1301	C130	0.011100	0.354200	0.742000
C1311	C131	0.087000	0.390100	0.720800
C1321	C132	0.084100	0.450800	0.694100
C1331	C133	0.152000	0.486400	0.684100
C1341	C134	0.162100	0.552500	0.658800
C1351	C135	0.246800	0.574100	0.682400
C1361	C136	0.290600	0.510400	0.687100
C1371	C137	0.375100	0.502500	0.679200
C1381	C138	0.418400	0.446600	0.682700
C1391	C139	0.507600	0.436600	0.664800
C1401	C140	0.531200	0.374600	0.696000
C1411	C141	0.444500	0.343800	0.702900
C1421	C142	0.434400	0.282700	0.717400
C1431	C143	0.350500	0.256900	0.729300
C1441	C144	0.329200	0.187200	0.738300
C1451	C145	0.236300	0.193400	0.761000
C1461	C146	0.207200	0.256100	0.731600
C1471	C147	0.158300	0.301500	0.823300
C1481	C148	0.000900	0.243300	0.789100
C1491	C149	0.038300	0.255800	0.685300
C1501	C150	0.951100	0.252400	0.663400
C1511	C151	0.977800	0.386100	0.795200
C1521	C152	0.884200	0.374000	0.805600
C1531	C153	0.854600	0.410800	0.855300
C1541	C154	0.995100	0.473700	0.675800
C1551	C155	0.093400	0.601800	0.672100
C1561	C156	0.174800	0.545200	0.594100
C1571	C157	0.102200	0.514500	0.561800
C1581	C158	0.240800	0.605600	0.740800
C1591	C159	0.324900	0.606900	0.771300
C1601	C160	0.327100	0.638100	0.829000
C1611	C161	0.506500	0.422900	0.600800
C1621	C162	0.564200	0.495000	0.677100
C1631	C163	0.568200	0.382700	0.754900
C1641	C164	0.661400	0.398600	0.757500
C1651	C165	0.715700	0.364900	0.721000
C1661	C166	0.510400	0.238800	0.718200
C1671	C167	0.332200	0.154000	0.680200
C1681	C168	0.384500	0.151000	0.779600
C1691	C169	0.401500	0.183400	0.837000
C1701	C170	0.476300	0.156400	0.865600
C1711	C171	0.180900	0.133700	0.744500
C1721	C172	0.194300	0.081900	0.785400
C1731	C173	0.537400	0.103800	0.948200
C1741	C174	0.578300	0.148400	0.987000
C1751	C175	0.650500	0.115700	0.019000
C1761	C176	0.424000	0.411600	0.914300
C1771	C177	0.394400	0.355100	0.947600
C1781	C178	0.477300	0.328700	0.966600
C1791	C179	0.533700	0.338200	0.914600
C1801	C180	0.624300	0.348500	0.926100
C1811	C181	0.357000	0.396800	0.820700
C1821	C182	0.166800	0.482400	0.825900
C1831	C183	0.140800	0.523400	0.866700
C1841	C184	0.193200	0.536200	0.914700
C1851	C185	0.269600	0.506000	0.919500
C1861	C186	0.294800	0.464600	0.876800
C1871	C187	0.245200	0.452500	0.829500
C1881	C188	0.056500	0.555400	0.861400
C1891	C189	0.164100	0.579000	0.961200
C1901	C190	0.250500	0.640700	0.139000
C1911	C191	0.359300	0.703200	0.259100
C1921	C192	0.454000	0.714700	0.245200
C1931	C193	0.488900	0.645800	0.242000
C1941	C194	0.413000	0.609900	0.220800
C1951	C195	0.415900	0.549200	0.194100
C1961	C196	0.348000	0.513600	0.184100
C1971	C197	0.337900	0.447500	0.158800
C1981	C198	0.253200	0.425900	0.182400
C1991	C199	0.209400	0.489600	0.187100
C2001	C200	0.124900	0.497500	0.179200
C2011	C201	0.081600	0.553400	0.182700
C2021	C202	0.992400	0.563400	0.164800
C2031	C203	0.968800	0.625400	0.196000
C2041	C204	0.055500	0.656200	0.202900
C2051	C205	0.065600	0.717300	0.217400
C2061	C206	0.149500	0.743100	0.229300
C2071	C207	0.170800	0.812800	0.238300
C2081	C208	0.263700	0.806600	0.261000
C2091	C209	0.292800	0.743900	0.231600
C2101	C210	0.341700	0.698500	0.323300
C2111	C211	0.499100	0.756700	0.289100
C2121	C212	0.461700	0.744200	0.185300
C2131	C213	0.548900	0.747600	0.163400
C2141	C214	0.522200	0.613900	0.295200
C2151	C215	0.615800	0.626000	0.305600
C2161	C216	0.645400	0.589200	0.355300
C2171	C217	0.504900	0.526300	0.175800
C2181	C218	0.406600	0.398200	0.172100
C2191	C219	0.325200	0.454800	0.094100
C2201	C220	0.397800	0.485500	0.061800
C2211	C221	0.259200	0.394400	0.240800
C2221	C222	0.175100	0.393100	0.271300
C2231	C223	0.172900	0.361900	0.329000
C2241	C224	0.993500	0.577100	0.100800
C2251	C225	0.935800	0.505000	0.177100
C2261	C226	0.931800	0.617300	0.254900
C2271	C227	0.838600	0.601400	0.257500
C2281	C228	0.784300	0.635100	0.221000
C2291	C229	0.989600	0.761200	0.218200
C2301	C230	0.167800	0.846000	0.180200
C2311	C231	0.115500	0.849000	0.279600
C2321	C232	0.098500	0.816600	0.337000
C2331	C233	0.023700	0.843600	0.365600
C2341	C234	0.319100	0.866300	0.244500
C2351	C235	0.305700	0.918100	0.285400
C2361	C236	0.962600	0.896200	0.448200
C2371	C237	0.921700	0.851600	0.487000
C2381	C238	0.849500	0.884300	0.519000
C2391	C239	0.076000	0.588400	0.414300
C2401	C240	0.105600	0.644900	0.447600
C2411	C241	0.022700	0.671300	0.466600
C2421	C242	0.966300	0.661800	0.414600
C2431	C243	0.875700	0.651500	0.426100
C2441	C244	0.143000	0.603200	0.320700
C2451	C245	0.333200	0.517600	0.325900
C2461	C246	0.359200	0.476600	0.366700
C2471	C247	0.306800	0.463800	0.414700
C2481	C248	0.230400	0.494000	0.419500
C2491	C249	0.205200	0.535400	0.376800
C2501	C250	0.254800	0.547500	0.329500
C2511	C251	0.443500	0.444600	0.361400
C2521	C252	0.335900	0.421000	0.461200
N11	N1	0.764300	0.849900	0.907000
N21	N2	0.843300	0.860200	0.768000
N31	N3	0.764800	0.964400	0.804300
N41	N4	0.616900	0.890700	0.800700
N51	N5	0.714900	0.793300	0.770400
N61	N6	0.058200	0.762100	0.889200
N71	N7	0.147500	0.882000	0.595600
N81	N8	0.892600	0.955200	0.949600
N91	N9	0.736100	0.174000	0.655300
N101	N10	0.275600	0.806200	0.769800
N111	N11	0.533500	0.632000	0.583700
N121	N12	0.802000	0.524500	0.737300
N131	N13	0.634100	0.929600	0.630200
N141	N14	0.710700	0.910900	0.706600
N151	N15	0.735700	0.150100	0.407000
N161	N16	0.656700	0.139800	0.268000
N171	N17	0.735200	0.035600	0.304300
N181	N18	0.883100	0.109300	0.300700
N191	N19	0.785100	0.206700	0.270400
N201	N20	0.441800	0.237900	0.389200
N211	N21	0.352500	0.118000	0.095600
N221	N22	0.607400	0.044800	0.449600
N231	N23	0.763900	0.826000	0.155300
N241	N24	0.224400	0.193800	0.269800
N251	N25	0.966500	0.368000	0.083700
N261	N26	0.698000	0.475500	0.237300
N271	N27	0.865900	0.070400	0.130200
N281	N28	0.789300	0.089100	0.206600
N291	N29	0.235700	0.349900	0.593000
N301	N30	0.156700	0.360200	0.732000
N311	N31	0.235200	0.464400	0.695700
N321	N32	0.383100	0.390700	0.699300
N331	N33	0.285100	0.293300	0.729600
N341	N34	0.941800	0.262100	0.610800
N351	N35	0.852500	0.382000	0.904400
N361	N36	0.107400	0.455200	0.550400
N371	N37	0.263900	0.674000	0.844700
N381	N38	0.724400	0.306200	0.730200
N391	N39	0.466500	0.132000	0.916300
N401	N40	0.198000	0.024500	0.762700
N411	N41	0.365900	0.429600	0.869800
N421	N42	0.289300	0.410900	0.793400
N431	N43	0.264300	0.650100	0.093000
N441	N44	0.343300	0.639800	0.232000
N451	N45	0.264800	0.535600	0.195700
N461	N46	0.116900	0.609300	0.199300
N471	N47	0.214900	0.706700	0.229600
N481	N48	0.558200	0.737900	0.110800
N491	N49	0.647500	0.618000	0.404400
N501	N50	0.392600	0.544800	0.050400
N511	N51	0.236100	0.326000	0.344700
N521	N52	0.775600	0.693800	0.230200
N531	N53	0.033500	0.868000	0.416300
N541	N54	0.302000	0.975500	0.262700
N551	N55	0.134100	0.570400	0.369800
N561	N56	0.210700	0.589100	0.293400
Cl11	Cl1	0.302000	0.082600	0.967500
Cl21	Cl2	0.198000	0.917400	0.467500
Cl31	Cl3	0.698000	0.582600	0.532500
Cl41	Cl4	0.802000	0.417400	0.032500
O11	O1	0.112500	0.739000	0.810900
O21	O2	0.169700	0.967400	0.653100
O31	O3	0.960500	0.047200	0.950700
O41	O4	0.610800	0.129100	0.640300
O51	O5	0.248100	0.898800	0.818900
O61	O6	0.453500	0.657300	0.657800
O71	O7	0.800900	0.592700	0.663600
O81	O8	0.526600	0.763800	0.518600
O91	O9	0.482300	0.668200	0.471100
O101	O10	0.418200	0.773200	0.442300
O111	O11	0.568600	0.741400	0.417100
O121	O12	0.499700	0.894900	0.611900
O131	O13	0.646600	0.813600	0.589300
O141	O14	0.363900	0.901500	0.539300
O151	O15	0.387500	0.261000	0.310900
O161	O16	0.330300	0.032600	0.153100
O171	O17	0.539500	0.952800	0.450700
O181	O18	0.889200	0.870900	0.140300
O191	O19	0.251900	0.101200	0.318900
O201	O20	0.046500	0.342700	0.157800
O211	O21	0.699100	0.407300	0.163600
O221	O22	0.973400	0.236200	0.018600
O231	O23	0.017700	0.331800	0.971100
O241	O24	0.081800	0.226800	0.942300
O251	O25	0.931400	0.258600	0.917100
O261	O26	0.000300	0.105100	0.111900
O271	O27	0.853400	0.186400	0.089300
O281	O28	0.136100	0.098500	0.039300
O291	O29	0.887500	0.239000	0.689100
O301	O30	0.830300	0.467400	0.846900
O311	O31	0.039500	0.547200	0.549300
O321	O32	0.389200	0.629100	0.859700
O331	O33	0.751900	0.398800	0.681100
O341	O34	0.546500	0.157300	0.842200
O351	O35	0.199100	0.092700	0.836400
O361	O36	0.473400	0.263800	0.981400
O371	O37	0.517700	0.168200	0.028900
O381	O38	0.581800	0.273200	0.057700
O391	O39	0.431400	0.241400	0.082900
O401	O40	0.500300	0.394900	0.888100
O411	O41	0.353400	0.313600	0.910700
O421	O42	0.636100	0.401500	0.960700
O431	O43	0.612500	0.761000	0.189100
O441	O44	0.669700	0.532600	0.346900
O451	O45	0.460500	0.452800	0.049300
O461	O46	0.110800	0.370900	0.359700
O471	O47	0.748100	0.601200	0.181100
O481	O48	0.953500	0.842700	0.342200
O491	O49	0.300900	0.907300	0.336400
O501	O50	0.026600	0.736200	0.481400
O511	O51	0.982300	0.831800	0.528900
O521	O52	0.918200	0.726800	0.557700
O531	O53	0.068600	0.758600	0.582900
O541	O54	0.999700	0.605100	0.388100
O551	O55	0.146600	0.686400	0.410700
O561	O56	0.863900	0.598500	0.460700
