data_WISVEB_freeONLY_PM
_symmetry_space_group_name_H-M	'P1'
_cell_length_a	14.319000
_cell_length_b	14.490000
_cell_length_c	22.598000
_cell_angle_alpha	90.000000
_cell_angle_beta	98.210000
_cell_angle_gamma	90.000000
_symmetry_Int_Tables_number 1

loop_
_symmetry_equiv_pos_as_xyz
'x,y,z'

loop_
_atom_site_label
_atom_site_type_symbol
_atom_site_fract_x
_atom_site_fract_y
_atom_site_fract_z
Cd11	Cd1	0.178770	0.132560	0.860010
Cd21	Cd2	0.178770	0.367440	0.360010
Cd31	Cd3	0.744140	0.750770	0.758830
Cd41	Cd4	0.255860	0.249230	0.241170
Cd51	Cd5	0.744140	0.749230	0.258830
Cd61	Cd6	0.821230	0.632560	0.639990
Cd71	Cd7	0.821230	0.867440	0.139990
Cd81	Cd8	0.255860	0.250770	0.741170
H11	H1	0.040400	0.325300	0.425700
H21	H2	0.713600	0.158400	0.124600
H31	H3	0.008800	0.846100	0.139400
H41	H4	0.074600	0.083300	0.595800
H51	H5	0.169200	0.244700	0.092800
H61	H6	0.401800	0.426100	0.408600
H71	H7	0.124700	0.287500	0.528700
H81	H8	0.984800	0.524100	0.240100
H91	H9	0.793000	0.655700	0.435300
H101	H10	0.713600	0.341600	0.624600
H111	H11	0.670200	0.849300	0.407300
H121	H12	0.169200	0.255300	0.592800
H131	H13	0.015200	0.024100	0.259900
H141	H14	0.124700	0.212500	0.028700
H151	H15	0.011700	0.685100	0.306700
H161	H16	0.598200	0.573900	0.591400
H171	H17	0.676000	0.803700	0.590400
H181	H18	0.026100	0.007000	0.897200
H191	H19	0.406100	0.248000	0.946800
H201	H20	0.754400	0.241800	0.636200
H211	H21	0.984800	0.975900	0.740100
H221	H22	0.773300	0.613300	0.924300
H231	H23	0.698400	0.902900	0.467500
H241	H24	0.018400	0.598900	0.410000
H251	H25	0.736500	0.304100	0.690200
H261	H26	0.389900	0.385900	0.583300
H271	H27	0.501200	0.493400	0.741600
H281	H28	0.875300	0.787500	0.971300
H291	H29	0.329800	0.150700	0.592700
H301	H30	0.830800	0.744700	0.407200
H311	H31	0.207000	0.344300	0.564700
H321	H32	0.226700	0.386700	0.075700
H331	H33	0.950800	0.256400	0.143300
H341	H34	0.670200	0.650700	0.907300
H351	H35	0.917200	0.262300	0.206200
H361	H36	0.263500	0.804100	0.809800
H371	H37	0.925400	0.916700	0.404200
H381	H38	0.286400	0.658400	0.375400
H391	H39	0.015200	0.475900	0.759900
H401	H40	0.988300	0.185100	0.193300
H411	H41	0.401800	0.073900	0.908600
H421	H42	0.917200	0.237700	0.706200
H431	H43	0.370000	0.339700	0.972500
H441	H44	0.959600	0.825300	0.074300
H451	H45	0.676000	0.696300	0.090400
H461	H46	0.286400	0.841600	0.875400
H471	H47	0.207000	0.155700	0.064700
H481	H48	0.793000	0.844300	0.935300
H491	H49	0.889100	0.624500	0.078000
H501	H50	0.950800	0.243600	0.643300
H511	H51	0.026100	0.493000	0.397200
H521	H52	0.049200	0.743600	0.856700
H531	H53	0.011500	0.439200	0.654800
H541	H54	0.498800	0.506600	0.258400
H551	H55	0.698400	0.597100	0.967500
H561	H56	0.889100	0.875500	0.578000
H571	H57	0.011700	0.814900	0.806700
H581	H58	0.988500	0.560800	0.345200
H591	H59	0.959600	0.674700	0.574300
H601	H60	0.598200	0.926100	0.091400
H611	H61	0.074600	0.416700	0.095800
H621	H62	0.973900	0.507000	0.602800
H631	H63	0.593900	0.752000	0.053200
H641	H64	0.501200	0.006600	0.241600
H651	H65	0.630000	0.660300	0.027500
H661	H66	0.082800	0.737700	0.793800
H671	H67	0.389900	0.114100	0.083300
H681	H68	0.610100	0.614100	0.416700
H691	H69	0.329800	0.349300	0.092700
H701	H70	0.245600	0.758200	0.363800
H711	H71	0.593900	0.748000	0.553200
H721	H72	0.324000	0.196300	0.409600
H731	H73	0.988500	0.939200	0.845200
H741	H74	0.991200	0.346100	0.360600
H751	H75	0.925400	0.583300	0.904200
H761	H76	0.773300	0.886700	0.424300
H771	H77	0.630000	0.839700	0.527500
H781	H78	0.245600	0.741800	0.863800
H791	H79	0.754400	0.258200	0.136200
H801	H80	0.040400	0.174700	0.925700
H811	H81	0.875300	0.712500	0.471300
H821	H82	0.082800	0.762300	0.293800
H831	H83	0.981600	0.401100	0.590000
H841	H84	0.736500	0.195900	0.190200
H851	H85	0.110900	0.124500	0.422000
H861	H86	0.110900	0.375500	0.922000
H871	H87	0.301600	0.402900	0.032500
H881	H88	0.973900	0.993000	0.102800
H891	H89	0.324000	0.303700	0.909600
H901	H90	0.008800	0.653900	0.639400
H911	H91	0.830800	0.755300	0.907200
H921	H92	0.610100	0.885900	0.916700
H931	H93	0.263500	0.695900	0.309800
H941	H94	0.301600	0.097100	0.532500
H951	H95	0.406100	0.252000	0.446800
H961	H96	0.226700	0.113300	0.575700
H971	H97	0.981600	0.098900	0.090000
H981	H98	0.988300	0.314900	0.693300
H991	H99	0.370000	0.160300	0.472500
H1001	H100	0.498800	0.993400	0.758400
H1011	H101	0.011500	0.060800	0.154800
H1021	H102	0.018400	0.901100	0.910000
H1031	H103	0.049200	0.756400	0.356700
H1041	H104	0.991200	0.153900	0.860600
C11	C1	0.432500	0.425200	0.605700
C21	C2	0.559400	0.955900	0.171700
C31	C3	0.440600	0.455900	0.328300
C41	C4	0.015000	0.023700	0.301020
C51	C5	0.961500	0.959700	0.386970
C61	C6	0.065200	0.778800	0.823600
C71	C7	0.065200	0.721200	0.323600
C81	C8	0.105400	0.396800	0.213100
C91	C9	0.927300	0.583500	0.102000
C101	C10	0.818000	0.783500	0.943600
C111	C11	0.718800	0.732100	0.522000
C121	C12	0.927300	0.916500	0.602000
C131	C13	0.720000	0.639400	0.939700
C141	C14	0.032100	0.946200	0.881300
C151	C15	0.072700	0.416500	0.898000
C161	C16	0.818000	0.716500	0.443600
C171	C17	0.018300	0.478200	0.923500
C181	C18	0.958400	0.961400	0.325780
C191	C19	0.134400	0.348400	0.810300
C201	C20	0.435900	0.430000	0.667300
C211	C21	0.961500	0.540300	0.886970
C221	C22	0.981700	0.978200	0.576500
C231	C23	0.280000	0.139400	0.560300
C241	C24	0.559400	0.544100	0.671700
C251	C25	0.442800	0.038600	0.889500
C261	C26	0.630300	0.630000	0.303000
C271	C27	0.630300	0.870000	0.803000
C281	C28	0.105400	0.103200	0.713100
C291	C29	0.985000	0.523700	0.198980
C301	C30	0.038500	0.040300	0.613030
C311	C31	0.625400	0.889300	0.208200
C321	C32	0.244200	0.803800	0.848800
C331	C33	0.718800	0.767900	0.022000
C341	C34	0.967900	0.446200	0.618700
C351	C35	0.351600	0.285600	0.949100
C361	C36	0.281200	0.232100	0.978000
C371	C37	0.492900	0.020600	0.077700
C381	C38	0.928600	0.914600	0.663200
C391	C39	0.865600	0.651600	0.189700
C401	C40	0.435900	0.070000	0.167300
C411	C41	0.369700	0.370000	0.697000
C421	C42	0.557200	0.961400	0.110500
C431	C43	0.374600	0.110700	0.791800
C441	C44	0.557200	0.538600	0.610500
C451	C45	0.499100	0.489700	0.700300
C461	C46	0.564100	0.930000	0.832700
C471	C47	0.507100	0.520600	0.422300
C481	C48	0.865600	0.848400	0.689700
C491	C49	0.041600	0.461400	0.174220
C501	C50	0.981700	0.521800	0.076500
C511	C51	0.869100	0.067600	0.131900
C521	C52	0.374600	0.389300	0.291800
C531	C53	0.071400	0.085400	0.336800
C541	C54	0.869100	0.432400	0.631900
C551	C55	0.967900	0.053800	0.118700
C561	C56	0.499100	0.010300	0.200300
C571	C57	0.720000	0.860600	0.439700
C581	C58	0.018300	0.021800	0.423500
C591	C59	0.244200	0.696200	0.348800
C601	C60	0.928600	0.585400	0.163200
C611	C61	0.432500	0.074800	0.105700
C621	C62	0.440600	0.044100	0.828300
C631	C63	0.134400	0.151600	0.310300
C641	C64	0.567500	0.574800	0.394300
C651	C65	0.032100	0.553800	0.381300
C661	C66	0.755800	0.303800	0.651200
C671	C67	0.281200	0.267900	0.478000
C681	C68	0.182000	0.216500	0.056400
C691	C69	0.182000	0.283500	0.556400
C701	C70	0.934800	0.221200	0.176400
C711	C71	0.648400	0.785600	0.550900
C721	C72	0.280000	0.360600	0.060300
C731	C73	0.894600	0.603200	0.786900
C741	C74	0.130900	0.567600	0.368100
C751	C75	0.492900	0.479400	0.577700
C761	C76	0.934800	0.278800	0.676400
C771	C77	0.625400	0.610700	0.708200
C781	C78	0.507100	0.979400	0.922300
C791	C79	0.015000	0.476300	0.801020
C801	C80	0.038500	0.459700	0.113030
C811	C81	0.369700	0.130000	0.197000
C821	C82	0.072700	0.083500	0.398000
C831	C83	0.071400	0.414600	0.836800
C841	C84	0.564100	0.570000	0.332700
C851	C85	0.894600	0.896800	0.286900
C861	C86	0.500900	0.510300	0.299700
C871	C87	0.648400	0.714400	0.050900
C881	C88	0.567500	0.925200	0.894300
C891	C89	0.442800	0.461400	0.389500
C901	C90	0.755800	0.196200	0.151200
C911	C91	0.130900	0.932400	0.868100
C921	C92	0.041600	0.038600	0.674220
C931	C93	0.958400	0.538600	0.825780
C941	C94	0.500900	0.989700	0.799700
C951	C95	0.351600	0.214400	0.449100
C961	C96	0.985000	0.976300	0.698980
N11	N1	0.747900	0.726600	0.970250
N21	N2	0.514600	0.532900	0.485560
N31	N3	0.145800	0.658600	0.344800
N41	N4	0.252100	0.273400	0.029750
N51	N5	0.485400	0.467100	0.514440
N61	N6	0.747900	0.773400	0.470250
N71	N7	0.971500	0.523100	0.012230
N81	N8	0.028500	0.476900	0.987770
N91	N9	0.854200	0.158600	0.155200
N101	N10	0.145800	0.841400	0.844800
N111	N11	0.854200	0.341400	0.655200
N121	N12	0.971500	0.976900	0.512230
N131	N13	0.485400	0.032900	0.014440
N141	N14	0.252100	0.226600	0.529750
N151	N15	0.514600	0.967100	0.985560
N161	N16	0.028500	0.023100	0.487770
O11	O1	0.621800	0.632200	0.247740
O21	O2	0.204200	0.981600	0.875800
O31	O3	0.847500	0.658000	0.812540
O41	O4	0.378200	0.132200	0.252260
O51	O5	0.688300	0.677500	0.335560
O61	O6	0.620000	0.875400	0.261300
O71	O7	0.897300	0.901200	0.232040
O81	O8	0.380000	0.375400	0.238700
O91	O9	0.315500	0.344800	0.318650
O101	O10	0.688300	0.822500	0.835560
O111	O11	0.311700	0.177500	0.164440
O121	O12	0.961400	0.633600	0.607780
O131	O13	0.847500	0.842000	0.312540
O141	O14	0.152500	0.342000	0.187460
O151	O15	0.684500	0.655200	0.681350
O161	O16	0.102700	0.098800	0.767960
O171	O17	0.684500	0.844800	0.181350
O181	O18	0.857500	0.643700	0.244000
O191	O19	0.380000	0.124600	0.738700
O201	O20	0.822300	0.788400	0.655960
O211	O21	0.795800	0.481600	0.624200
O221	O22	0.152500	0.158000	0.687460
O231	O23	0.315500	0.155200	0.818650
O241	O24	0.822300	0.711600	0.155960
O251	O25	0.177700	0.211600	0.344040
O261	O26	0.038600	0.366400	0.392220
O271	O27	0.250600	0.338900	0.452640
O281	O28	0.749400	0.661100	0.547360
O291	O29	0.378200	0.367800	0.752260
O301	O30	0.961400	0.866400	0.107780
O311	O31	0.038600	0.133600	0.892220
O321	O32	0.620000	0.624600	0.761300
O331	O33	0.250600	0.161100	0.952640
O341	O34	0.621800	0.867800	0.747740
O351	O35	0.142500	0.356300	0.756000
O361	O36	0.749400	0.838900	0.047360
O371	O37	0.142500	0.143700	0.256000
O381	O38	0.897300	0.598800	0.732040
O391	O39	0.857500	0.856300	0.744000
O401	O40	0.204200	0.518400	0.375800
O411	O41	0.311700	0.322500	0.664440
O421	O42	0.795800	0.018400	0.124200
O431	O43	0.102700	0.401200	0.267960
O441	O44	0.177700	0.288400	0.844040
