data_WIZDEP_freeONLY_PM
_symmetry_space_group_name_H-M	'P1'
_cell_length_a	6.320230
_cell_length_b	15.284300
_cell_length_c	15.284300
_cell_angle_alpha	61.868200
_cell_angle_beta	82.077300
_cell_angle_gamma	97.922700
_symmetry_Int_Tables_number 1

loop_
_symmetry_equiv_pos_as_xyz
'x,y,z'

loop_
_atom_site_label
_atom_site_type_symbol
_atom_site_fract_x
_atom_site_fract_y
_atom_site_fract_z
Zn11	Zn1	0.635960	0.312910	0.423430
Zn21	Zn2	0.059390	0.423430	0.263660
Zn31	Zn3	0.323050	0.263660	0.312910
Zn41	Zn4	0.364040	0.687090	0.576570
Zn51	Zn5	0.940610	0.576570	0.736340
Zn61	Zn6	0.676950	0.736340	0.687090
H11	H1	0.317770	0.465160	0.566440
H21	H2	0.884210	0.566440	0.968400
H31	H3	0.852610	0.968400	0.465160
H41	H4	0.682230	0.534840	0.433560
H51	H5	0.115790	0.433560	0.031600
H61	H6	0.147390	0.031600	0.534840
C11	C1	0.265320	0.393720	0.441210
C21	C2	0.138660	0.451950	0.465300
C31	C3	0.942930	0.467130	0.431160
C41	C4	0.188350	0.479800	0.539920
C51	C5	0.706530	0.441210	0.165070
C61	C6	0.603960	0.465300	0.082750
C71	C7	0.374090	0.431160	0.101710
C81	C8	0.728270	0.539920	0.980280
C91	C9	0.871600	0.165070	0.393720
C101	C10	0.686710	0.082750	0.451950
C111	C11	0.475800	0.101710	0.467130
C121	C12	0.708550	0.980280	0.479800
C131	C13	0.734680	0.606280	0.558790
C141	C14	0.861340	0.548050	0.534700
C151	C15	0.057070	0.532870	0.568840
C161	C16	0.811650	0.520200	0.460080
C171	C17	0.293470	0.558790	0.834930
C181	C18	0.396040	0.534700	0.917250
C191	C19	0.625910	0.568840	0.898290
C201	C20	0.271730	0.460080	0.019720
C211	C21	0.128400	0.834930	0.606280
C221	C22	0.313290	0.917250	0.548050
C231	C23	0.524200	0.898290	0.532870
C241	C24	0.291450	0.019720	0.520200
O11	O1	0.392460	0.351680	0.497180
O21	O2	0.284880	0.400530	0.354570
O31	O3	0.889160	0.436310	0.363320
O41	O4	0.663160	0.221860	0.575380
O51	O5	0.889640	0.497180	0.151140
O61	O6	0.639450	0.354570	0.244900
O71	O7	0.252480	0.363320	0.200370
O81	O8	0.238540	0.575380	0.202760
O91	O9	0.040780	0.151140	0.351680
O101	O10	0.884350	0.244900	0.400530
O111	O11	0.452850	0.200370	0.436310
O121	O12	0.441300	0.202760	0.221860
O131	O13	0.607540	0.648320	0.502820
O141	O14	0.715120	0.599470	0.645430
O151	O15	0.110840	0.563690	0.636680
O161	O16	0.336840	0.778140	0.424620
O171	O17	0.110360	0.502820	0.848860
O181	O18	0.360550	0.645430	0.755100
O191	O19	0.747520	0.636680	0.799630
O201	O20	0.761460	0.424620	0.797240
O211	O21	0.959220	0.848860	0.648320
O221	O22	0.115650	0.755100	0.599470
O231	O23	0.547150	0.799630	0.563690
O241	O24	0.558700	0.797240	0.778140
