data_WOCWAN_freeONLY_PM
_symmetry_space_group_name_H-M	'P1'
_cell_length_a	8.509000
_cell_length_b	13.153000
_cell_length_c	13.994500
_cell_angle_alpha	118.030000
_cell_angle_beta	90.640000
_cell_angle_gamma	90.000000
_symmetry_Int_Tables_number 1

loop_
_symmetry_equiv_pos_as_xyz
'x,y,z'

loop_
_atom_site_label
_atom_site_type_symbol
_atom_site_fract_x
_atom_site_fract_y
_atom_site_fract_z
Cu11	Cu1	0.553810	0.089620	0.588710
Cu21	Cu2	0.946190	0.500910	0.411290
Cu31	Cu3	0.446190	0.910380	0.411290
Cu41	Cu4	0.053810	0.499090	0.588710
H11	H1	0.651600	0.341400	0.662600
H21	H2	0.806500	0.487900	0.790200
H31	H3	0.897000	0.285700	0.930600
H41	H4	0.736300	0.145800	0.800600
H51	H5	0.974800	0.567100	0.949200
H61	H6	0.096100	0.071600	0.724400
H71	H7	0.004800	0.082500	0.629000
H81	H8	0.909400	0.920400	0.644600
H91	H9	0.986700	0.878800	0.528400
H101	H10	0.135100	0.868900	0.708200
H111	H11	0.225500	0.839400	0.598800
H121	H12	0.848400	0.678800	0.337400
H131	H13	0.693500	0.697700	0.209800
H141	H14	0.603000	0.355100	0.069400
H151	H15	0.763700	0.345200	0.199400
H161	H16	0.525200	0.617900	0.050800
H171	H17	0.403900	0.347200	0.275600
H181	H18	0.495200	0.453500	0.371000
H191	H19	0.590600	0.275800	0.355400
H201	H20	0.513300	0.350400	0.471600
H211	H21	0.364900	0.160700	0.291800
H221	H22	0.274500	0.240600	0.401200
H231	H23	0.348400	0.658600	0.337400
H241	H24	0.193500	0.512100	0.209800
H251	H25	0.103000	0.714300	0.069400
H261	H26	0.263700	0.854200	0.199400
H271	H27	0.025200	0.432900	0.050800
H281	H28	0.903900	0.928400	0.275600
H291	H29	0.995200	0.917500	0.371000
H301	H30	0.090600	0.079600	0.355400
H311	H31	0.013300	0.121200	0.471600
H321	H32	0.864900	0.131100	0.291800
H331	H33	0.774500	0.160600	0.401200
H341	H34	0.151600	0.321200	0.662600
H351	H35	0.306500	0.302300	0.790200
H361	H36	0.397000	0.644900	0.930600
H371	H37	0.236300	0.654800	0.800600
H381	H38	0.474800	0.382100	0.949200
H391	H39	0.596100	0.652800	0.724400
H401	H40	0.504800	0.546500	0.629000
H411	H41	0.409400	0.724200	0.644600
H421	H42	0.486700	0.649600	0.528400
H431	H43	0.635100	0.839300	0.708200
H441	H44	0.725500	0.759400	0.598800
C11	C1	0.700800	0.330520	0.718420
C21	C2	0.794200	0.418140	0.794080
C31	C3	0.868300	0.404860	0.876520
C41	C4	0.846100	0.299790	0.877180
C51	C5	0.750500	0.216470	0.798740
C61	C6	0.963700	0.499950	0.957700
C71	C7	0.235500	0.030550	0.591880
C81	C8	0.079600	0.034630	0.644920
C91	C9	0.009600	0.914130	0.606960
C101	C10	0.121700	0.836660	0.628840
C111	C11	0.071000	0.712160	0.582500
C121	C12	0.799200	0.612100	0.281580
C131	C13	0.705800	0.624060	0.205920
C141	C14	0.631700	0.528340	0.123480
C151	C15	0.653900	0.422610	0.122820
C161	C16	0.749500	0.417730	0.201260
C171	C17	0.536300	0.542250	0.042300
C181	C18	0.264500	0.438670	0.408120
C191	C19	0.420400	0.389710	0.355080
C201	C20	0.490400	0.307170	0.393040
C211	C21	0.378300	0.207820	0.371160
C221	C22	0.429000	0.129660	0.417500
C231	C23	0.299200	0.669480	0.281580
C241	C24	0.205800	0.581860	0.205920
C251	C25	0.131700	0.595140	0.123480
C261	C26	0.153900	0.700210	0.122820
C271	C27	0.249500	0.783530	0.201260
C281	C28	0.036300	0.500050	0.042300
C291	C29	0.764500	0.969450	0.408120
C301	C30	0.920400	0.965370	0.355080
C311	C31	0.990400	0.085870	0.393040
C321	C32	0.878300	0.163340	0.371160
C331	C33	0.929000	0.287840	0.417500
C341	C34	0.200800	0.387900	0.718420
C351	C35	0.294200	0.375940	0.794080
C361	C36	0.368300	0.471660	0.876520
C371	C37	0.346100	0.577390	0.877180
C381	C38	0.250500	0.582270	0.798740
C391	C39	0.463700	0.457750	0.957700
C401	C40	0.735500	0.561330	0.591880
C411	C41	0.579600	0.610290	0.644920
C421	C42	0.509600	0.692830	0.606960
C431	C43	0.621700	0.792180	0.628840
C441	C44	0.571000	0.870340	0.582500
N11	N1	0.676400	0.230400	0.720340
N21	N2	0.823600	0.510060	0.279660
N31	N3	0.323600	0.769600	0.279660
N41	N4	0.176400	0.489940	0.720340
O11	O1	0.341180	0.101470	0.648340
O21	O2	0.250470	0.956120	0.495240
O31	O3	0.096300	0.663640	0.639760
O41	O4	0.011000	0.664330	0.489040
O51	O5	0.158820	0.453130	0.351660
O61	O6	0.249530	0.460880	0.504760
O71	O7	0.403700	0.023880	0.360240
O81	O8	0.489000	0.175290	0.510960
O91	O9	0.658820	0.898530	0.351660
O101	O10	0.749530	0.043880	0.504760
O111	O11	0.903700	0.336360	0.360240
O121	O12	0.989000	0.335670	0.510960
O131	O13	0.841180	0.546870	0.648340
O141	O14	0.750470	0.539120	0.495240
O151	O15	0.596300	0.976120	0.639760
O161	O16	0.511000	0.824710	0.489040
