data_WOHDON_freeONLY_PM
_symmetry_space_group_name_H-M	'P1'
_cell_length_a	8.408500
_cell_length_b	9.807000
_cell_length_c	21.019000
_cell_angle_alpha	90.000000
_cell_angle_beta	90.000000
_cell_angle_gamma	90.000000
_symmetry_Int_Tables_number 1

loop_
_symmetry_equiv_pos_as_xyz
'x,y,z'

loop_
_atom_site_label
_atom_site_type_symbol
_atom_site_fract_x
_atom_site_fract_y
_atom_site_fract_z
Cd11	Cd1	0.004360	0.392500	0.716940
Cd21	Cd2	0.193930	0.837490	0.522630
Cd31	Cd3	0.495640	0.607500	0.216940
Cd41	Cd4	0.306070	0.162510	0.022630
Cd51	Cd5	0.995640	0.892500	0.783060
Cd61	Cd6	0.806070	0.337490	0.977370
Cd71	Cd7	0.504360	0.107500	0.283060
Cd81	Cd8	0.693930	0.662510	0.477370
H11	H1	0.815000	0.818000	0.686500
H21	H2	0.066000	0.094000	0.579000
H31	H3	0.152000	0.784000	0.643300
H41	H4	0.266000	0.683000	0.634200
H51	H5	0.387000	0.034000	0.588200
H61	H6	0.483000	0.942000	0.556400
H71	H7	0.148000	0.045600	0.442600
H81	H8	0.114000	0.929000	0.409000
H91	H9	0.750000	0.466000	0.784900
H101	H10	0.688000	0.370000	0.744100
H111	H11	0.037000	0.578000	0.616800
H121	H12	0.898000	0.508000	0.604800
H131	H13	0.717000	0.996500	0.653700
H141	H14	0.835600	0.084900	0.562300
H151	H15	0.685000	0.182000	0.186500
H161	H16	0.434000	0.906000	0.079000
H171	H17	0.348000	0.216000	0.143300
H181	H18	0.234000	0.317000	0.134200
H191	H19	0.113000	0.966000	0.088200
H201	H20	0.017000	0.058000	0.056400
H211	H21	0.352000	0.954400	0.942600
H221	H22	0.386000	0.071000	0.909000
H231	H23	0.750000	0.534000	0.284900
H241	H24	0.812000	0.630000	0.244100
H251	H25	0.463000	0.422000	0.116800
H261	H26	0.602000	0.492000	0.104800
H271	H27	0.783000	0.003500	0.153700
H281	H28	0.664400	0.915100	0.062300
H291	H29	0.185000	0.318000	0.813500
H301	H30	0.934000	0.594000	0.921000
H311	H31	0.848000	0.284000	0.856700
H321	H32	0.734000	0.183000	0.865800
H331	H33	0.613000	0.534000	0.911800
H341	H34	0.517000	0.442000	0.943600
H351	H35	0.852000	0.545600	0.057400
H361	H36	0.886000	0.429000	0.091000
H371	H37	0.250000	0.966000	0.715100
H381	H38	0.312000	0.870000	0.755900
H391	H39	0.963000	0.078000	0.883200
H401	H40	0.102000	0.008000	0.895200
H411	H41	0.283000	0.496500	0.846300
H421	H42	0.164400	0.584900	0.937700
H431	H43	0.315000	0.682000	0.313500
H441	H44	0.566000	0.406000	0.421000
H451	H45	0.652000	0.716000	0.356700
H461	H46	0.766000	0.817000	0.365800
H471	H47	0.887000	0.466000	0.411800
H481	H48	0.983000	0.558000	0.443600
H491	H49	0.648000	0.454400	0.557400
H501	H50	0.614000	0.571000	0.591000
H511	H51	0.250000	0.034000	0.215100
H521	H52	0.188000	0.130000	0.255900
H531	H53	0.537000	0.922000	0.383200
H541	H54	0.398000	0.992000	0.395200
H551	H55	0.217000	0.503500	0.346300
H561	H56	0.335600	0.415100	0.437700
C11	C1	0.901100	0.117000	0.687080
C21	C2	0.833400	0.993700	0.651180
C31	C3	0.883100	0.003000	0.581130
C41	C4	0.825700	0.879100	0.544940
C51	C5	0.598900	0.883000	0.187080
C61	C6	0.666600	0.006300	0.151180
C71	C7	0.616900	0.997000	0.081130
C81	C8	0.674300	0.120900	0.044940
C91	C9	0.098900	0.617000	0.812920
C101	C10	0.166600	0.493700	0.848820
C111	C11	0.116900	0.503000	0.918870
C121	C12	0.174300	0.379100	0.955060
C131	C13	0.401100	0.383000	0.312920
C141	C14	0.333400	0.506300	0.348820
C151	C15	0.383100	0.497000	0.418870
C161	C16	0.325700	0.620900	0.455060
S11	S1	0.368560	0.239620	0.707220
S21	S2	0.131440	0.760380	0.207220
S31	S3	0.631440	0.739620	0.792780
S41	S4	0.868560	0.260380	0.292780
O11	O1	0.954000	0.103700	0.742250
O21	O2	0.898300	0.227500	0.657610
O31	O3	0.887200	0.869710	0.678040
O41	O4	0.051000	0.012200	0.576270
O51	O5	0.921300	0.801600	0.517080
O61	O6	0.678400	0.857200	0.543510
O71	O7	0.188700	0.725400	0.617760
O81	O8	0.390100	0.978000	0.557870
O91	O9	0.184800	0.967200	0.432210
O101	O10	0.764800	0.388000	0.768640
O111	O11	0.989300	0.502700	0.619560
O121	O12	0.264700	0.353900	0.687530
O131	O13	0.347000	0.216300	0.776230
O141	O14	0.532700	0.275100	0.692660
O151	O15	0.325200	0.116900	0.672080
O161	O16	0.546000	0.896300	0.242250
O171	O17	0.601700	0.772500	0.157610
O181	O18	0.612800	0.130290	0.178040
O191	O19	0.449000	0.987800	0.076270
O201	O20	0.578700	0.198400	0.017080
O211	O21	0.821600	0.142800	0.043510
O221	O22	0.311300	0.274600	0.117760
O231	O23	0.109900	0.022000	0.057870
O241	O24	0.315200	0.032800	0.932210
O251	O25	0.735200	0.612000	0.268640
O261	O26	0.510700	0.497300	0.119560
O271	O27	0.235300	0.646100	0.187530
O281	O28	0.153000	0.783700	0.276230
O291	O29	0.967300	0.724900	0.192660
O301	O30	0.174800	0.883100	0.172080
O311	O31	0.046000	0.603700	0.757750
O321	O32	0.101700	0.727500	0.842390
O331	O33	0.112800	0.369710	0.821960
O341	O34	0.949000	0.512200	0.923730
O351	O35	0.078700	0.301600	0.982920
O361	O36	0.321600	0.357200	0.956490
O371	O37	0.811300	0.225400	0.882240
O381	O38	0.609900	0.478000	0.942130
O391	O39	0.815200	0.467200	0.067790
O401	O40	0.235200	0.888000	0.731360
O411	O41	0.010700	0.002700	0.880440
O421	O42	0.735300	0.853900	0.812470
O431	O43	0.653000	0.716300	0.723770
O441	O44	0.467300	0.775100	0.807340
O451	O45	0.674800	0.616900	0.827920
O461	O46	0.454000	0.396300	0.257750
O471	O47	0.398300	0.272500	0.342390
O481	O48	0.387200	0.630290	0.321960
O491	O49	0.551000	0.487800	0.423730
O501	O50	0.421300	0.698400	0.482920
O511	O51	0.178400	0.642800	0.456490
O521	O52	0.688700	0.774600	0.382240
O531	O53	0.890100	0.522000	0.442130
O541	O54	0.684800	0.532800	0.567790
O551	O55	0.264800	0.112000	0.231360
O561	O56	0.489300	0.997300	0.380440
O571	O57	0.764700	0.146100	0.312470
O581	O58	0.847000	0.283700	0.223770
O591	O59	0.032700	0.224900	0.307340
O601	O60	0.825200	0.383100	0.327920
