data_WOLREV_freeONLY_PM
_symmetry_space_group_name_H-M	'P1'
_cell_length_a	30.701800
_cell_length_b	30.701800
_cell_length_c	30.701800
_cell_angle_alpha	109.471000
_cell_angle_beta	109.471000
_cell_angle_gamma	109.471000
_symmetry_Int_Tables_number 1

loop_
_symmetry_equiv_pos_as_xyz
'x,y,z'

loop_
_atom_site_label
_atom_site_type_symbol
_atom_site_fract_x
_atom_site_fract_y
_atom_site_fract_z
Mn11	Mn1	0.500000	0.000000	0.500000
Mn21	Mn2	0.000000	0.000000	0.000000
Mn31	Mn3	0.500000	0.500000	0.000000
Mn41	Mn4	0.000000	0.500000	0.500000
Mn51	Mn5	0.500000	0.000000	0.000000
Mn61	Mn6	0.500000	0.500000	0.500000
Mn71	Mn7	0.000000	0.000000	0.500000
Mn81	Mn8	0.000000	0.500000	0.000000
Mn91	Mn9	0.500000	0.131960	0.500000
Mn101	Mn10	0.131960	0.000000	0.000000
Mn111	Mn11	0.368040	0.368040	0.868040
Mn121	Mn12	0.000000	0.500000	0.631960
Mn131	Mn13	0.368040	0.000000	0.000000
Mn141	Mn14	0.500000	0.368040	0.500000
Mn151	Mn15	0.131960	0.131960	0.631960
Mn161	Mn16	0.000000	0.500000	0.868040
Mn171	Mn17	0.500000	0.868040	0.500000
Mn181	Mn18	0.868040	0.000000	0.000000
Mn191	Mn19	0.631960	0.631960	0.131960
Mn201	Mn20	0.000000	0.500000	0.368040
Mn211	Mn21	0.631960	0.000000	0.000000
Mn221	Mn22	0.500000	0.631960	0.500000
Mn231	Mn23	0.868040	0.868040	0.368040
Mn241	Mn24	0.000000	0.500000	0.131960
H11	H1	0.690500	0.164000	0.387500
H21	H2	0.633800	0.156300	0.421500
H31	H3	0.724900	0.062400	0.419500
H41	H4	0.667200	0.050600	0.451200
H51	H5	0.276500	0.303000	0.112500
H61	H6	0.234800	0.212300	0.078500
H71	H7	0.142900	0.305400	0.080500
H81	H8	0.099400	0.216000	0.048800
H91	H9	0.223500	0.336000	0.026500
H101	H10	0.265200	0.343700	0.977500
H111	H11	0.357100	0.437600	0.162500
H121	H12	0.400600	0.449400	0.116600
H131	H13	0.809500	0.197000	0.473500
H141	H14	0.866200	0.287700	0.522500
H151	H15	0.775100	0.194600	0.337500
H161	H16	0.832800	0.284000	0.383400
H171	H17	0.526500	0.223500	0.836000
H181	H18	0.477500	0.265200	0.843700
H191	H19	0.662500	0.357100	0.937600
H201	H20	0.616600	0.400600	0.949400
H211	H21	0.973500	0.809500	0.697000
H221	H22	0.022500	0.866200	0.787700
H231	H23	0.837500	0.775100	0.694600
H241	H24	0.883400	0.832800	0.784000
H251	H25	0.887500	0.690500	0.664000
H261	H26	0.921500	0.633800	0.656300
H271	H27	0.919500	0.724900	0.562400
H281	H28	0.951200	0.667200	0.550600
H291	H29	0.612500	0.276500	0.803000
H301	H30	0.578500	0.234800	0.712300
H311	H31	0.580500	0.142900	0.805400
H321	H32	0.548800	0.099400	0.716000
H331	H33	0.303000	0.612500	0.776500
H341	H34	0.212300	0.578500	0.734800
H351	H35	0.305400	0.580500	0.642900
H361	H36	0.216000	0.548800	0.599400
H371	H37	0.164000	0.887500	0.190500
H381	H38	0.156300	0.921500	0.133800
H391	H39	0.062400	0.919500	0.224900
H401	H40	0.050600	0.951200	0.167200
H411	H41	0.197000	0.973500	0.309500
H421	H42	0.287700	0.022500	0.366200
H431	H43	0.194600	0.837500	0.275100
H441	H44	0.284000	0.883400	0.332800
H451	H45	0.336000	0.526500	0.723500
H461	H46	0.343700	0.477500	0.765200
H471	H47	0.437600	0.662500	0.857100
H481	H48	0.449400	0.616600	0.900600
H491	H49	0.336000	0.809500	0.112500
H501	H50	0.343700	0.866200	0.078500
H511	H51	0.437600	0.775100	0.080500
H521	H52	0.449400	0.832800	0.048800
H531	H53	0.197000	0.223500	0.387500
H541	H54	0.287700	0.265200	0.421500
H551	H55	0.194600	0.357100	0.419500
H561	H56	0.284000	0.400600	0.451200
H571	H57	0.164000	0.276500	0.473500
H581	H58	0.156300	0.234800	0.522500
H591	H59	0.062400	0.142900	0.337500
H601	H60	0.050600	0.099400	0.383400
H611	H61	0.303000	0.690500	0.026500
H621	H62	0.212300	0.633800	0.977500
H631	H63	0.305400	0.724900	0.162500
H641	H64	0.216000	0.667200	0.116600
H651	H65	0.276500	0.973500	0.664000
H661	H66	0.234800	0.022500	0.656300
H671	H67	0.142900	0.837500	0.562400
H681	H68	0.099400	0.883400	0.550600
H691	H69	0.690500	0.526500	0.803000
H701	H70	0.633800	0.477500	0.712300
H711	H71	0.724900	0.662500	0.805400
H721	H72	0.667200	0.616600	0.716000
H731	H73	0.809500	0.612500	0.836000
H741	H74	0.866200	0.578500	0.843700
H751	H75	0.775100	0.580500	0.937600
H761	H76	0.832800	0.548800	0.949400
H771	H77	0.223500	0.887500	0.697000
H781	H78	0.265200	0.921500	0.787700
H791	H79	0.357100	0.919500	0.694600
H801	H80	0.400600	0.951200	0.784000
H811	H81	0.887500	0.197000	0.723500
H821	H82	0.921500	0.287700	0.765200
H831	H83	0.919500	0.194600	0.857100
H841	H84	0.951200	0.284000	0.900600
H851	H85	0.612500	0.336000	0.309500
H861	H86	0.578500	0.343700	0.366200
H871	H87	0.580500	0.437600	0.275100
H881	H88	0.548800	0.449400	0.332800
H891	H89	0.526500	0.303000	0.190500
H901	H90	0.477500	0.212300	0.133800
H911	H91	0.662500	0.305400	0.224900
H921	H92	0.616600	0.216000	0.167200
H931	H93	0.973500	0.164000	0.776500
H941	H94	0.022500	0.156300	0.734800
H951	H95	0.837500	0.062400	0.642900
H961	H96	0.883400	0.050600	0.599400
H971	H97	0.309500	0.836000	0.612500
H981	H98	0.366200	0.843700	0.578500
H991	H99	0.275100	0.937600	0.580500
H1001	H100	0.332800	0.949400	0.548800
H1011	H101	0.723500	0.697000	0.887500
H1021	H102	0.765200	0.787700	0.921500
H1031	H103	0.857100	0.694600	0.919500
H1041	H104	0.900600	0.784000	0.951200
H1051	H105	0.776500	0.664000	0.973500
H1061	H106	0.734800	0.656300	0.022500
H1071	H107	0.642900	0.562400	0.837500
H1081	H108	0.599400	0.550600	0.883400
H1091	H109	0.190500	0.803000	0.526500
H1101	H110	0.133800	0.712300	0.477500
H1111	H111	0.224900	0.805400	0.662500
H1121	H112	0.167200	0.716000	0.616600
H1131	H113	0.473500	0.776500	0.164000
H1141	H114	0.522500	0.734800	0.156300
H1151	H115	0.337500	0.642900	0.062400
H1161	H116	0.383400	0.599400	0.050600
H1171	H117	0.026500	0.190500	0.303000
H1181	H118	0.977500	0.133800	0.212300
H1191	H119	0.162500	0.224900	0.305400
H1201	H120	0.116600	0.167200	0.216000
H1211	H121	0.112500	0.309500	0.336000
H1221	H122	0.078500	0.366200	0.343700
H1231	H123	0.080500	0.275100	0.437600
H1241	H124	0.048800	0.332800	0.449400
H1251	H125	0.387500	0.723500	0.197000
H1261	H126	0.421500	0.765200	0.287700
H1271	H127	0.419500	0.857100	0.194600
H1281	H128	0.451200	0.900600	0.284000
H1291	H129	0.697000	0.387500	0.223500
H1301	H130	0.787700	0.421500	0.265200
H1311	H131	0.694600	0.419500	0.357100
H1321	H132	0.784000	0.451200	0.400600
H1331	H133	0.836000	0.112500	0.809500
H1341	H134	0.843700	0.078500	0.866200
H1351	H135	0.937600	0.080500	0.775100
H1361	H136	0.949400	0.048800	0.832800
H1371	H137	0.803000	0.026500	0.690500
H1381	H138	0.712300	0.977500	0.633800
H1391	H139	0.805400	0.162500	0.724900
H1401	H140	0.716000	0.116600	0.667200
H1411	H141	0.664000	0.473500	0.276500
H1421	H142	0.656300	0.522500	0.234800
H1431	H143	0.562400	0.337500	0.142900
H1441	H144	0.550600	0.383400	0.099400
H1451	H145	0.664000	0.190500	0.887500
H1461	H146	0.656300	0.133800	0.921500
H1471	H147	0.562400	0.224900	0.919500
H1481	H148	0.550600	0.167200	0.951200
H1491	H149	0.803000	0.776500	0.612500
H1501	H150	0.712300	0.734800	0.578500
H1511	H151	0.805400	0.642900	0.580500
H1521	H152	0.716000	0.599400	0.548800
H1531	H153	0.836000	0.723500	0.526500
H1541	H154	0.843700	0.765200	0.477500
H1551	H155	0.937600	0.857100	0.662500
H1561	H156	0.949400	0.900600	0.616600
H1571	H157	0.697000	0.309500	0.973500
H1581	H158	0.787700	0.366200	0.022500
H1591	H159	0.694600	0.275100	0.837500
H1601	H160	0.784000	0.332800	0.883400
H1611	H161	0.723500	0.026500	0.336000
H1621	H162	0.765200	0.977500	0.343700
H1631	H163	0.857100	0.162500	0.437600
H1641	H164	0.900600	0.116600	0.449400
H1651	H165	0.309500	0.473500	0.197000
H1661	H166	0.366200	0.522500	0.287700
H1671	H167	0.275100	0.337500	0.194600
H1681	H168	0.332800	0.383400	0.284000
H1691	H169	0.190500	0.387500	0.164000
H1701	H170	0.133800	0.421500	0.156300
H1711	H171	0.224900	0.419500	0.062400
H1721	H172	0.167200	0.451200	0.050600
H1731	H173	0.776500	0.112500	0.303000
H1741	H174	0.734800	0.078500	0.212300
H1751	H175	0.642900	0.080500	0.305400
H1761	H176	0.599400	0.048800	0.216000
H1771	H177	0.112500	0.803000	0.276500
H1781	H178	0.078500	0.712300	0.234800
H1791	H179	0.080500	0.805400	0.142900
H1801	H180	0.048800	0.716000	0.099400
H1811	H181	0.387500	0.664000	0.690500
H1821	H182	0.421500	0.656300	0.633800
H1831	H183	0.419500	0.562400	0.724900
H1841	H184	0.451200	0.550600	0.667200
H1851	H185	0.473500	0.697000	0.809500
H1861	H186	0.522500	0.787700	0.866200
H1871	H187	0.337500	0.694600	0.775100
H1881	H188	0.383400	0.784000	0.832800
H1891	H189	0.026500	0.836000	0.223500
H1901	H190	0.977500	0.843700	0.265200
H1911	H191	0.162500	0.937600	0.357100
H1921	H192	0.116600	0.949400	0.400600
C11	C1	0.605200	0.089500	0.456100
C21	C2	0.642100	0.099600	0.437500
C31	C3	0.686200	0.141200	0.401400
C41	C4	0.714500	0.117000	0.400900
C51	C5	0.650700	0.136100	0.420400
C61	C6	0.706500	0.081200	0.419500
C71	C7	0.671500	0.073900	0.437800
C81	C8	0.133400	0.149100	0.043900
C91	C9	0.162100	0.204600	0.062500
C101	C10	0.239800	0.284800	0.098600
C111	C11	0.216100	0.313600	0.099100
C121	C12	0.215700	0.230300	0.079600
C131	C13	0.161700	0.287000	0.080500
C141	C14	0.136100	0.233700	0.062200
C151	C15	0.366600	0.410500	0.015700
C161	C16	0.337900	0.400400	0.042500
C171	C17	0.260200	0.358800	0.045000
C181	C18	0.283900	0.383000	0.097500
C191	C19	0.284300	0.363900	0.014600
C201	C20	0.338300	0.418800	0.125300
C211	C21	0.363900	0.426100	0.097600
C221	C22	0.894800	0.350900	0.484300
C231	C23	0.857900	0.295400	0.457500
C241	C24	0.813800	0.215200	0.455000
C251	C25	0.785500	0.186400	0.402500
C261	C26	0.849300	0.269700	0.485400
C271	C27	0.793500	0.213000	0.374700
C281	C28	0.828500	0.266300	0.402400
C291	C29	0.515700	0.366600	0.910500
C301	C30	0.542500	0.337900	0.900400
C311	C31	0.545000	0.260200	0.858800
C321	C32	0.597500	0.283900	0.883000
C331	C33	0.514600	0.284300	0.863900
C341	C34	0.625300	0.338300	0.918800
C351	C35	0.597600	0.363900	0.926100
C361	C36	0.984300	0.894800	0.850900
C371	C37	0.957500	0.857900	0.795400
C381	C38	0.955000	0.813800	0.715200
C391	C39	0.902500	0.785500	0.686400
C401	C40	0.985400	0.849300	0.769700
C411	C41	0.874700	0.793500	0.713000
C421	C42	0.902400	0.828500	0.766300
C431	C43	0.956100	0.605200	0.589500
C441	C44	0.937500	0.642100	0.599600
C451	C45	0.901400	0.686200	0.641200
C461	C46	0.900900	0.714500	0.617000
C471	C47	0.920400	0.650700	0.636100
C481	C48	0.919500	0.706500	0.581200
C491	C49	0.937800	0.671500	0.573900
C501	C50	0.543900	0.133400	0.649100
C511	C51	0.562500	0.162100	0.704600
C521	C52	0.598600	0.239800	0.784800
C531	C53	0.599100	0.216100	0.813600
C541	C54	0.579600	0.215700	0.730300
C551	C55	0.580500	0.161700	0.787000
C561	C56	0.562200	0.136100	0.733700
C571	C57	0.149100	0.543900	0.633400
C581	C58	0.204600	0.562500	0.662100
C591	C59	0.284800	0.598600	0.739800
C601	C60	0.313600	0.599100	0.716100
C611	C61	0.230300	0.579600	0.715700
C621	C62	0.287000	0.580500	0.661700
C631	C63	0.233700	0.562200	0.636100
C641	C64	0.089500	0.956100	0.105200
C651	C65	0.099600	0.937500	0.142100
C661	C66	0.141200	0.901400	0.186200
C671	C67	0.117000	0.900900	0.214500
C681	C68	0.136100	0.920400	0.150700
C691	C69	0.081200	0.919500	0.206500
C701	C70	0.073900	0.937800	0.171500
C711	C71	0.350900	0.984300	0.394800
C721	C72	0.295400	0.957500	0.357900
C731	C73	0.215200	0.955000	0.313800
C741	C74	0.186400	0.902500	0.285500
C751	C75	0.269700	0.985400	0.349300
C761	C76	0.213000	0.874700	0.293500
C771	C77	0.266300	0.902400	0.328500
C781	C78	0.410500	0.515700	0.866600
C791	C79	0.400400	0.542500	0.837900
C801	C80	0.358800	0.545000	0.760200
C811	C81	0.383000	0.597500	0.783900
C821	C82	0.363900	0.514600	0.784300
C831	C83	0.418800	0.625300	0.838300
C841	C84	0.426100	0.597600	0.863900
C851	C85	0.410500	0.894800	0.043900
C861	C86	0.400400	0.857900	0.062500
C871	C87	0.358800	0.813800	0.098600
C881	C88	0.383000	0.785500	0.099100
C891	C89	0.363900	0.849300	0.079600
C901	C90	0.418800	0.793500	0.080500
C911	C91	0.426100	0.828500	0.062200
C921	C92	0.350900	0.366600	0.456100
C931	C93	0.295400	0.337900	0.437500
C941	C94	0.215200	0.260200	0.401400
C951	C95	0.186400	0.283900	0.400900
C961	C96	0.269700	0.284300	0.420400
C971	C97	0.213000	0.338300	0.419500
C981	C98	0.266300	0.363900	0.437800
C991	C99	0.089500	0.133400	0.484300
C1001	C100	0.099600	0.162100	0.457500
C1011	C101	0.141200	0.239800	0.455000
C1021	C102	0.117000	0.216100	0.402500
C1031	C103	0.136100	0.215700	0.485400
C1041	C104	0.081200	0.161700	0.374700
C1051	C105	0.073900	0.136100	0.402400
C1061	C106	0.149100	0.605200	0.015700
C1071	C107	0.204600	0.642100	0.042500
C1081	C108	0.284800	0.686200	0.045000
C1091	C109	0.313600	0.714500	0.097500
C1101	C110	0.230300	0.650700	0.014600
C1111	C111	0.287000	0.706500	0.125300
C1121	C112	0.233700	0.671500	0.097600
C1131	C113	0.133400	0.984300	0.589500
C1141	C114	0.162100	0.957500	0.599600
C1151	C115	0.239800	0.955000	0.641200
C1161	C116	0.216100	0.902500	0.617000
C1171	C117	0.215700	0.985400	0.636100
C1181	C118	0.161700	0.874700	0.581200
C1191	C119	0.136100	0.902400	0.573900
C1201	C120	0.605200	0.515700	0.649100
C1211	C121	0.642100	0.542500	0.704600
C1221	C122	0.686200	0.545000	0.784800
C1231	C123	0.714500	0.597500	0.813600
C1241	C124	0.650700	0.514600	0.730300
C1251	C125	0.706500	0.625300	0.787000
C1261	C126	0.671500	0.597600	0.733700
C1271	C127	0.894800	0.543900	0.910500
C1281	C128	0.857900	0.562500	0.900400
C1291	C129	0.813800	0.598600	0.858800
C1301	C130	0.785500	0.599100	0.883000
C1311	C131	0.849300	0.579600	0.863900
C1321	C132	0.793500	0.580500	0.918800
C1331	C133	0.828500	0.562200	0.926100
C1341	C134	0.366600	0.956100	0.850900
C1351	C135	0.337900	0.937500	0.795400
C1361	C136	0.260200	0.901400	0.715200
C1371	C137	0.283900	0.900900	0.686400
C1381	C138	0.284300	0.920400	0.769700
C1391	C139	0.338300	0.919500	0.713000
C1401	C140	0.363900	0.937800	0.766300
C1411	C141	0.956100	0.350900	0.866600
C1421	C142	0.937500	0.295400	0.837900
C1431	C143	0.901400	0.215200	0.760200
C1441	C144	0.900900	0.186400	0.783900
C1451	C145	0.920400	0.269700	0.784300
C1461	C146	0.919500	0.213000	0.838300
C1471	C147	0.937800	0.266300	0.863900
C1481	C148	0.543900	0.410500	0.394800
C1491	C149	0.562500	0.400400	0.357900
C1501	C150	0.598600	0.358800	0.313800
C1511	C151	0.599100	0.383000	0.285500
C1521	C152	0.579600	0.363900	0.349300
C1531	C153	0.580500	0.418800	0.293500
C1541	C154	0.562200	0.426100	0.328500
C1551	C155	0.515700	0.149100	0.105200
C1561	C156	0.542500	0.204600	0.142100
C1571	C157	0.545000	0.284800	0.186200
C1581	C158	0.597500	0.313600	0.214500
C1591	C159	0.514600	0.230300	0.150700
C1601	C160	0.625300	0.287000	0.206500
C1611	C161	0.597600	0.233700	0.171500
C1621	C162	0.984300	0.089500	0.633400
C1631	C163	0.957500	0.099600	0.662100
C1641	C164	0.955000	0.141200	0.739800
C1651	C165	0.902500	0.117000	0.716100
C1661	C166	0.985400	0.136100	0.715700
C1671	C167	0.874700	0.081200	0.661700
C1681	C168	0.902400	0.073900	0.636100
C1691	C169	0.394800	0.910500	0.543900
C1701	C170	0.357900	0.900400	0.562500
C1711	C171	0.313800	0.858800	0.598600
C1721	C172	0.285500	0.883000	0.599100
C1731	C173	0.349300	0.863900	0.579600
C1741	C174	0.293500	0.918800	0.580500
C1751	C175	0.328500	0.926100	0.562200
C1761	C176	0.866600	0.850900	0.956100
C1771	C177	0.837900	0.795400	0.937500
C1781	C178	0.760200	0.715200	0.901400
C1791	C179	0.783900	0.686400	0.900900
C1801	C180	0.784300	0.769700	0.920400
C1811	C181	0.838300	0.713000	0.919500
C1821	C182	0.863900	0.766300	0.937800
C1831	C183	0.633400	0.589500	0.984300
C1841	C184	0.662100	0.599600	0.957500
C1851	C185	0.739800	0.641200	0.955000
C1861	C186	0.716100	0.617000	0.902500
C1871	C187	0.715700	0.636100	0.985400
C1881	C188	0.661700	0.581200	0.874700
C1891	C189	0.636100	0.573900	0.902400
C1901	C190	0.105200	0.649100	0.515700
C1911	C191	0.142100	0.704600	0.542500
C1921	C192	0.186200	0.784800	0.545000
C1931	C193	0.214500	0.813600	0.597500
C1941	C194	0.150700	0.730300	0.514600
C1951	C195	0.206500	0.787000	0.625300
C1961	C196	0.171500	0.733700	0.597600
C1971	C197	0.484300	0.633400	0.089500
C1981	C198	0.457500	0.662100	0.099600
C1991	C199	0.455000	0.739800	0.141200
C2001	C200	0.402500	0.716100	0.117000
C2011	C201	0.485400	0.715700	0.136100
C2021	C202	0.374700	0.661700	0.081200
C2031	C203	0.402400	0.636100	0.073900
C2041	C204	0.015700	0.105200	0.149100
C2051	C205	0.042500	0.142100	0.204600
C2061	C206	0.045000	0.186200	0.284800
C2071	C207	0.097500	0.214500	0.313600
C2081	C208	0.014600	0.150700	0.230300
C2091	C209	0.125300	0.206500	0.287000
C2101	C210	0.097600	0.171500	0.233700
C2111	C211	0.043900	0.394800	0.410500
C2121	C212	0.062500	0.357900	0.400400
C2131	C213	0.098600	0.313800	0.358800
C2141	C214	0.099100	0.285500	0.383000
C2151	C215	0.079600	0.349300	0.363900
C2161	C216	0.080500	0.293500	0.418800
C2171	C217	0.062200	0.328500	0.426100
C2181	C218	0.456100	0.866600	0.350900
C2191	C219	0.437500	0.837900	0.295400
C2201	C220	0.401400	0.760200	0.215200
C2211	C221	0.400900	0.783900	0.186400
C2221	C222	0.420400	0.784300	0.269700
C2231	C223	0.419500	0.838300	0.213000
C2241	C224	0.437800	0.863900	0.266300
C2251	C225	0.850900	0.456100	0.366600
C2261	C226	0.795400	0.437500	0.337900
C2271	C227	0.715200	0.401400	0.260200
C2281	C228	0.686400	0.400900	0.283900
C2291	C229	0.769700	0.420400	0.284300
C2301	C230	0.713000	0.419500	0.338300
C2311	C231	0.766300	0.437800	0.363900
C2321	C232	0.910500	0.043900	0.894800
C2331	C233	0.900400	0.062500	0.857900
C2341	C234	0.858800	0.098600	0.813800
C2351	C235	0.883000	0.099100	0.785500
C2361	C236	0.863900	0.079600	0.849300
C2371	C237	0.918800	0.080500	0.793500
C2381	C238	0.926100	0.062200	0.828500
C2391	C239	0.649100	0.015700	0.605200
C2401	C240	0.704600	0.042500	0.642100
C2411	C241	0.784800	0.045000	0.686200
C2421	C242	0.813600	0.097500	0.714500
C2431	C243	0.730300	0.014600	0.650700
C2441	C244	0.787000	0.125300	0.706500
C2451	C245	0.733700	0.097600	0.671500
C2461	C246	0.589500	0.484300	0.133400
C2471	C247	0.599600	0.457500	0.162100
C2481	C248	0.641200	0.455000	0.239800
C2491	C249	0.617000	0.402500	0.216100
C2501	C250	0.636100	0.485400	0.215700
C2511	C251	0.581200	0.374700	0.161700
C2521	C252	0.573900	0.402400	0.136100
C2531	C253	0.589500	0.105200	0.956100
C2541	C254	0.599600	0.142100	0.937500
C2551	C255	0.641200	0.186200	0.901400
C2561	C256	0.617000	0.214500	0.900900
C2571	C257	0.636100	0.150700	0.920400
C2581	C258	0.581200	0.206500	0.919500
C2591	C259	0.573900	0.171500	0.937800
C2601	C260	0.649100	0.633400	0.543900
C2611	C261	0.704600	0.662100	0.562500
C2621	C262	0.784800	0.739800	0.598600
C2631	C263	0.813600	0.716100	0.599100
C2641	C264	0.730300	0.715700	0.579600
C2651	C265	0.787000	0.661700	0.580500
C2661	C266	0.733700	0.636100	0.562200
C2671	C267	0.910500	0.866600	0.515700
C2681	C268	0.900400	0.837900	0.542500
C2691	C269	0.858800	0.760200	0.545000
C2701	C270	0.883000	0.783900	0.597500
C2711	C271	0.863900	0.784300	0.514600
C2721	C272	0.918800	0.838300	0.625300
C2731	C273	0.926100	0.863900	0.597600
C2741	C274	0.850900	0.394800	0.984300
C2751	C275	0.795400	0.357900	0.957500
C2761	C276	0.715200	0.313800	0.955000
C2771	C277	0.686400	0.285500	0.902500
C2781	C278	0.769700	0.349300	0.985400
C2791	C279	0.713000	0.293500	0.874700
C2801	C280	0.766300	0.328500	0.902400
C2811	C281	0.866600	0.015700	0.410500
C2821	C282	0.837900	0.042500	0.400400
C2831	C283	0.760200	0.045000	0.358800
C2841	C284	0.783900	0.097500	0.383000
C2851	C285	0.784300	0.014600	0.363900
C2861	C286	0.838300	0.125300	0.418800
C2871	C287	0.863900	0.097600	0.426100
C2881	C288	0.394800	0.484300	0.350900
C2891	C289	0.357900	0.457500	0.295400
C2901	C290	0.313800	0.455000	0.215200
C2911	C291	0.285500	0.402500	0.186400
C2921	C292	0.349300	0.485400	0.269700
C2931	C293	0.293500	0.374700	0.213000
C2941	C294	0.328500	0.402400	0.266300
C2951	C295	0.105200	0.456100	0.089500
C2961	C296	0.142100	0.437500	0.099600
C2971	C297	0.186200	0.401400	0.141200
C2981	C298	0.214500	0.400900	0.117000
C2991	C299	0.150700	0.420400	0.136100
C3001	C300	0.206500	0.419500	0.081200
C3011	C301	0.171500	0.437800	0.073900
C3021	C302	0.633400	0.043900	0.149100
C3031	C303	0.662100	0.062500	0.204600
C3041	C304	0.739800	0.098600	0.284800
C3051	C305	0.716100	0.099100	0.313600
C3061	C306	0.715700	0.079600	0.230300
C3071	C307	0.661700	0.080500	0.287000
C3081	C308	0.636100	0.062200	0.233700
C3091	C309	0.043900	0.649100	0.133400
C3101	C310	0.062500	0.704600	0.162100
C3111	C311	0.098600	0.784800	0.239800
C3121	C312	0.099100	0.813600	0.216100
C3131	C313	0.079600	0.730300	0.215700
C3141	C314	0.080500	0.787000	0.161700
C3151	C315	0.062200	0.733700	0.136100
C3161	C316	0.456100	0.589500	0.605200
C3171	C317	0.437500	0.599600	0.642100
C3181	C318	0.401400	0.641200	0.686200
C3191	C319	0.400900	0.617000	0.714500
C3201	C320	0.420400	0.636100	0.650700
C3211	C321	0.419500	0.581200	0.706500
C3221	C322	0.437800	0.573900	0.671500
C3231	C323	0.484300	0.850900	0.894800
C3241	C324	0.457500	0.795400	0.857900
C3251	C325	0.455000	0.715200	0.813800
C3261	C326	0.402500	0.686400	0.785500
C3271	C327	0.485400	0.769700	0.849300
C3281	C328	0.374700	0.713000	0.793500
C3291	C329	0.402400	0.766300	0.828500
C3301	C330	0.015700	0.910500	0.366600
C3311	C331	0.042500	0.900400	0.337900
C3321	C332	0.045000	0.858800	0.260200
C3331	C333	0.097500	0.883000	0.283900
C3341	C334	0.014600	0.863900	0.284300
C3351	C335	0.125300	0.918800	0.338300
C3361	C336	0.097600	0.926100	0.363900
C3371	C337	0.750000	0.125000	0.375000
C3381	C338	0.250000	0.375000	0.125000
C3391	C339	0.625000	0.250000	0.875000
C3401	C340	0.875000	0.750000	0.625000
C3411	C341	0.375000	0.625000	0.750000
C3421	C342	0.125000	0.875000	0.250000
C3431	C343	0.375000	0.750000	0.125000
C3441	C344	0.125000	0.250000	0.375000
C3451	C345	0.250000	0.875000	0.625000
C3461	C346	0.750000	0.625000	0.875000
C3471	C347	0.875000	0.125000	0.750000
C3481	C348	0.625000	0.375000	0.250000
N11	N1	0.584000	0.048200	0.465800
N21	N2	0.551600	0.058100	0.481100
N31	N3	0.550900	0.099600	0.480900
N41	N4	0.583300	0.120100	0.466400
N51	N5	0.082400	0.118200	0.034200
N61	N6	0.077000	0.070500	0.018900
N71	N7	0.118700	0.070000	0.019100
N81	N8	0.153700	0.116900	0.033600
N91	N9	0.417600	0.451800	0.035800
N101	N10	0.423000	0.441900	0.993500
N111	N11	0.381300	0.400400	0.951300
N121	N12	0.346300	0.379900	0.963200
N131	N13	0.916000	0.381800	0.464200
N141	N14	0.948400	0.429500	0.506500
N151	N15	0.949100	0.430000	0.548700
N161	N16	0.916700	0.383100	0.536800
N171	N17	0.535800	0.417600	0.951800
N181	N18	0.493500	0.423000	0.941900
N191	N19	0.451300	0.381300	0.900400
N201	N20	0.463200	0.346300	0.879900
N211	N21	0.964200	0.916000	0.881800
N221	N22	0.006500	0.948400	0.929500
N231	N23	0.048700	0.949100	0.930000
N241	N24	0.036800	0.916700	0.883100
N251	N25	0.965800	0.584000	0.548200
N261	N26	0.981100	0.551600	0.558100
N271	N27	0.980900	0.550900	0.599600
N281	N28	0.966400	0.583300	0.620100
N291	N29	0.534200	0.082400	0.618200
N301	N30	0.518900	0.077000	0.570500
N311	N31	0.519100	0.118700	0.570000
N321	N32	0.533600	0.153700	0.616900
N331	N33	0.118200	0.534200	0.582400
N341	N34	0.070500	0.518900	0.577000
N351	N35	0.070000	0.519100	0.618700
N361	N36	0.116900	0.533600	0.653700
N371	N37	0.048200	0.965800	0.084000
N381	N38	0.058100	0.981100	0.051600
N391	N39	0.099600	0.980900	0.050900
N401	N40	0.120100	0.966400	0.083300
N411	N41	0.381800	0.964200	0.416000
N421	N42	0.429500	0.006500	0.448400
N431	N43	0.430000	0.048700	0.449100
N441	N44	0.383100	0.036800	0.416700
N451	N45	0.451800	0.535800	0.917600
N461	N46	0.441900	0.493500	0.923000
N471	N47	0.400400	0.451300	0.881300
N481	N48	0.379900	0.463200	0.846300
N491	N49	0.451800	0.916000	0.034200
N501	N50	0.441900	0.948400	0.018900
N511	N51	0.400400	0.949100	0.019100
N521	N52	0.379900	0.916700	0.033600
N531	N53	0.381800	0.417600	0.465800
N541	N54	0.429500	0.423000	0.481100
N551	N55	0.430000	0.381300	0.480900
N561	N56	0.383100	0.346300	0.466400
N571	N57	0.048200	0.082400	0.464200
N581	N58	0.058100	0.077000	0.506500
N591	N59	0.099600	0.118700	0.548700
N601	N60	0.120100	0.153700	0.536800
N611	N61	0.118200	0.584000	0.035800
N621	N62	0.070500	0.551600	0.993500
N631	N63	0.070000	0.550900	0.951300
N641	N64	0.116900	0.583300	0.963200
N651	N65	0.082400	0.964200	0.548200
N661	N66	0.077000	0.006500	0.558100
N671	N67	0.118700	0.048700	0.599600
N681	N68	0.153700	0.036800	0.620100
N691	N69	0.584000	0.535800	0.618200
N701	N70	0.551600	0.493500	0.570500
N711	N71	0.550900	0.451300	0.570000
N721	N72	0.583300	0.463200	0.616900
N731	N73	0.916000	0.534200	0.951800
N741	N74	0.948400	0.518900	0.941900
N751	N75	0.949100	0.519100	0.900400
N761	N76	0.916700	0.533600	0.879900
N771	N77	0.417600	0.965800	0.881800
N781	N78	0.423000	0.981100	0.929500
N791	N79	0.381300	0.980900	0.930000
N801	N80	0.346300	0.966400	0.883100
N811	N81	0.965800	0.381800	0.917600
N821	N82	0.981100	0.429500	0.923000
N831	N83	0.980900	0.430000	0.881300
N841	N84	0.966400	0.383100	0.846300
N851	N85	0.534200	0.451800	0.416000
N861	N86	0.518900	0.441900	0.448400
N871	N87	0.519100	0.400400	0.449100
N881	N88	0.533600	0.379900	0.416700
N891	N89	0.535800	0.118200	0.084000
N901	N90	0.493500	0.070500	0.051600
N911	N91	0.451300	0.070000	0.050900
N921	N92	0.463200	0.116900	0.083300
N931	N93	0.964200	0.048200	0.582400
N941	N94	0.006500	0.058100	0.577000
N951	N95	0.048700	0.099600	0.618700
N961	N96	0.036800	0.120100	0.653700
N971	N97	0.416000	0.951800	0.534200
N981	N98	0.448400	0.941900	0.518900
N991	N99	0.449100	0.900400	0.519100
N1001	N100	0.416700	0.879900	0.533600
N1011	N101	0.917600	0.881800	0.965800
N1021	N102	0.923000	0.929500	0.981100
N1031	N103	0.881300	0.930000	0.980900
N1041	N104	0.846300	0.883100	0.966400
N1051	N105	0.582400	0.548200	0.964200
N1061	N106	0.577000	0.558100	0.006500
N1071	N107	0.618700	0.599600	0.048700
N1081	N108	0.653700	0.620100	0.036800
N1091	N109	0.084000	0.618200	0.535800
N1101	N110	0.051600	0.570500	0.493500
N1111	N111	0.050900	0.570000	0.451300
N1121	N112	0.083300	0.616900	0.463200
N1131	N113	0.464200	0.582400	0.048200
N1141	N114	0.506500	0.577000	0.058100
N1151	N115	0.548700	0.618700	0.099600
N1161	N116	0.536800	0.653700	0.120100
N1171	N117	0.035800	0.084000	0.118200
N1181	N118	0.993500	0.051600	0.070500
N1191	N119	0.951300	0.050900	0.070000
N1201	N120	0.963200	0.083300	0.116900
N1211	N121	0.034200	0.416000	0.451800
N1221	N122	0.018900	0.448400	0.441900
N1231	N123	0.019100	0.449100	0.400400
N1241	N124	0.033600	0.416700	0.379900
N1251	N125	0.465800	0.917600	0.381800
N1261	N126	0.481100	0.923000	0.429500
N1271	N127	0.480900	0.881300	0.430000
N1281	N128	0.466400	0.846300	0.383100
N1291	N129	0.881800	0.465800	0.417600
N1301	N130	0.929500	0.481100	0.423000
N1311	N131	0.930000	0.480900	0.381300
N1321	N132	0.883100	0.466400	0.346300
N1331	N133	0.951800	0.034200	0.916000
N1341	N134	0.941900	0.018900	0.948400
N1351	N135	0.900400	0.019100	0.949100
N1361	N136	0.879900	0.033600	0.916700
N1371	N137	0.618200	0.035800	0.584000
N1381	N138	0.570500	0.993500	0.551600
N1391	N139	0.570000	0.951300	0.550900
N1401	N140	0.616900	0.963200	0.583300
N1411	N141	0.548200	0.464200	0.082400
N1421	N142	0.558100	0.506500	0.077000
N1431	N143	0.599600	0.548700	0.118700
N1441	N144	0.620100	0.536800	0.153700
N1451	N145	0.548200	0.084000	0.965800
N1461	N146	0.558100	0.051600	0.981100
N1471	N147	0.599600	0.050900	0.980900
N1481	N148	0.620100	0.083300	0.966400
N1491	N149	0.618200	0.582400	0.534200
N1501	N150	0.570500	0.577000	0.518900
N1511	N151	0.570000	0.618700	0.519100
N1521	N152	0.616900	0.653700	0.533600
N1531	N153	0.951800	0.917600	0.535800
N1541	N154	0.941900	0.923000	0.493500
N1551	N155	0.900400	0.881300	0.451300
N1561	N156	0.879900	0.846300	0.463200
N1571	N157	0.881800	0.416000	0.964200
N1581	N158	0.929500	0.448400	0.006500
N1591	N159	0.930000	0.449100	0.048700
N1601	N160	0.883100	0.416700	0.036800
N1611	N161	0.917600	0.035800	0.451800
N1621	N162	0.923000	0.993500	0.441900
N1631	N163	0.881300	0.951300	0.400400
N1641	N164	0.846300	0.963200	0.379900
N1651	N165	0.416000	0.464200	0.381800
N1661	N166	0.448400	0.506500	0.429500
N1671	N167	0.449100	0.548700	0.430000
N1681	N168	0.416700	0.536800	0.383100
N1691	N169	0.084000	0.465800	0.048200
N1701	N170	0.051600	0.481100	0.058100
N1711	N171	0.050900	0.480900	0.099600
N1721	N172	0.083300	0.466400	0.120100
N1731	N173	0.582400	0.034200	0.118200
N1741	N174	0.577000	0.018900	0.070500
N1751	N175	0.618700	0.019100	0.070000
N1761	N176	0.653700	0.033600	0.116900
N1771	N177	0.034200	0.618200	0.082400
N1781	N178	0.018900	0.570500	0.077000
N1791	N179	0.019100	0.570000	0.118700
N1801	N180	0.033600	0.616900	0.153700
N1811	N181	0.465800	0.548200	0.584000
N1821	N182	0.481100	0.558100	0.551600
N1831	N183	0.480900	0.599600	0.550900
N1841	N184	0.466400	0.620100	0.583300
N1851	N185	0.464200	0.881800	0.916000
N1861	N186	0.506500	0.929500	0.948400
N1871	N187	0.548700	0.930000	0.949100
N1881	N188	0.536800	0.883100	0.916700
N1891	N189	0.035800	0.951800	0.417600
N1901	N190	0.993500	0.941900	0.423000
N1911	N191	0.951300	0.900400	0.381300
N1921	N192	0.963200	0.879900	0.346300
O11	O1	0.568600	0.211100	0.550300
O21	O2	0.160800	0.018300	0.949700
O31	O3	0.339200	0.288900	0.857500
O41	O4	0.931400	0.481700	0.642500
O51	O5	0.357500	0.339200	0.788900
O61	O6	0.142500	0.931400	0.981700
O71	O7	0.050300	0.568600	0.711100
O81	O8	0.449700	0.160800	0.518300
O91	O9	0.018300	0.449700	0.660800
O101	O10	0.211100	0.050300	0.068600
O111	O11	0.481700	0.142500	0.431400
O121	O12	0.288900	0.357500	0.839200
O131	O13	0.288900	0.931400	0.949700
O141	O14	0.481700	0.339200	0.550300
O151	O15	0.211100	0.160800	0.642500
O161	O16	0.018300	0.568600	0.857500
O171	O17	0.160800	0.142500	0.711100
O181	O18	0.568600	0.357500	0.518300
O191	O19	0.931400	0.449700	0.788900
O201	O20	0.339200	0.050300	0.981700
O211	O21	0.050300	0.481700	0.839200
O221	O22	0.449700	0.288900	0.431400
O231	O23	0.357500	0.018300	0.068600
O241	O24	0.142500	0.211100	0.660800
O251	O25	0.431400	0.788900	0.449700
O261	O26	0.839200	0.981700	0.050300
O271	O27	0.660800	0.711100	0.142500
O281	O28	0.068600	0.518300	0.357500
O291	O29	0.642500	0.660800	0.211100
O301	O30	0.857500	0.068600	0.018300
O311	O31	0.949700	0.431400	0.288900
O321	O32	0.550300	0.839200	0.481700
O331	O33	0.981700	0.550300	0.339200
O341	O34	0.788900	0.949700	0.931400
O351	O35	0.518300	0.857500	0.568600
O361	O36	0.711100	0.642500	0.160800
O371	O37	0.711100	0.068600	0.050300
O381	O38	0.518300	0.660800	0.449700
O391	O39	0.788900	0.839200	0.357500
O401	O40	0.981700	0.431400	0.142500
O411	O41	0.839200	0.857500	0.288900
O421	O42	0.431400	0.642500	0.481700
O431	O43	0.068600	0.550300	0.211100
O441	O44	0.660800	0.949700	0.018300
O451	O45	0.949700	0.518300	0.160800
O461	O46	0.550300	0.711100	0.568600
O471	O47	0.642500	0.981700	0.931400
O481	O48	0.857500	0.788900	0.339200
