data_WONXIH_freeONLY_PM
_symmetry_space_group_name_H-M	'P1'
_cell_length_a	9.220900
_cell_length_b	9.544100
_cell_length_c	21.584100
_cell_angle_alpha	90.000000
_cell_angle_beta	90.000000
_cell_angle_gamma	116.219000
_symmetry_Int_Tables_number 1

loop_
_symmetry_equiv_pos_as_xyz
'x,y,z'

loop_
_atom_site_label
_atom_site_type_symbol
_atom_site_fract_x
_atom_site_fract_y
_atom_site_fract_z
Gd11	Gd1	0.124100	0.858320	0.491540
Gd21	Gd2	0.375900	0.141680	0.991540
Gd31	Gd3	0.875900	0.141680	0.508460
Gd41	Gd4	0.624100	0.858320	0.008460
Cu11	Cu1	0.040050	0.191360	0.854070
Cu21	Cu2	0.459950	0.808640	0.354070
Cu31	Cu3	0.959950	0.808640	0.145930
Cu41	Cu4	0.540050	0.191360	0.645930
H11	H1	0.994800	0.152600	0.723700
H21	H2	0.106700	0.813400	0.666700
H31	H3	0.152100	0.774100	0.769400
H41	H4	0.116700	0.923400	0.845500
H51	H5	0.794600	0.298200	0.843600
H61	H6	0.747000	0.504600	0.872600
H71	H7	0.938600	0.703300	0.931400
H81	H8	0.209300	0.473700	0.929300
H91	H9	0.505200	0.847400	0.223700
H101	H10	0.393300	0.186600	0.166700
H111	H11	0.347900	0.225900	0.269400
H121	H12	0.383300	0.076600	0.345500
H131	H13	0.705400	0.701800	0.343600
H141	H14	0.753000	0.495400	0.372600
H151	H15	0.561400	0.296700	0.431400
H161	H16	0.290700	0.526300	0.429300
H171	H17	0.005200	0.847400	0.276300
H181	H18	0.893300	0.186600	0.333300
H191	H19	0.847900	0.225900	0.230600
H201	H20	0.883300	0.076600	0.154500
H211	H21	0.205400	0.701800	0.156400
H221	H22	0.253000	0.495400	0.127400
H231	H23	0.061400	0.296700	0.068600
H241	H24	0.790700	0.526300	0.070700
H251	H25	0.494800	0.152600	0.776300
H261	H26	0.606700	0.813400	0.833300
H271	H27	0.652100	0.774100	0.730600
H281	H28	0.616700	0.923400	0.654500
H291	H29	0.294600	0.298200	0.656400
H301	H30	0.247000	0.504600	0.627400
H311	H31	0.438600	0.703300	0.568600
H321	H32	0.709300	0.473700	0.570700
C11	C1	0.028700	0.076400	0.732700
C21	C2	0.045000	0.990200	0.683600
C31	C3	0.093200	0.874000	0.697900
C41	C4	0.120400	0.851000	0.758900
C51	C5	0.100500	0.942400	0.804400
C61	C6	0.012200	0.024300	0.619500
C71	C7	0.871900	0.377200	0.867400
C81	C8	0.842300	0.500900	0.884400
C91	C9	0.955900	0.618600	0.919000
C101	C10	0.096700	0.609800	0.935200
C111	C11	0.116000	0.481000	0.917400
C121	C12	0.230900	0.742000	0.970000
C131	C13	0.988700	0.492300	0.464600
C141	C14	0.996400	0.022700	0.965800
C151	C15	0.471300	0.923600	0.232700
C161	C16	0.455000	0.009800	0.183600
C171	C17	0.406800	0.126000	0.197900
C181	C18	0.379600	0.149000	0.258900
C191	C19	0.399500	0.057600	0.304400
C201	C20	0.487800	0.975700	0.119500
C211	C21	0.628100	0.622800	0.367400
C221	C22	0.657700	0.499100	0.384400
C231	C23	0.544100	0.381400	0.419000
C241	C24	0.403300	0.390200	0.435200
C251	C25	0.384000	0.519000	0.417400
C261	C26	0.269100	0.258000	0.470000
C271	C27	0.511300	0.507700	0.964600
C281	C28	0.503600	0.977300	0.465800
C291	C29	0.971300	0.923600	0.267300
C301	C30	0.955000	0.009800	0.316400
C311	C31	0.906800	0.126000	0.302100
C321	C32	0.879600	0.149000	0.241100
C331	C33	0.899500	0.057600	0.195600
C341	C34	0.987800	0.975700	0.380500
C351	C35	0.128100	0.622800	0.132600
C361	C36	0.157700	0.499100	0.115600
C371	C37	0.044100	0.381400	0.081000
C381	C38	0.903300	0.390200	0.064800
C391	C39	0.884000	0.519000	0.082600
C401	C40	0.769100	0.258000	0.030000
C411	C41	0.011300	0.507700	0.535400
C421	C42	0.003600	0.977300	0.034200
C431	C43	0.528700	0.076400	0.767300
C441	C44	0.545000	0.990200	0.816400
C451	C45	0.593200	0.874000	0.802100
C461	C46	0.620400	0.851000	0.741100
C471	C47	0.600500	0.942400	0.695600
C481	C48	0.512200	0.024300	0.880500
C491	C49	0.371900	0.377200	0.632600
C501	C50	0.342300	0.500900	0.615600
C511	C51	0.455900	0.618600	0.581000
C521	C52	0.596700	0.609800	0.564800
C531	C53	0.616000	0.481000	0.582600
C541	C54	0.730900	0.742000	0.530000
C551	C55	0.488700	0.492300	0.035400
C561	C56	0.496400	0.022700	0.534200
N11	N1	0.058700	0.057300	0.792090
N21	N2	0.004600	0.364000	0.883000
N31	N3	0.441300	0.942700	0.292090
N41	N4	0.495400	0.636000	0.383000
N51	N5	0.941300	0.942700	0.207910
N61	N6	0.995400	0.636000	0.117000
N71	N7	0.558700	0.057300	0.707910
N81	N8	0.504600	0.364000	0.617000
O11	O1	0.051900	0.963800	0.575430
O21	O2	0.945200	0.112100	0.612560
O31	O3	0.336900	0.714600	0.995280
O41	O4	0.221400	0.868600	0.970890
O51	O5	0.051300	0.616200	0.433570
O61	O6	0.908100	0.356600	0.443390
O71	O7	0.128900	0.117800	0.941710
O81	O8	0.863100	0.961400	0.938980
O91	O9	0.448100	0.036200	0.075430
O101	O10	0.554800	0.887900	0.112560
O111	O11	0.163100	0.285400	0.495280
O121	O12	0.278600	0.131400	0.470890
O131	O13	0.448700	0.383800	0.933570
O141	O14	0.591900	0.643400	0.943390
O151	O15	0.371100	0.882200	0.441710
O161	O16	0.636900	0.038600	0.438980
O171	O17	0.948100	0.036200	0.424570
O181	O18	0.054800	0.887900	0.387440
O191	O19	0.663100	0.285400	0.004720
O201	O20	0.778600	0.131400	0.029110
O211	O21	0.948700	0.383800	0.566430
O221	O22	0.091900	0.643400	0.556610
O231	O23	0.871100	0.882200	0.058290
O241	O24	0.136900	0.038600	0.061020
O251	O25	0.551900	0.963800	0.924570
O261	O26	0.445200	0.112100	0.887440
O271	O27	0.836900	0.714600	0.504720
O281	O28	0.721400	0.868600	0.529110
O291	O29	0.551300	0.616200	0.066430
O301	O30	0.408100	0.356600	0.056610
O311	O31	0.628900	0.117800	0.558290
O321	O32	0.363100	0.961400	0.561020
