data_WORKOF_freeONLY_PM
_symmetry_space_group_name_H-M	'P1'
_cell_length_a	19.118000
_cell_length_b	23.024000
_cell_length_c	30.075000
_cell_angle_alpha	90.070000
_cell_angle_beta	97.360000
_cell_angle_gamma	90.090000
_symmetry_Int_Tables_number 1

loop_
_symmetry_equiv_pos_as_xyz
'x,y,z'

loop_
_atom_site_label
_atom_site_type_symbol
_atom_site_fract_x
_atom_site_fract_y
_atom_site_fract_z
Zn11	Zn1	0.993960	0.762560	0.184330
Zn21	Zn2	0.003540	0.905760	0.616030
Zn31	Zn3	0.422700	0.334670	0.606080
Zn41	Zn4	0.930100	0.829030	0.680210
Zn51	Zn5	0.503290	0.258530	0.687440
Zn61	Zn6	0.888470	0.830780	0.109950
Zn71	Zn7	0.479870	0.401630	0.114330
Zn81	Zn8	0.588940	0.339920	0.622340
Zn91	Zn9	0.096010	0.834560	0.689380
Zn101	Zn10	0.014430	0.770590	0.601110
Zn111	Zn11	0.561170	0.330730	0.192960
Zn121	Zn12	0.059550	0.837350	0.112660
Zn131	Zn13	0.503220	0.397220	0.690400
Zn141	Zn14	0.488310	0.269390	0.105390
Zn151	Zn15	0.389140	0.324920	0.172880
Zn161	Zn16	0.989030	0.896080	0.188900
H11	H1	0.141500	0.632600	0.190100
H21	H2	0.162700	0.140400	0.588500
H31	H3	0.341700	0.130700	0.063400
H41	H4	0.632800	0.542200	0.716000
H51	H5	0.868800	0.611600	0.191500
H61	H6	0.838000	0.147500	0.601900
H71	H7	0.134100	0.828500	0.908600
H81	H8	0.140600	0.637600	0.612900
H91	H9	0.195900	0.554200	0.571200
H101	H10	0.820500	0.522600	0.221400
H111	H11	0.549400	0.231500	0.896200
H121	H12	0.699500	0.624900	0.720900
H131	H13	0.639000	0.123400	0.675000
H141	H14	0.484700	0.452800	0.903400
H151	H15	0.617600	0.368100	0.486100
H161	H16	0.359800	0.553200	0.115300
H171	H17	0.638100	0.518100	0.103200
H181	H18	0.312500	0.157400	0.191800
H191	H19	0.776600	0.681200	0.074200
H201	H20	0.518500	0.270300	0.968700
H211	H21	0.366500	0.308200	0.309000
H221	H22	0.720300	0.487200	0.607600
H231	H23	0.475500	0.441200	0.977400
H241	H24	0.070600	0.833300	0.975700
H251	H25	0.240700	0.213200	0.583900
H261	H26	0.271800	0.475000	0.575400
H271	H27	0.231200	0.726700	0.100000
H281	H28	0.706300	0.189900	0.230300
H291	H29	0.391300	0.121400	0.659100
H301	H30	0.683100	0.610900	0.072600
H311	H31	0.782700	0.990300	0.072300
H321	H32	0.910800	0.848600	0.821400
H331	H33	0.268600	0.048400	0.059100
H341	H34	0.411600	0.316000	0.462300
H351	H35	0.997000	0.912500	0.329600
H361	H36	0.753000	0.943400	0.690600
H371	H37	0.841900	0.030600	0.205500
H381	H38	0.569700	0.242000	0.824100
H391	H39	0.193200	0.984000	0.094800
H401	H40	0.512500	0.415000	0.830500
H411	H41	0.251600	0.698300	0.725100
H421	H42	0.226800	0.098000	0.227300
H431	H43	0.733400	0.452700	0.220800
H441	H44	0.853400	0.847000	0.888200
H451	H45	0.871000	0.045300	0.618100
H461	H46	0.004000	0.954300	0.475700
H471	H47	0.368300	0.282600	0.384600
H481	H48	0.277900	0.951800	0.695300
H491	H49	0.571100	0.356300	0.335100
H501	H50	0.801700	0.551400	0.575200
H511	H51	0.006100	0.961200	0.401900
H521	H52	0.971800	0.781700	0.471700
H531	H53	0.859900	0.641400	0.573900
H541	H54	0.275000	0.460200	0.208500
H551	H55	0.758700	0.224300	0.605900
H561	H56	0.313500	0.654900	0.095300
H571	H57	0.618300	0.382500	0.412900
H581	H58	0.361000	0.025300	0.691600
H591	H59	0.723800	0.078800	0.064700
H601	H60	0.145800	0.023800	0.222800
H611	H61	0.184400	0.530600	0.206500
H621	H62	0.975000	0.726600	0.398700
H631	H63	0.328900	0.622900	0.727600
H641	H64	0.657600	0.157100	0.098500
H651	H65	0.130400	0.046200	0.617800
H661	H66	0.778600	0.110500	0.239400
H671	H67	0.860900	0.849100	0.966200
H681	H68	0.797500	0.683500	0.693300
H691	H69	0.675100	0.019800	0.694700
H701	H70	0.129300	0.831600	0.832300
H711	H71	0.991400	0.733400	0.326300
H721	H72	0.364200	0.528200	0.696600
C11	C1	0.478500	0.324100	0.265200
C21	C2	0.208800	0.137000	0.604400
C31	C3	0.512600	0.307500	0.955100
C41	C4	0.274100	0.501700	0.599700
C51	C5	0.823700	0.005200	0.139500
C61	C6	0.902500	0.845900	0.952100
C71	C7	0.291300	0.625000	0.703800
C81	C8	0.324500	0.175900	0.623500
C91	C9	0.460600	0.322800	0.406600
C101	C10	0.679100	0.477900	0.159000
C111	C11	0.742200	0.065200	0.093600
C121	C12	0.252600	0.050700	0.126800
C131	C13	0.960800	0.846100	0.883200
C141	C14	0.680000	0.128200	0.660500
C151	C15	0.955800	0.845700	0.838700
C161	C16	0.797900	0.579800	0.597800
C171	C17	0.142000	0.946500	0.660700
C181	C18	0.991100	0.817000	0.411700
C191	C19	0.691000	0.180700	0.642200
C201	C20	0.018400	0.841000	0.816300
C211	C21	0.314400	0.029900	0.676700
C221	C22	0.230300	0.692400	0.117400
C231	C23	0.578100	0.364800	0.422800
C241	C24	0.015100	0.841200	0.767800
C251	C25	0.672200	0.178000	0.164100
C261	C26	0.372600	0.443100	0.640400
C271	C27	0.303000	0.135700	0.164800
C281	C28	0.246000	0.669600	0.702200
C291	C29	0.227100	0.590800	0.170100
C301	C30	0.870400	0.940200	0.649800
C311	C31	0.228500	0.548500	0.597500
C321	C32	0.407100	0.302500	0.374800
C331	C33	0.278400	0.649600	0.114700
C341	C34	0.225300	0.087100	0.630200
C351	C35	0.002300	0.924000	0.415000
C361	C36	0.319700	0.119400	0.088600
C371	C37	0.189600	0.674300	0.666600
C381	C38	0.125400	0.731700	0.148000
C391	C39	0.283900	0.580300	0.670000
C401	C40	0.618900	0.224200	0.157800
C411	C41	0.764800	0.086300	0.172400
C421	C42	0.982400	0.816700	0.457200
C431	C43	0.177600	0.636100	0.171300
C441	C44	0.623300	0.435300	0.157400
C451	C45	0.168800	0.987000	0.159300
C461	C46	0.327400	0.550600	0.136600
C471	C47	0.670800	0.505700	0.662300
C481	C48	0.343600	0.125900	0.646400
C491	C49	0.676000	0.518900	0.127000
C501	C50	0.535000	0.330600	0.818400
C511	C51	0.754800	0.570700	0.630800
C521	C52	0.136300	0.723200	0.666100
C531	C53	0.090000	0.833900	0.890600
C541	C54	0.229500	0.586600	0.632400
C551	C55	0.176900	0.042900	0.633200
C561	C56	0.754800	0.120000	0.210700
C571	C57	0.885100	0.700000	0.138800
C581	C58	0.830600	0.040500	0.633200
C591	C59	0.180600	0.634800	0.635000
C601	C60	0.681300	0.146300	0.127000
C611	C61	0.728800	0.564000	0.127800
C621	C62	0.329000	0.533200	0.671600
C631	C63	0.488600	0.347100	0.028300
C641	C64	0.521300	0.315000	0.909900
C651	C65	0.776300	0.652800	0.097100
C661	C66	0.528900	0.343200	0.345500
C671	C67	0.493000	0.415500	0.916400
C681	C68	0.542200	0.268700	0.882600
C691	C69	0.711000	0.165500	0.205300
C701	C70	0.835700	0.631600	0.598500
C711	C71	0.026700	0.837800	0.957400
C721	C72	0.275500	0.494300	0.190900
C731	C73	0.328800	0.152900	0.127100
C741	C74	0.264900	0.986500	0.679300
C751	C75	0.328900	0.504800	0.162300
C761	C76	0.715400	0.515600	0.629900
C771	C77	0.815300	0.038700	0.177300
C781	C78	0.999300	0.919700	0.458400
C791	C79	0.830600	0.651900	0.135500
C801	C80	0.987300	0.866600	0.532000
C811	C81	0.322900	0.493800	0.637100
C821	C82	0.998700	0.876200	0.344700
C831	C83	0.511400	0.370700	0.889700
C841	C84	0.838400	0.670200	0.636200
C851	C85	0.261800	0.085100	0.163200
C861	C86	0.495300	0.354600	0.979430
C871	C87	0.722600	0.609500	0.095200
C881	C88	0.174500	0.029200	0.199600
C891	C89	0.455200	0.325900	0.452100
C901	C90	0.278900	0.069500	0.086300
C911	C91	0.408700	0.310600	0.329400
C921	C92	0.832500	0.609700	0.166700
C931	C93	0.760600	0.979600	0.676800
C941	C94	0.783400	0.086800	0.634900
C951	C95	0.725500	0.080300	0.659500
C961	C96	0.576400	0.360200	0.465800
C971	C97	0.087000	0.834900	0.845630
C981	C98	0.883200	0.722100	0.637800
C991	C99	0.518700	0.377800	0.843900
C1001	C100	0.278500	0.597000	0.139600
C1011	C101	0.626500	0.454800	0.659700
C1021	C102	0.750500	0.188000	0.619300
C1031	C103	0.818900	0.987600	0.653400
C1041	C104	0.118700	0.943200	0.157580
C1051	C105	0.386000	0.201300	0.131200
C1061	C106	0.782200	0.016100	0.096900
C1071	C107	0.525000	0.345400	0.390800
C1081	C108	0.223800	0.538100	0.191000
C1091	C109	0.641200	0.229700	0.646100
C1101	C110	0.510100	0.341800	0.531500
C1111	C111	0.203100	0.003900	0.122600
C1121	C112	0.989700	0.868300	0.480400
C1131	C113	0.025700	0.841000	0.912000
C1141	C114	0.966700	0.840800	0.977300
C1151	C115	0.784000	0.562800	0.165200
C1161	C116	0.380600	0.454200	0.158100
C1171	C117	0.797100	0.142100	0.616300
C1181	C118	0.196000	0.993500	0.658500
C1191	C119	0.705600	0.597200	0.698200
C1201	C120	0.715000	0.025100	0.679300
C1211	C121	0.971600	0.838000	0.028100
C1221	C122	0.796800	0.656900	0.669100
C1231	C123	0.753600	0.607600	0.670100
C1241	C124	0.486400	0.408800	0.960030
C1251	C125	0.783400	0.522100	0.197100
C1261	C126	0.727200	0.096100	0.131000
C1271	C127	0.732900	0.479700	0.196900
C1281	C128	0.552300	0.273400	0.840000
C1291	C129	0.000100	0.818500	0.319800
C1301	C130	0.984200	0.762900	0.385700
C1311	C131	0.001000	0.823200	0.269800
C1321	C132	0.376400	0.223900	0.622900
C1331	C133	0.898400	0.846400	0.905600
C1341	C134	0.991800	0.768400	0.342970
C1351	C135	0.254800	0.179800	0.601200
C1361	C136	0.539200	0.338400	0.769300
C1371	C137	0.511200	0.342800	0.483000
C1381	C138	0.665500	0.548000	0.695100
C1391	C139	0.220500	0.073700	0.201500
C1401	C140	0.296000	0.081000	0.651900
C1411	C141	0.181000	0.685100	0.145600
C1421	C142	0.999900	0.872200	0.387100
C1431	C143	0.876800	0.958900	0.142200
C1441	C144	0.474200	0.322600	0.313600
O11	O1	0.572500	0.455100	0.679600
O21	O2	0.962500	0.823600	0.547610
O31	O3	0.290200	0.313100	0.189800
O41	O4	0.876600	0.758000	0.670410
O51	O5	0.655800	0.277400	0.627560
O61	O6	0.025000	0.709500	0.550690
O71	O7	0.497500	0.184000	0.727800
O81	O8	0.421100	0.207100	0.098840
O91	O9	0.073900	0.841700	0.751490
O101	O10	0.033300	0.837300	0.048490
O111	O11	0.156500	0.766700	0.690620
O121	O12	0.916100	0.954200	0.180310
O131	O13	0.077300	0.938500	0.188660
O141	O14	0.983100	0.831860	0.148040
O151	O15	0.448200	0.333300	0.544880
O161	O16	0.916600	0.836100	0.045590
O171	O17	0.352900	0.272500	0.605200
O181	O18	0.925800	0.701700	0.175990
O191	O19	0.379600	0.236900	0.161400
O201	O20	0.010700	0.833420	0.648140
O211	O21	0.861500	0.893050	0.669130
O221	O22	0.159300	0.901200	0.681980
O231	O23	0.921700	0.728400	0.608360
O241	O24	0.426100	0.310400	0.239620
O251	O25	0.515100	0.386300	0.754030
O261	O26	0.439800	0.215500	0.636190
O271	O27	0.082300	0.723600	0.176470
O281	O28	0.417600	0.463000	0.127460
O291	O29	0.415400	0.439200	0.675660
O301	O30	0.382200	0.414900	0.183300
O311	O31	0.540400	0.335900	0.253950
O321	O32	0.127200	0.773300	0.123070
O331	O33	0.628400	0.394500	0.187760
O341	O34	0.591500	0.221300	0.667850
O351	O35	0.480920	0.330530	0.147380
O361	O36	0.955700	0.836500	0.745120
O371	O37	0.577600	0.229200	0.120740
O381	O38	0.996800	0.871600	0.251910
O391	O39	0.115800	0.908200	0.124230
O401	O40	0.619200	0.261400	0.191480
O411	O41	0.782600	0.824700	0.080880
O421	O42	0.497700	0.296800	0.045240
O431	O43	0.642300	0.412300	0.636470
O441	O44	0.080200	0.956000	0.639980
O451	O45	0.505300	0.331550	0.650620
O461	O46	0.572600	0.439400	0.126420
O471	O47	0.003900	0.774800	0.249240
O481	O48	0.078200	0.715600	0.644000
O491	O49	0.922100	0.950700	0.628390
O501	O50	0.475900	0.392100	0.049720
O511	O51	0.564300	0.348900	0.556950
O521	O52	0.556300	0.295800	0.746600
O531	O53	0.368900	0.407300	0.608460
O541	O54	0.883000	0.736300	0.108840
O551	O55	0.875800	0.923000	0.111600
O561	O56	0.002400	0.913700	0.551600
Zn171	Zn17	0.996460	0.094240	0.383970
Zn181	Zn18	0.010970	0.103920	0.811100
Zn191	Zn19	0.006040	0.237440	0.815670
Zn201	Zn20	0.520130	0.598370	0.885670
Zn211	Zn21	0.903990	0.165440	0.310620
Zn221	Zn22	0.069900	0.170970	0.319790
Zn231	Zn23	0.496710	0.741470	0.312560
Zn241	Zn24	0.411060	0.660080	0.377660
Zn251	Zn25	0.496780	0.602780	0.309600
Zn261	Zn26	0.438830	0.669270	0.807040
Zn271	Zn27	0.111530	0.169220	0.890050
Zn281	Zn28	0.511690	0.730610	0.894610
Zn291	Zn29	0.985570	0.229410	0.398890
Zn301	Zn30	0.940450	0.162650	0.887340
Zn311	Zn31	0.577300	0.665330	0.393920
Zn321	Zn32	0.610860	0.675080	0.827120
H731	H73	0.162000	0.852500	0.398100
H741	H74	0.608700	0.878600	0.340900
H751	H75	0.858500	0.367400	0.809900
H761	H76	0.003000	0.087500	0.670400
H771	H77	0.515300	0.547200	0.096600
H781	H78	0.025000	0.273400	0.601300
H791	H79	0.993900	0.038800	0.598100
H801	H80	0.316900	0.389100	0.927400
H811	H81	0.728200	0.525000	0.424600
H821	H82	0.671100	0.377100	0.272400
H831	H83	0.588400	0.684000	0.537700
H841	H84	0.131200	0.388400	0.808500
H851	H85	0.198300	0.448600	0.424800
H861	H86	0.158100	0.969400	0.794500
H871	H87	0.382400	0.631900	0.513900
H881	H88	0.768800	0.273300	0.900000
H891	H89	0.179500	0.477400	0.778600
H901	H90	0.266600	0.547300	0.779200
H911	H91	0.815600	0.469400	0.793500
H921	H92	0.247000	0.056600	0.309400
H931	H93	0.202500	0.316500	0.306700
H941	H94	0.430300	0.758000	0.175900
H951	H95	0.658300	0.869300	0.936600
H961	H96	0.731400	0.951600	0.940900
H971	H97	0.428900	0.643700	0.664900
H981	H98	0.639000	0.974700	0.308400
H991	H99	0.028200	0.218300	0.528300
H1001	H100	0.759300	0.786800	0.416100
H1011	H101	0.241300	0.775700	0.394100
H1021	H102	0.381700	0.617500	0.587100
H1031	H103	0.722100	0.048200	0.304700
H1041	H104	0.859400	0.362400	0.387100
H1051	H105	0.631700	0.717400	0.615400
H1061	H106	0.837300	0.859600	0.411500
H1071	H107	0.293700	0.810100	0.769700
H1081	H108	0.929400	0.166700	0.024300
H1091	H109	0.806800	0.016000	0.905200
H1101	H110	0.481500	0.729700	0.031300
H1111	H111	0.450600	0.768500	0.103800
H1121	H112	0.748400	0.301700	0.274900
H1131	H113	0.217300	0.009700	0.927700
H1141	H114	0.361000	0.876600	0.325000
H1151	H115	0.854200	0.976200	0.777200
H1161	H116	0.487500	0.585000	0.169500
H1171	H117	0.089200	0.151400	0.178600
H1181	H118	0.146600	0.153000	0.111800
H1191	H119	0.870700	0.168400	0.167700
H1201	H120	0.279700	0.512800	0.392400
H1211	H121	0.687500	0.842600	0.808200
H1221	H122	0.869600	0.953800	0.382200
H1231	H123	0.725000	0.539800	0.791500
H1241	H124	0.129000	0.954700	0.381900
H1251	H125	0.635800	0.471800	0.303400
H1261	H126	0.342400	0.842900	0.901500
H1271	H127	0.139100	0.150900	0.033800
H1281	H128	0.524500	0.558800	0.022600
H1291	H129	0.140100	0.358600	0.426100
H1301	H130	0.324900	0.980200	0.305300
H1311	H131	0.865900	0.171500	0.091400
H1321	H132	0.221400	0.889500	0.760600
H1331	H133	0.300500	0.375100	0.279100
H1341	H134	0.804100	0.445800	0.428800
H1351	H135	0.008600	0.266600	0.673700
H1361	H136	0.996000	0.045700	0.524300
H1371	H137	0.276200	0.921200	0.935300
H1381	H138	0.361900	0.481900	0.896800
H1391	H139	0.773200	0.902000	0.772700
H1401	H140	0.223400	0.318800	0.925800
H1411	H141	0.640200	0.446800	0.884700
H1421	H142	0.686500	0.345100	0.904700
H1431	H143	0.633500	0.691800	0.691000
H1441	H144	0.367200	0.457800	0.284000
C1451	C145	0.289000	0.834500	0.794700
C1461	C146	0.627400	0.556900	0.359600
C1471	C147	0.010300	0.131700	0.519600
C1481	C148	0.539400	0.677200	0.593400
C1491	C149	0.521500	0.675900	0.734800
C1501	C150	0.507000	0.584500	0.083600
C1511	C151	0.656400	0.874100	0.353600
C1521	C152	0.294400	0.402800	0.301800
C1531	C153	0.274500	0.919700	0.340500
C1541	C154	0.202100	0.420200	0.402200
C1551	C155	0.769700	0.307600	0.882600
C1561	C156	0.223700	0.347200	0.902900
C1571	C157	0.511400	0.652900	0.971700
C1581	C158	0.245200	0.880000	0.789300
C1591	C159	0.381100	0.775800	0.842200
C1601	C160	0.881300	0.056800	0.842420
C1611	C161	0.447700	0.726600	0.160000
C1621	C162	0.028400	0.162000	0.971900
C1631	C163	0.819400	0.365200	0.365000
C1641	C164	0.677100	0.506200	0.362900
C1651	C165	0.101600	0.153600	0.094400
C1661	C166	0.973300	0.162200	0.042600
C1671	C167	0.671100	0.495200	0.837700
C1681	C168	0.747400	0.949300	0.873200
C1691	C169	0.267100	0.520300	0.803100
C1701	C170	0.735100	0.013500	0.320700
C1711	C171	0.672600	0.449400	0.863400
C1721	C172	0.184700	0.961300	0.822700
C1731	C173	0.039200	0.153900	0.116800
C1741	C174	0.863700	0.276800	0.333900
C1751	C175	0.716100	0.419700	0.330000
C1761	C176	0.257800	0.934800	0.906400
C1771	C177	0.320000	0.871800	0.339500
C1781	C178	0.044200	0.154300	0.161300
C1791	C179	0.239400	0.020400	0.323200
C1801	C180	0.874600	0.268300	0.852000
C1811	C181	0.779500	0.926300	0.798500
C1821	C182	0.329200	0.494300	0.337700
C1831	C183	0.671200	0.847100	0.872900
C1841	C184	0.008900	0.183000	0.588300
C1851	C185	0.910000	0.166100	0.109400
C1861	C186	0.358800	0.770300	0.353900
C1871	C187	0.708700	0.375000	0.296200
C1881	C188	0.164300	0.368400	0.401500
C1891	C189	0.246400	0.392400	0.329900
C1901	C190	0.487400	0.692500	0.044900
C1911	C191	0.169400	0.348100	0.864500
C1921	C192	0.114900	0.300000	0.861200
C1931	C193	0.671000	0.466800	0.328400
C1941	C194	0.017600	0.183300	0.542800
C1951	C195	0.675500	0.824100	0.376500
C1961	C196	0.169400	0.959500	0.366800
C1971	C197	0.804000	0.006500	0.341500
C1981	C198	0.513600	0.591200	0.039970
C1991	C199	0.161600	0.329800	0.363800
C2001	C200	0.167500	0.390300	0.833300
C2011	C201	0.623600	0.776100	0.377100
C2021	C202	0.776200	0.461900	0.809000
C2031	C203	0.724500	0.505700	0.809100
C2041	C204	0.680300	0.880600	0.911400
C2051	C205	0.685600	0.970100	0.323300
C2061	C206	0.504700	0.645400	0.020570
C2071	C207	0.373500	0.545200	0.340300
C2081	C208	0.771500	0.451500	0.402500
C2091	C209	0.272800	0.903900	0.869000
C2101	C210	0.721500	0.403000	0.860400
C2111	C211	0.772900	0.409200	0.829900
C2121	C212	0.271200	0.436000	0.872200
C2131	C213	0.318700	0.853700	0.873000
C2141	C214	0.217800	0.983900	0.903100
C2151	C215	0.725900	0.498300	0.400300
C2161	C216	0.202900	0.857900	0.383700
C2171	C217	0.825500	0.970800	0.800400
C2181	C218	0.997700	0.076000	0.585000
C2191	C219	0.285000	0.974900	0.320700
C2201	C220	0.245200	0.429300	0.369200
C2211	C221	0.544800	0.674100	0.547900
C2221	C222	0.460800	0.661600	0.230700
C2231	C223	0.478700	0.685000	0.090100
C2241	C224	0.465000	0.669400	0.181600
C2251	C225	0.324000	0.481100	0.873000
C2261	C226	0.738200	0.914900	0.836800
C2271	C227	0.327800	0.822000	0.835900
C2281	C228	0.810400	0.325700	0.333400
C2291	C229	0.320900	0.522100	0.841000
C2301	C230	0.334500	0.452000	0.304900
C2311	C231	0.754000	0.330400	0.297800
C2321	C232	0.000100	0.127800	0.612900
C2331	C233	0.249500	0.812000	0.380700
C2341	C234	0.525800	0.677400	0.686400
C2351	C235	0.000700	0.080300	0.541600
C2361	C236	0.791200	0.863000	0.395600
C2371	C237	0.704000	0.919000	0.348100
C2381	C238	0.488600	0.629300	0.110300
C2391	C239	0.591300	0.689400	0.670600
C2401	C240	0.770500	0.413400	0.367600
C2411	C241	0.913000	0.165100	0.154370
C2421	C242	0.235200	0.913700	0.827600
C2431	C243	0.116800	0.277900	0.362200
C2441	C244	0.774700	0.912900	0.369800
C2451	C245	0.284600	0.484400	0.370100
C2461	C246	0.721600	0.350400	0.885300
C2471	C247	0.999900	0.181500	0.680200
C2481	C248	0.823100	0.957100	0.366800
C2491	C249	0.999000	0.176800	0.730200
C2501	C250	0.181100	0.012400	0.346600
C2511	C251	0.819000	0.314900	0.854400
C2521	C252	0.033300	0.159200	0.022700
C2531	C253	0.203200	0.343100	0.330900
C2541	C254	0.619400	0.545800	0.841900
C2551	C255	0.831200	0.013000	0.840700
C2561	C256	0.421900	0.635200	0.577200
C2571	C257	0.012700	0.133400	0.468000
C2581	C258	0.216600	0.477900	0.802900
C2591	C259	0.129600	0.059800	0.350200
C2601	C260	0.984900	0.158800	0.232200
C2611	C261	0.216000	0.437200	0.834800
C2621	C262	0.097500	0.154100	0.047900
C2631	C263	0.216600	0.913200	0.365100
C2641	C264	0.001300	0.123800	0.655300
C2651	C265	0.488800	0.657200	0.517000
C2661	C266	0.614000	0.798700	0.868800
C2671	C267	0.008200	0.231600	0.657030
C2681	C268	0.015800	0.237100	0.614300
C2691	C269	0.475000	0.654600	0.609200
C2701	C270	0.457800	0.731300	0.117400
C2711	C271	0.481300	0.622200	0.156100
C2721	C272	0.822400	0.363900	0.828700
C2731	C273	0.858000	0.053500	0.339300
C2741	C274	0.745200	0.820200	0.398800
C2751	C275	0.423600	0.639800	0.534200
C2761	C276	0.376700	0.564700	0.842600
C2771	C277	0.721100	0.930500	0.913700
C2781	C278	0.309000	0.819300	0.357800
C2791	C279	0.974300	0.159000	0.088000
C2801	C280	0.489900	0.658200	0.468500
C2811	C281	0.471100	0.656800	0.654500
C2821	C282	0.123200	0.041100	0.857800
C2831	C283	0.176300	0.994800	0.860500
C2841	C284	0.697000	0.864300	0.835200
C2851	C285	0.277400	0.390500	0.904800
C2861	C286	0.796900	0.996100	0.877400
C2871	C287	0.592900	0.697500	0.625200
C2881	C288	0.981600	0.159000	0.183700
O571	O57	0.872800	0.226700	0.876930
O581	O58	0.371600	0.605500	0.812240
O591	O59	0.843500	0.233300	0.309380
O601	O60	0.502300	0.703200	0.954760
O611	O61	0.380800	0.738600	0.808520
O621	O62	0.123400	0.242000	0.329590
O631	O63	0.966700	0.162700	0.951510
O641	O64	0.975000	0.290500	0.449310
O651	O65	0.989300	0.166580	0.351860
O661	O66	0.617800	0.585100	0.816700
O671	O67	0.117000	0.263700	0.891160
O681	O68	0.083400	0.163900	0.954410
O691	O69	0.582400	0.537000	0.872540
O701	O70	0.494700	0.668450	0.349380
O711	O71	0.620400	0.763100	0.838600
O721	O72	0.484900	0.613700	0.245970
O731	O73	0.524100	0.607900	0.950280
O741	O74	0.124200	0.077000	0.888400
O751	O75	0.427400	0.560600	0.873580
O761	O76	0.919800	0.044000	0.360020
O771	O77	0.997600	0.086300	0.448400
O781	O78	0.584600	0.560800	0.324340
O791	O79	0.083900	0.045800	0.819690
O801	O80	0.357700	0.587700	0.363530
O811	O81	0.578900	0.792900	0.901160
O821	O82	0.435700	0.651100	0.443050
O831	O83	0.459600	0.664100	0.746050
O841	O84	0.016900	0.168140	0.851960
O851	O85	0.551800	0.666700	0.455120
O861	O86	0.408500	0.778700	0.332150
O871	O87	0.427500	0.544900	0.320400
O881	O88	0.037500	0.176400	0.452390
O891	O89	0.996100	0.225200	0.750760
O901	O90	0.709800	0.686900	0.810200
O911	O91	0.138500	0.106950	0.330870
O921	O92	0.922700	0.061500	0.811340
O931	O93	0.884200	0.091800	0.875770
O941	O94	0.217400	0.175300	0.919120
O951	O95	0.044300	0.163500	0.254880
O961	O96	0.647100	0.727500	0.394800
O971	O97	0.502500	0.816000	0.272200
O981	O98	0.840700	0.098800	0.318020
O991	O99	0.926100	0.158300	0.248510
O1001	O100	0.631100	0.592700	0.391540
O1011	O101	0.921800	0.284400	0.356000
O1021	O102	0.560200	0.784500	0.363810
O1031	O103	0.344200	0.722600	0.372440
O1041	O104	0.422400	0.770800	0.879260
O1051	O105	0.573900	0.689600	0.760380
O1061	O106	0.003200	0.128400	0.748090
O1071	O107	0.519080	0.669470	0.852620
O1081	O108	0.917700	0.276400	0.823530
O1091	O109	0.074200	0.298300	0.824010
O1101	O110	0.077900	0.049300	0.371610
O1111	O111	0.443700	0.704200	0.253400
O1121	O112	0.078300	0.271600	0.391640
