data_WUTBES_freeONLY_PM
_symmetry_space_group_name_H-M	'P1'
_cell_length_a	13.471300
_cell_length_b	13.471300
_cell_length_c	14.922000
_cell_angle_alpha	90.000000
_cell_angle_beta	90.000000
_cell_angle_gamma	120.000000
_symmetry_Int_Tables_number 1

loop_
_symmetry_equiv_pos_as_xyz
'x,y,z'

loop_
_atom_site_label
_atom_site_type_symbol
_atom_site_fract_x
_atom_site_fract_y
_atom_site_fract_z
La11	La1	0.666670	0.333340	0.169560
La21	La2	0.333330	0.666660	0.330440
La31	La3	0.333330	0.666660	0.830440
La41	La4	0.666670	0.333340	0.669560
Cu11	Cu1	0.500000	0.500000	0.000000
Cu21	Cu2	0.000000	0.500000	0.000000
Cu31	Cu3	0.500000	0.000000	0.000000
Cu41	Cu4	0.000000	0.500000	0.500000
Cu51	Cu5	0.500000	0.500000	0.500000
Cu61	Cu6	0.500000	0.000000	0.500000
H11	H1	0.320100	0.182500	0.977600
H21	H2	0.292200	0.253400	0.046400
H31	H3	0.396300	0.316800	0.811500
H41	H4	0.457300	0.269300	0.873200
H51	H5	0.325900	0.351900	0.923900
H61	H6	0.862400	0.679900	0.977600
H71	H7	0.961200	0.707800	0.046400
H81	H8	0.920500	0.603700	0.811500
H91	H9	0.812000	0.542700	0.873200
H101	H10	0.026000	0.674100	0.923900
H111	H11	0.817500	0.137600	0.977600
H121	H12	0.746600	0.038800	0.046400
H131	H13	0.683200	0.079500	0.811500
H141	H14	0.730700	0.188000	0.873200
H151	H15	0.648100	0.974000	0.923900
H161	H16	0.137600	0.817500	0.522400
H171	H17	0.038800	0.746600	0.453600
H181	H18	0.079500	0.683200	0.688500
H191	H19	0.188000	0.730700	0.626800
H201	H20	0.974000	0.648100	0.576100
H211	H21	0.182500	0.320100	0.522400
H221	H22	0.253400	0.292200	0.453600
H231	H23	0.316800	0.396300	0.688500
H241	H24	0.269300	0.457300	0.626800
H251	H25	0.351900	0.325900	0.576100
H261	H26	0.679900	0.862400	0.522400
H271	H27	0.707800	0.961200	0.453600
H281	H28	0.603700	0.920500	0.688500
H291	H29	0.542700	0.812000	0.626800
H301	H30	0.674100	0.026000	0.576100
H311	H31	0.679900	0.817500	0.022400
H321	H32	0.707800	0.746600	0.953600
H331	H33	0.603700	0.683200	0.188500
H341	H34	0.542700	0.730700	0.126800
H351	H35	0.674100	0.648100	0.076100
H361	H36	0.137600	0.320100	0.022400
H371	H37	0.038800	0.292200	0.953600
H381	H38	0.079500	0.396300	0.188500
H391	H39	0.188000	0.457300	0.126800
H401	H40	0.974000	0.325900	0.076100
H411	H41	0.182500	0.862400	0.022400
H421	H42	0.253400	0.961200	0.953600
H431	H43	0.316800	0.920500	0.188500
H441	H44	0.269300	0.812000	0.126800
H451	H45	0.351900	0.026000	0.076100
H461	H46	0.862400	0.182500	0.477600
H471	H47	0.961200	0.253400	0.546400
H481	H48	0.920500	0.316800	0.311500
H491	H49	0.812000	0.269300	0.373200
H501	H50	0.026000	0.351900	0.423900
H511	H51	0.817500	0.679900	0.477600
H521	H52	0.746600	0.707800	0.546400
H531	H53	0.683200	0.603700	0.311500
H541	H54	0.730700	0.542700	0.373200
H551	H55	0.648100	0.674100	0.423900
H561	H56	0.320100	0.137600	0.477600
H571	H57	0.292200	0.038800	0.546400
H581	H58	0.396300	0.079500	0.311500
H591	H59	0.457300	0.188000	0.373200
H601	H60	0.325900	0.974000	0.423900
C11	C1	0.451500	0.271900	0.066800
C21	C2	0.351800	0.255300	0.008700
C31	C3	0.445800	0.334000	0.863300
C41	C4	0.559700	0.438800	0.843700
C51	C5	0.820400	0.548500	0.066800
C61	C6	0.903500	0.648200	0.008700
C71	C7	0.888200	0.554200	0.863300
C81	C8	0.879100	0.440300	0.843700
C91	C9	0.728100	0.179600	0.066800
C101	C10	0.744700	0.096500	0.008700
C111	C11	0.666000	0.111800	0.863300
C121	C12	0.561200	0.120900	0.843700
C131	C13	0.179600	0.728100	0.433200
C141	C14	0.096500	0.744700	0.491300
C151	C15	0.111800	0.666000	0.636700
C161	C16	0.120900	0.561200	0.656300
C171	C17	0.271900	0.451500	0.433200
C181	C18	0.255300	0.351800	0.491300
C191	C19	0.334000	0.445800	0.636700
C201	C20	0.438800	0.559700	0.656300
C211	C21	0.548500	0.820400	0.433200
C221	C22	0.648200	0.903500	0.491300
C231	C23	0.554200	0.888200	0.636700
C241	C24	0.440300	0.879100	0.656300
C251	C25	0.548500	0.728100	0.933200
C261	C26	0.648200	0.744700	0.991300
C271	C27	0.554200	0.666000	0.136700
C281	C28	0.440300	0.561200	0.156300
C291	C29	0.179600	0.451500	0.933200
C301	C30	0.096500	0.351800	0.991300
C311	C31	0.111800	0.445800	0.136700
C321	C32	0.120900	0.559700	0.156300
C331	C33	0.271900	0.820400	0.933200
C341	C34	0.255300	0.903500	0.991300
C351	C35	0.334000	0.888200	0.136700
C361	C36	0.438800	0.879100	0.156300
C371	C37	0.820400	0.271900	0.566800
C381	C38	0.903500	0.255300	0.508700
C391	C39	0.888200	0.334000	0.363300
C401	C40	0.879100	0.438800	0.343700
C411	C41	0.728100	0.548500	0.566800
C421	C42	0.744700	0.648200	0.508700
C431	C43	0.666000	0.554200	0.363300
C441	C44	0.561200	0.440300	0.343700
C451	C45	0.451500	0.179600	0.566800
C461	C46	0.351800	0.096500	0.508700
C471	C47	0.445800	0.111800	0.363300
C481	C48	0.559700	0.120900	0.343700
N11	N1	0.388500	0.348600	0.942470
N21	N2	0.960100	0.611500	0.942470
N31	N3	0.651400	0.039900	0.942470
N41	N4	0.039900	0.651400	0.557530
N51	N5	0.348600	0.388500	0.557530
N61	N6	0.611500	0.960100	0.557530
N71	N7	0.611500	0.651400	0.057530
N81	N8	0.039900	0.388500	0.057530
N91	N9	0.348600	0.960100	0.057530
N101	N10	0.960100	0.348600	0.442470
N111	N11	0.651400	0.611500	0.442470
N121	N12	0.388500	0.039900	0.442470
O11	O1	0.437800	0.197000	0.122980
O21	O2	0.546000	0.363300	0.056820
O31	O3	0.597400	0.523400	0.895430
O41	O4	0.613400	0.437600	0.775610
O51	O5	0.759200	0.562200	0.122980
O61	O6	0.817300	0.454000	0.056820
O71	O7	0.926000	0.402600	0.895430
O81	O8	0.824200	0.386600	0.775610
O91	O9	0.803000	0.240800	0.122980
O101	O10	0.636700	0.182700	0.056820
O111	O11	0.476600	0.074000	0.895430
O121	O12	0.562400	0.175800	0.775610
O131	O13	0.240800	0.803000	0.377020
O141	O14	0.182700	0.636700	0.443180
O151	O15	0.074000	0.476600	0.604570
O161	O16	0.175800	0.562400	0.724390
O171	O17	0.197000	0.437800	0.377020
O181	O18	0.363300	0.546000	0.443180
O191	O19	0.523400	0.597400	0.604570
O201	O20	0.437600	0.613400	0.724390
O211	O21	0.562200	0.759200	0.377020
O221	O22	0.454000	0.817300	0.443180
O231	O23	0.402600	0.926000	0.604570
O241	O24	0.386600	0.824200	0.724390
O251	O25	0.562200	0.803000	0.877020
O261	O26	0.454000	0.636700	0.943180
O271	O27	0.402600	0.476600	0.104570
O281	O28	0.386600	0.562400	0.224390
O291	O29	0.240800	0.437800	0.877020
O301	O30	0.182700	0.546000	0.943180
O311	O31	0.074000	0.597400	0.104570
O321	O32	0.175800	0.613400	0.224390
O331	O33	0.197000	0.759200	0.877020
O341	O34	0.363300	0.817300	0.943180
O351	O35	0.523400	0.926000	0.104570
O361	O36	0.437600	0.824200	0.224390
O371	O37	0.759200	0.197000	0.622980
O381	O38	0.817300	0.363300	0.556820
O391	O39	0.926000	0.523400	0.395430
O401	O40	0.824200	0.437600	0.275610
O411	O41	0.803000	0.562200	0.622980
O421	O42	0.636700	0.454000	0.556820
O431	O43	0.476600	0.402600	0.395430
O441	O44	0.562400	0.386600	0.275610
O451	O45	0.437800	0.240800	0.622980
O461	O46	0.546000	0.182700	0.556820
O471	O47	0.597400	0.074000	0.395430
O481	O48	0.613400	0.175800	0.275610
