data_XACZEH_freeONLY_PM
_symmetry_space_group_name_H-M	'P1'
_cell_length_a	14.285000
_cell_length_b	18.715800
_cell_length_c	18.715800
_cell_angle_alpha	66.240000
_cell_angle_beta	75.260800
_cell_angle_gamma	104.739000
_symmetry_Int_Tables_number 1

loop_
_symmetry_equiv_pos_as_xyz
'x,y,z'

loop_
_atom_site_label
_atom_site_type_symbol
_atom_site_fract_x
_atom_site_fract_y
_atom_site_fract_z
Cu11	Cu1	0.403370	0.440590	0.007430
Cu21	Cu2	0.467570	0.527140	0.331190
Cu31	Cu3	0.410800	0.007430	0.551980
Cu41	Cu4	0.798760	0.331190	0.141670
Cu51	Cu5	0.962780	0.551980	0.440590
Cu61	Cu6	0.940430	0.141670	0.527140
Cu71	Cu7	0.596630	0.559410	0.992570
Cu81	Cu8	0.532430	0.472860	0.668810
Cu91	Cu9	0.589200	0.992570	0.448020
Cu101	Cu10	0.201240	0.668810	0.858330
Cu111	Cu11	0.037220	0.448020	0.559410
Cu121	Cu12	0.059570	0.858330	0.472860
H11	H1	0.206300	0.321400	0.046400
H21	H2	0.263400	0.333800	0.974200
H31	H3	0.199000	0.315300	0.171100
H41	H4	0.592800	0.578500	0.151400
H51	H5	0.268400	0.370400	0.405000
H61	H6	0.170600	0.305400	0.418000
H71	H7	0.345100	0.255200	0.087600
H81	H8	0.758600	0.497700	0.051100
H91	H9	0.527200	0.115700	0.182400
H101	H10	0.628800	0.178300	0.167300
H111	H11	0.252700	0.046400	0.632200
H121	H12	0.237600	0.974200	0.692000
H131	H13	0.370100	0.171100	0.513600
H141	H14	0.744200	0.151400	0.270100
H151	H15	0.673400	0.405000	0.224600
H161	H16	0.588600	0.418000	0.276600
H171	H17	0.432700	0.087600	0.657200
H181	H18	0.809700	0.051100	0.451200
H191	H19	0.709600	0.182400	0.701900
H201	H20	0.796100	0.167300	0.654400
H211	H21	0.884900	0.632200	0.321400
H221	H22	0.929600	0.692000	0.333800
H231	H23	0.883700	0.513600	0.315300
H241	H24	0.014300	0.270100	0.578500
H251	H25	0.898000	0.224600	0.370400
H261	H26	0.865200	0.276600	0.305400
H271	H27	0.089900	0.657200	0.255200
H281	H28	0.260900	0.451200	0.497700
H291	H29	0.411500	0.701900	0.115700
H301	H30	0.450500	0.654400	0.178300
H311	H31	0.793700	0.678600	0.953600
H321	H32	0.736600	0.666200	0.025800
H331	H33	0.801000	0.684700	0.828900
H341	H34	0.407200	0.421500	0.848600
H351	H35	0.731600	0.629600	0.595000
H361	H36	0.829400	0.694600	0.582000
H371	H37	0.654900	0.744800	0.912400
H381	H38	0.241400	0.502300	0.948900
H391	H39	0.472800	0.884300	0.817600
H401	H40	0.371200	0.821700	0.832700
H411	H41	0.747300	0.953600	0.367800
H421	H42	0.762400	0.025800	0.308000
H431	H43	0.629900	0.828900	0.486400
H441	H44	0.255800	0.848600	0.729900
H451	H45	0.326600	0.595000	0.775400
H461	H46	0.411400	0.582000	0.723400
H471	H47	0.567300	0.912400	0.342800
H481	H48	0.190300	0.948900	0.548800
H491	H49	0.290400	0.817600	0.298100
H501	H50	0.203900	0.832700	0.345600
H511	H51	0.115100	0.367800	0.678600
H521	H52	0.070400	0.308000	0.666200
H531	H53	0.116300	0.486400	0.684700
H541	H54	0.985700	0.729900	0.421500
H551	H55	0.102000	0.775400	0.629600
H561	H56	0.134800	0.723400	0.694600
H571	H57	0.910100	0.342800	0.744800
H581	H58	0.739100	0.548800	0.502300
H591	H59	0.588500	0.298100	0.884300
H601	H60	0.549500	0.345600	0.821700
C11	C1	0.669400	0.568300	0.320000
C21	C2	0.612400	0.592800	0.383500
C31	C3	0.241800	0.355500	0.192100
C41	C4	0.397100	0.457300	0.155900
C51	C5	0.364400	0.440500	0.240800
C61	C6	0.267500	0.373900	0.301700
C71	C7	0.521000	0.536100	0.167800
C81	C8	0.412900	0.272800	0.087200
C91	C9	0.556100	0.375800	0.061800
C101	C10	0.599800	0.316600	0.098000
C111	C11	0.537000	0.230500	0.130100
C121	C12	0.704300	0.440500	0.056900
C131	C13	0.989400	0.320000	0.111700
C141	C14	0.995900	0.383500	0.023700
C151	C15	0.433900	0.192100	0.452400
C161	C16	0.553000	0.155900	0.386800
C171	C17	0.605200	0.240800	0.318700
C181	C18	0.569200	0.301700	0.324400
C191	C19	0.688800	0.167800	0.296100
C201	C20	0.500100	0.087200	0.640000
C211	C21	0.617900	0.061800	0.562400
C221	C22	0.697800	0.098000	0.585400
C231	C23	0.667100	0.130100	0.639400
C241	C24	0.761200	0.056900	0.502600
C251	C25	0.101100	0.111700	0.568300
C261	C26	0.019600	0.023700	0.592800
C271	C27	0.886300	0.452400	0.355500
C281	C28	0.939800	0.386800	0.457300
C291	C29	0.923900	0.318700	0.440500
C301	C30	0.893600	0.324400	0.373900
C311	C31	0.984900	0.296100	0.536100
C321	C32	0.140100	0.640000	0.272800
C331	C33	0.180300	0.562400	0.375800
C341	C34	0.283200	0.585400	0.316600
C351	C35	0.306500	0.639400	0.230500
C361	C36	0.263800	0.502600	0.440500
C371	C37	0.330600	0.431700	0.680000
C381	C38	0.387600	0.407200	0.616500
C391	C39	0.758200	0.644500	0.807900
C401	C40	0.602900	0.542700	0.844100
C411	C41	0.635600	0.559500	0.759200
C421	C42	0.732500	0.626100	0.698300
C431	C43	0.479000	0.463900	0.832200
C441	C44	0.587100	0.727200	0.912800
C451	C45	0.443900	0.624200	0.938200
C461	C46	0.400200	0.683400	0.902000
C471	C47	0.463000	0.769500	0.869900
C481	C48	0.295700	0.559500	0.943100
C491	C49	0.010600	0.680000	0.888300
C501	C50	0.004100	0.616500	0.976300
C511	C51	0.566100	0.807900	0.547600
C521	C52	0.447000	0.844100	0.613200
C531	C53	0.394800	0.759200	0.681300
C541	C54	0.430800	0.698300	0.675600
C551	C55	0.311200	0.832200	0.703900
C561	C56	0.499900	0.912800	0.360000
C571	C57	0.382100	0.938200	0.437600
C581	C58	0.302200	0.902000	0.414600
C591	C59	0.332900	0.869900	0.360600
C601	C60	0.238800	0.943100	0.497400
C611	C61	0.898900	0.888300	0.431700
C621	C62	0.980400	0.976300	0.407200
C631	C63	0.113700	0.547600	0.644500
C641	C64	0.060200	0.613200	0.542700
C651	C65	0.076100	0.681300	0.559500
C661	C66	0.106400	0.675600	0.626100
C671	C67	0.015100	0.703900	0.463900
C681	C68	0.859900	0.360000	0.727200
C691	C69	0.819700	0.437600	0.624200
C701	C70	0.716800	0.414600	0.683400
C711	C71	0.693500	0.360600	0.769500
C721	C72	0.736200	0.497400	0.559500
N11	N1	0.206700	0.333800	0.271500
N21	N2	0.336900	0.415500	0.127300
N31	N3	0.444400	0.494300	0.246600
N41	N4	0.494800	0.517600	0.111500
N51	N5	0.232600	0.347800	0.384200
N61	N6	0.439600	0.207500	0.128400
N71	N7	0.462500	0.353300	0.053100
N81	N8	0.695500	0.361200	0.093700
N91	N9	0.622900	0.452800	0.036200
N101	N10	0.568500	0.167200	0.163100
N111	N11	0.478200	0.271500	0.394700
N121	N12	0.464200	0.127300	0.457200
N131	N13	0.691000	0.246600	0.259100
N141	N14	0.606300	0.111500	0.370900
N151	N15	0.616800	0.384200	0.268000
N161	N16	0.568000	0.128400	0.664100
N171	N17	0.515600	0.053100	0.593600
N181	N18	0.789200	0.093700	0.545100
N191	N19	0.659100	0.036200	0.511000
N201	N20	0.731600	0.163100	0.669700
N211	N21	0.872900	0.394700	0.333800
N221	N22	0.921400	0.457200	0.415500
N231	N23	0.950100	0.259100	0.494300
N241	N24	0.977200	0.370900	0.517600
N251	N25	0.884800	0.268000	0.347800
N261	N26	0.232100	0.664100	0.207500
N271	N27	0.109200	0.593600	0.353300
N281	N28	0.334300	0.545100	0.361200
N291	N29	0.170100	0.511000	0.452800
N301	N30	0.401300	0.669700	0.167200
N311	N31	0.793300	0.666200	0.728500
N321	N32	0.663100	0.584500	0.872700
N331	N33	0.555600	0.505700	0.753400
N341	N34	0.505200	0.482400	0.888500
N351	N35	0.767400	0.652200	0.615800
N361	N36	0.560400	0.792500	0.871600
N371	N37	0.537500	0.646700	0.946900
N381	N38	0.304500	0.638800	0.906300
N391	N39	0.377100	0.547200	0.963800
N401	N40	0.431500	0.832800	0.836900
N411	N41	0.521800	0.728500	0.605300
N421	N42	0.535800	0.872700	0.542800
N431	N43	0.309000	0.753400	0.740900
N441	N44	0.393700	0.888500	0.629100
N451	N45	0.383200	0.615800	0.732000
N461	N46	0.432000	0.871600	0.335900
N471	N47	0.484400	0.946900	0.406400
N481	N48	0.210800	0.906300	0.454900
N491	N49	0.340900	0.963800	0.489000
N501	N50	0.268400	0.836900	0.330300
N511	N51	0.127100	0.605300	0.666200
N521	N52	0.078600	0.542800	0.584500
N531	N53	0.049900	0.740900	0.505700
N541	N54	0.022800	0.629100	0.482400
N551	N55	0.115200	0.732000	0.652200
N561	N56	0.767900	0.335900	0.792500
N571	N57	0.890800	0.406400	0.646700
N581	N58	0.665700	0.454900	0.638800
N591	N59	0.829900	0.489000	0.547200
N601	N60	0.598700	0.330300	0.832800
O11	O1	0.267100	0.357900	0.005800
O21	O2	0.612000	0.534700	0.291500
O31	O3	0.513100	0.573300	0.397900
O41	O4	0.763400	0.583000	0.300800
O51	O5	0.663400	0.628300	0.411800
O61	O6	0.272900	0.005800	0.636300
O71	O7	0.903500	0.291500	0.173800
O81	O8	0.911000	0.397900	0.028800
O91	O9	0.064200	0.300800	0.116200
O101	O10	0.075200	0.411800	0.959900
O111	O11	0.909200	0.636300	0.357900
O121	O12	0.077300	0.173800	0.534700
O131	O13	0.939800	0.028800	0.573300
O141	O14	0.180400	0.116200	0.583000
O151	O15	0.035100	0.959900	0.628300
O161	O16	0.732900	0.642100	0.994200
O171	O17	0.388000	0.465300	0.708500
O181	O18	0.486900	0.426700	0.602100
O191	O19	0.236600	0.417000	0.699200
O201	O20	0.336600	0.371700	0.588200
O211	O21	0.727100	0.994200	0.363700
O221	O22	0.096500	0.708500	0.826200
O231	O23	0.089000	0.602100	0.971200
O241	O24	0.935800	0.699200	0.883800
O251	O25	0.924800	0.588200	0.040100
O261	O26	0.090800	0.363700	0.642100
O271	O27	0.922700	0.826200	0.465300
O281	O28	0.060200	0.971200	0.426700
O291	O29	0.819600	0.883800	0.417000
O301	O30	0.964900	0.040100	0.371700
