data_XADDUD_freeONLY_PM
_symmetry_space_group_name_H-M	'P1'
_cell_length_a	11.207200
_cell_length_b	22.303400
_cell_length_c	22.303400
_cell_angle_alpha	86.380900
_cell_angle_beta	75.448800
_cell_angle_gamma	75.448800
_symmetry_Int_Tables_number 1

loop_
_symmetry_equiv_pos_as_xyz
'x,y,z'

loop_
_atom_site_label
_atom_site_type_symbol
_atom_site_fract_x
_atom_site_fract_y
_atom_site_fract_z
Co11	Co1	0.036060	0.403460	0.868280
Co21	Co2	0.255320	0.398620	0.729960
Co31	Co3	0.807800	0.096540	0.631720
Co41	Co4	0.883900	0.101380	0.770040
Co51	Co5	0.904340	0.131720	0.903460
Co61	Co6	0.985280	0.270040	0.898620
Co71	Co7	0.439520	0.368280	0.596540
Co81	Co8	0.653940	0.229960	0.601380
Co91	Co9	0.963940	0.596540	0.131720
Co101	Co10	0.744680	0.601380	0.270040
Co111	Co11	0.192200	0.903460	0.368280
Co121	Co12	0.116100	0.898620	0.229960
Co131	Co13	0.095660	0.868280	0.096540
Co141	Co14	0.014720	0.729960	0.101380
Co151	Co15	0.560480	0.631720	0.403460
Co161	Co16	0.346060	0.770040	0.398620
H11	H1	0.395900	0.547300	0.795100
H21	H2	0.431200	0.628400	0.842000
H31	H3	0.304500	0.665200	0.937200
H41	H4	0.120600	0.531400	0.945200
H51	H5	0.282400	0.214700	0.927300
H61	H6	0.434300	0.122900	0.929100
H71	H7	0.589900	0.086800	0.840400
H81	H8	0.433500	0.231300	0.745900
H91	H9	0.831100	0.483400	0.881000
H101	H10	0.913200	0.512000	0.896400
H111	H11	0.784700	0.553300	0.755100
H121	H12	0.799200	0.485400	0.781000
H131	H13	0.714500	0.541500	0.823300
H141	H14	0.919700	0.616200	0.781000
H151	H15	0.853700	0.615800	0.851800
H161	H16	0.000700	0.588400	0.828600
H171	H17	0.238300	0.952700	0.704900
H181	H18	0.401600	0.871600	0.658000
H191	H19	0.406900	0.834800	0.562800
H201	H20	0.097200	0.968600	0.554800
H211	H21	0.924400	0.285300	0.572700
H221	H22	0.986300	0.377100	0.570900
H231	H23	0.017100	0.413200	0.659600
H241	H24	0.910700	0.268700	0.754100
H251	H25	0.695500	0.016600	0.619000
H261	H26	0.821600	0.988000	0.603600
H271	H27	0.593100	0.946700	0.744900
H281	H28	0.565600	0.014600	0.719000
H291	H29	0.579300	0.958500	0.676700
H301	H30	0.816900	0.883800	0.719000
H311	H31	0.821300	0.884200	0.648200
H321	H32	0.917700	0.911600	0.671400
H331	H33	0.191000	0.204900	0.047300
H341	H34	0.273200	0.158000	0.128400
H351	H35	0.241700	0.062800	0.165200
H361	H36	0.065800	0.054800	0.031400
H371	H37	0.209700	0.072700	0.714700
H381	H38	0.363400	0.070900	0.622900
H391	H39	0.430300	0.159600	0.586800
H401	H40	0.179400	0.254100	0.731300
H411	H41	0.712100	0.119000	0.983400
H421	H42	0.809600	0.103600	0.012000
H431	H43	0.539800	0.244900	0.053300
H441	H44	0.580200	0.219000	0.985400
H451	H45	0.537800	0.176700	0.041500
H461	H46	0.700700	0.219000	0.116200
H471	H47	0.705500	0.148200	0.115800
H481	H48	0.829300	0.171400	0.088400
H491	H49	0.943200	0.295100	0.452700
H501	H50	0.059600	0.342000	0.371600
H511	H51	0.969700	0.437200	0.334800
H521	H52	0.652000	0.445200	0.468600
H531	H53	0.497100	0.427300	0.785300
H541	H54	0.557200	0.429100	0.877100
H551	H55	0.676700	0.340400	0.913200
H561	H56	0.664800	0.245900	0.768700
H571	H57	0.314500	0.381000	0.516600
H581	H58	0.425200	0.396400	0.488000
H591	H59	0.338000	0.255100	0.446700
H601	H60	0.284600	0.281000	0.514600
H611	H61	0.256000	0.323300	0.458500
H621	H62	0.535900	0.281000	0.383800
H631	H63	0.469500	0.351800	0.384200
H641	H64	0.589100	0.328600	0.411600
H651	H65	0.604100	0.452700	0.204900
H661	H66	0.568800	0.371600	0.158000
H671	H67	0.695500	0.334800	0.062800
H681	H68	0.879400	0.468600	0.054800
H691	H69	0.717600	0.785300	0.072700
H701	H70	0.565700	0.877100	0.070900
H711	H71	0.410100	0.913200	0.159600
H721	H72	0.566500	0.768700	0.254100
H731	H73	0.168900	0.516600	0.119000
H741	H74	0.086800	0.488000	0.103600
H751	H75	0.215300	0.446700	0.244900
H761	H76	0.200800	0.514600	0.219000
H771	H77	0.285500	0.458500	0.176700
H781	H78	0.080300	0.383800	0.219000
H791	H79	0.146300	0.384200	0.148200
H801	H80	0.999300	0.411600	0.171400
H811	H81	0.761700	0.047300	0.295100
H821	H82	0.598400	0.128400	0.342000
H831	H83	0.593100	0.165200	0.437200
H841	H84	0.902800	0.031400	0.445200
H851	H85	0.075600	0.714700	0.427300
H861	H86	0.013700	0.622900	0.429100
H871	H87	0.982900	0.586800	0.340400
H881	H88	0.089300	0.731300	0.245900
H891	H89	0.304500	0.983400	0.381000
H901	H90	0.178400	0.012000	0.396400
H911	H91	0.406900	0.053300	0.255100
H921	H92	0.434400	0.985400	0.281000
H931	H93	0.420700	0.041500	0.323300
H941	H94	0.183100	0.116200	0.281000
H951	H95	0.178700	0.115800	0.351800
H961	H96	0.082300	0.088400	0.328600
H971	H97	0.809000	0.795100	0.952700
H981	H98	0.726800	0.842000	0.871600
H991	H99	0.758300	0.937200	0.834800
H1001	H100	0.934200	0.945200	0.968600
H1011	H101	0.790300	0.927300	0.285300
H1021	H102	0.636600	0.929100	0.377100
H1031	H103	0.569700	0.840400	0.413200
H1041	H104	0.820600	0.745900	0.268700
H1051	H105	0.287900	0.881000	0.016600
H1061	H106	0.190400	0.896400	0.988000
H1071	H107	0.460200	0.755100	0.946700
H1081	H108	0.419800	0.781000	0.014600
H1091	H109	0.462200	0.823300	0.958500
H1101	H110	0.299300	0.781000	0.883800
H1111	H111	0.294500	0.851800	0.884200
H1121	H112	0.170700	0.828600	0.911600
H1131	H113	0.056800	0.704900	0.547300
H1141	H114	0.940400	0.658000	0.628400
H1151	H115	0.030300	0.562800	0.665200
H1161	H116	0.348000	0.554800	0.531400
H1171	H117	0.502900	0.572700	0.214700
H1181	H118	0.442800	0.570900	0.122900
H1191	H119	0.323300	0.659600	0.086800
H1201	H120	0.335200	0.754100	0.231300
H1211	H121	0.685500	0.619000	0.483400
H1221	H122	0.574800	0.603600	0.512000
H1231	H123	0.662000	0.744900	0.553300
H1241	H124	0.715400	0.719000	0.485400
H1251	H125	0.744000	0.676700	0.541500
H1261	H126	0.464100	0.719000	0.616200
H1271	H127	0.530500	0.648200	0.615800
H1281	H128	0.410900	0.671400	0.588400
C11	C1	0.228340	0.477730	0.837790
C21	C2	0.253970	0.531300	0.865560
C31	C3	0.347100	0.560560	0.834440
C41	C4	0.366800	0.609600	0.862200
C51	C5	0.292220	0.631150	0.919610
C61	C6	0.199320	0.602000	0.950760
C71	C7	0.181680	0.551750	0.923890
C81	C8	0.116420	0.624210	0.013350
C91	C9	0.254500	0.294800	0.832600
C101	C10	0.343920	0.233150	0.836410
C111	C11	0.343560	0.200090	0.891390
C121	C12	0.435050	0.145140	0.892360
C131	C13	0.527600	0.122930	0.839070
C141	C14	0.526160	0.155260	0.783820
C151	C15	0.434400	0.209850	0.782950
C161	C16	0.626230	0.135180	0.726160
C171	C17	0.790200	0.527800	0.791200
C181	C18	0.898200	0.532700	0.812100
C191	C19	0.920000	0.593500	0.818900
C201	C20	0.043860	0.022270	0.662210
C211	C21	0.150830	0.968700	0.634440
C221	C22	0.242100	0.939440	0.665560
C231	C23	0.338600	0.890400	0.637800
C241	C24	0.342980	0.868850	0.580390
C251	C25	0.252080	0.898000	0.549240
C261	C26	0.157320	0.948250	0.576110
C271	C27	0.253980	0.875790	0.486650
C281	C28	0.881900	0.205200	0.667400
C291	C29	0.913480	0.266850	0.663590
C301	C30	0.935040	0.299910	0.608610
C311	C31	0.972550	0.354860	0.607640
C321	C32	0.989600	0.377070	0.660930
C331	C33	0.965240	0.344740	0.716180
C341	C34	0.927200	0.290150	0.717050
C351	C35	0.987570	0.364820	0.773840
C361	C36	0.609200	0.972200	0.708800
C371	C37	0.743000	0.967300	0.687900
C381	C38	0.832400	0.906500	0.681100
C391	C39	0.066130	0.162210	0.977730
C401	C40	0.119530	0.134440	0.031300
C411	C41	0.181540	0.165560	0.060560
C421	C42	0.229000	0.137800	0.109600
C431	C43	0.211830	0.080390	0.131150
C441	C44	0.150080	0.049240	0.102000
C451	C45	0.105570	0.076110	0.051750
C461	C46	0.129770	0.986650	0.124210
C471	C47	0.087100	0.167400	0.794800
C481	C48	0.180330	0.163590	0.733150
C491	C49	0.234950	0.108610	0.700090
C501	C50	0.327410	0.107640	0.645140
C511	C51	0.366670	0.160930	0.622930
C521	C52	0.309980	0.216180	0.655260
C531	C53	0.217350	0.217050	0.709850
C541	C54	0.352390	0.273840	0.635180
C551	C55	0.581400	0.208800	0.027800
C561	C56	0.710300	0.187900	0.032700
C571	C57	0.738900	0.181100	0.093500
C581	C58	0.706070	0.337790	0.522270
C591	C59	0.785270	0.365560	0.468700
C601	C60	0.907660	0.334440	0.439440
C611	C61	0.976400	0.362200	0.390400
C621	C62	0.923370	0.419610	0.368850
C631	C63	0.801320	0.450760	0.398000
C641	C64	0.733430	0.423890	0.448250
C651	C65	0.740630	0.513350	0.375790
C661	C66	0.549300	0.332600	0.705200
C671	C67	0.577070	0.336410	0.766850
C681	C68	0.543650	0.391390	0.799910
C691	C69	0.580190	0.392360	0.854860
C701	C70	0.650530	0.339070	0.877070
C711	C71	0.681420	0.283820	0.844740
C721	C72	0.644250	0.282950	0.790150
C731	C73	0.761410	0.226160	0.864820
C741	C74	0.318000	0.291200	0.472200
C751	C75	0.430900	0.312100	0.467300
C761	C76	0.513500	0.318900	0.406500
C771	C77	0.771660	0.522270	0.162210
C781	C78	0.746030	0.468700	0.134440
C791	C79	0.652900	0.439440	0.165560
C801	C80	0.633200	0.390400	0.137800
C811	C81	0.707780	0.368850	0.080390
C821	C82	0.800680	0.398000	0.049240
C831	C83	0.818320	0.448250	0.076110
C841	C84	0.883580	0.375790	0.986650
C851	C85	0.745500	0.705200	0.167400
C861	C86	0.656080	0.766850	0.163590
C871	C87	0.656440	0.799910	0.108610
C881	C88	0.564950	0.854860	0.107640
C891	C89	0.472400	0.877070	0.160930
C901	C90	0.473840	0.844740	0.216180
C911	C91	0.565600	0.790150	0.217050
C921	C92	0.373770	0.864820	0.273840
C931	C93	0.209800	0.472200	0.208800
C941	C94	0.101800	0.467300	0.187900
C951	C95	0.080000	0.406500	0.181100
C961	C96	0.956140	0.977730	0.337790
C971	C97	0.849170	0.031300	0.365560
C981	C98	0.757900	0.060560	0.334440
C991	C99	0.661400	0.109600	0.362200
C1001	C100	0.657020	0.131150	0.419610
C1011	C101	0.747920	0.102000	0.450760
C1021	C102	0.842680	0.051750	0.423890
C1031	C103	0.746020	0.124210	0.513350
C1041	C104	0.118100	0.794800	0.332600
C1051	C105	0.086520	0.733150	0.336410
C1061	C106	0.064960	0.700090	0.391390
C1071	C107	0.027450	0.645140	0.392360
C1081	C108	0.010400	0.622930	0.339070
C1091	C109	0.034760	0.655260	0.283820
C1101	C110	0.072800	0.709850	0.282950
C1111	C111	0.012430	0.635180	0.226160
C1121	C112	0.390800	0.027800	0.291200
C1131	C113	0.257000	0.032700	0.312100
C1141	C114	0.167600	0.093500	0.318900
C1151	C115	0.933870	0.837790	0.022270
C1161	C116	0.880470	0.865560	0.968700
C1171	C117	0.818460	0.834440	0.939440
C1181	C118	0.771000	0.862200	0.890400
C1191	C119	0.788170	0.919610	0.868850
C1201	C120	0.849920	0.950760	0.898000
C1211	C121	0.894430	0.923890	0.948250
C1221	C122	0.870230	0.013350	0.875790
C1231	C123	0.912900	0.832600	0.205200
C1241	C124	0.819670	0.836410	0.266850
C1251	C125	0.765050	0.891390	0.299910
C1261	C126	0.672590	0.892360	0.354860
C1271	C127	0.633330	0.839070	0.377070
C1281	C128	0.690020	0.783820	0.344740
C1291	C129	0.782650	0.782950	0.290150
C1301	C130	0.647610	0.726160	0.364820
C1311	C131	0.418600	0.791200	0.972200
C1321	C132	0.289700	0.812100	0.967300
C1331	C133	0.261100	0.818900	0.906500
C1341	C134	0.293930	0.662210	0.477730
C1351	C135	0.214730	0.634440	0.531300
C1361	C136	0.092340	0.665560	0.560560
C1371	C137	0.023600	0.637800	0.609600
C1381	C138	0.076630	0.580390	0.631150
C1391	C139	0.198680	0.549240	0.602000
C1401	C140	0.266570	0.576110	0.551750
C1411	C141	0.259370	0.486650	0.624210
C1421	C142	0.450700	0.667400	0.294800
C1431	C143	0.422930	0.663590	0.233150
C1441	C144	0.456350	0.608610	0.200090
C1451	C145	0.419810	0.607640	0.145140
C1461	C146	0.349470	0.660930	0.122930
C1471	C147	0.318580	0.716180	0.155260
C1481	C148	0.355750	0.717050	0.209850
C1491	C149	0.238590	0.773840	0.135180
C1501	C150	0.682000	0.708800	0.527800
C1511	C151	0.569100	0.687900	0.532700
C1521	C152	0.486500	0.681100	0.593500
O11	O1	0.169000	0.444890	0.875510
O21	O2	0.267590	0.468960	0.780660
O31	O3	0.034220	0.595050	0.038710
O41	O4	0.134850	0.669870	0.036430
O51	O5	0.150760	0.311700	0.873980
O61	O6	0.290750	0.327210	0.787090
O71	O7	0.610460	0.154010	0.673870
O81	O8	0.731220	0.097270	0.729690
O91	O9	0.904470	0.490470	0.868390
O101	O10	0.989400	0.055110	0.624490
O111	O11	0.017210	0.031040	0.719340
O121	O12	0.167980	0.904950	0.461290
O131	O13	0.341150	0.830130	0.463570
O141	O14	0.836440	0.188300	0.626020
O151	O15	0.905050	0.172790	0.712910
O161	O16	0.938340	0.345990	0.826130
O171	O17	0.058180	0.402730	0.770310
O181	O18	0.763330	0.009530	0.631610
O191	O19	0.044510	0.124490	0.944890
O201	O20	0.048250	0.219340	0.968960
O211	O21	0.072930	0.961290	0.095050
O221	O22	0.171280	0.963570	0.169870
O231	O23	0.024740	0.126020	0.811700
O241	O24	0.077840	0.212910	0.827210
O251	O25	0.284330	0.326130	0.654010
O261	O26	0.460910	0.270310	0.597270
O271	O27	0.772860	0.131610	0.990470
O281	O28	0.613890	0.375510	0.555110
O291	O29	0.736550	0.280660	0.531040
O301	O30	0.629270	0.538710	0.404950
O311	O31	0.804720	0.536430	0.330130
O321	O32	0.462460	0.373980	0.688300
O331	O33	0.617960	0.287090	0.672790
O341	O34	0.764470	0.173870	0.845990
O351	O35	0.828490	0.229690	0.902730
O361	O36	0.394940	0.368390	0.509530
O371	O37	0.831000	0.555110	0.124490
O381	O38	0.732410	0.531040	0.219340
O391	O39	0.965780	0.404950	0.961290
O401	O40	0.865150	0.330130	0.963570
O411	O41	0.849240	0.688300	0.126020
O421	O42	0.709250	0.672790	0.212910
O431	O43	0.389540	0.845990	0.326130
O441	O44	0.268780	0.902730	0.270310
O451	O45	0.095530	0.509530	0.131610
O461	O46	0.010600	0.944890	0.375510
O471	O47	0.982790	0.968960	0.280660
O481	O48	0.832020	0.095050	0.538710
O491	O49	0.658850	0.169870	0.536430
O501	O50	0.163560	0.811700	0.373980
O511	O51	0.094950	0.827210	0.287090
O521	O52	0.061660	0.654010	0.173870
O531	O53	0.941820	0.597270	0.229690
O541	O54	0.236670	0.990470	0.368390
O551	O55	0.955490	0.875510	0.055110
O561	O56	0.951750	0.780660	0.031040
O571	O57	0.927070	0.038710	0.904950
O581	O58	0.828720	0.036430	0.830130
O591	O59	0.975260	0.873980	0.188300
O601	O60	0.922160	0.787090	0.172790
O611	O61	0.715670	0.673870	0.345990
O621	O62	0.539090	0.729690	0.402730
O631	O63	0.227140	0.868390	0.009530
O641	O64	0.386110	0.624490	0.444890
O651	O65	0.263450	0.719340	0.468960
O661	O66	0.370730	0.461290	0.595050
O671	O67	0.195280	0.463570	0.669870
O681	O68	0.537540	0.626020	0.311700
O691	O69	0.382040	0.712910	0.327210
O701	O70	0.235530	0.826130	0.154010
O711	O71	0.171510	0.770310	0.097270
O721	O72	0.605060	0.631610	0.490470
