data_XADFAL_freeONLY_PM
_symmetry_space_group_name_H-M	'P1'
_cell_length_a	9.747000
_cell_length_b	9.747000
_cell_length_c	14.769500
_cell_angle_alpha	100.160000
_cell_angle_beta	100.160000
_cell_angle_gamma	107.053000
_symmetry_Int_Tables_number 1

loop_
_symmetry_equiv_pos_as_xyz
'x,y,z'

loop_
_atom_site_label
_atom_site_type_symbol
_atom_site_fract_x
_atom_site_fract_y
_atom_site_fract_z
Cu11	Cu1	0.496620	0.006440	0.757040
Cu21	Cu2	0.993560	0.503380	0.742960
Cu31	Cu3	0.503380	0.993560	0.242960
Cu41	Cu4	0.006440	0.496620	0.257040
H11	H1	0.833900	0.830900	0.868600
H21	H2	0.397400	0.273200	0.765700
H31	H3	0.259800	0.399000	0.752600
H41	H4	0.169100	0.166100	0.631400
H51	H5	0.726800	0.602600	0.734300
H61	H6	0.601000	0.740200	0.747400
H71	H7	0.166100	0.169100	0.131400
H81	H8	0.602600	0.726800	0.234300
H91	H9	0.740200	0.601000	0.247400
H101	H10	0.830900	0.833900	0.368600
H111	H11	0.273200	0.397400	0.265700
H121	H12	0.399000	0.259800	0.252600
H131	H13	0.218000	0.782000	0.750000
H141	H14	0.776000	0.224000	0.750000
H151	H15	0.782000	0.218000	0.250000
H161	H16	0.224000	0.776000	0.250000
C11	C1	0.721160	0.034840	0.918900
C21	C2	0.869320	0.023280	0.960700
C31	C3	0.900730	0.899070	0.921800
C41	C4	0.970840	0.126560	0.039900
C51	C5	0.949600	0.268400	0.083300
C61	C6	0.493100	0.311500	0.758600
C71	C7	0.300770	0.497430	0.751200
C81	C8	0.965160	0.278840	0.581100
C91	C9	0.976720	0.130680	0.539300
C101	C10	0.100930	0.099270	0.578200
C111	C11	0.873440	0.029160	0.460100
C121	C12	0.731600	0.050400	0.416700
C131	C13	0.688500	0.506900	0.741400
C141	C14	0.502570	0.699230	0.748800
C151	C15	0.278840	0.965160	0.081100
C161	C16	0.130680	0.976720	0.039300
C171	C17	0.099270	0.100930	0.078200
C181	C18	0.029160	0.873440	0.960100
C191	C19	0.050400	0.731600	0.916700
C201	C20	0.506900	0.688500	0.241400
C211	C21	0.699230	0.502570	0.248800
C221	C22	0.034840	0.721160	0.418900
C231	C23	0.023280	0.869320	0.460700
C241	C24	0.899070	0.900730	0.421800
C251	C25	0.126560	0.970840	0.539900
C261	C26	0.268400	0.949600	0.583300
C271	C27	0.311500	0.493100	0.258600
C281	C28	0.497430	0.300770	0.251200
C291	C29	0.716300	0.283700	0.750000
C301	C30	0.543600	0.456400	0.750000
C311	C31	0.448900	0.551100	0.750000
C321	C32	0.276600	0.723400	0.750000
C331	C33	0.283700	0.716300	0.250000
C341	C34	0.456400	0.543600	0.250000
C351	C35	0.551100	0.448900	0.250000
C361	C36	0.723400	0.276600	0.250000
N11	N1	0.577540	0.225260	0.756810
N21	N2	0.214880	0.582320	0.750510
N31	N3	0.774740	0.422460	0.743190
N41	N4	0.417680	0.785120	0.749490
N51	N5	0.422460	0.774740	0.243190
N61	N6	0.785120	0.417680	0.249490
N71	N7	0.225260	0.577540	0.256810
N81	N8	0.582320	0.214880	0.250510
O11	O1	0.688920	0.019680	0.830580
O21	O2	0.640200	0.050800	0.970000
O31	O3	0.993120	0.311960	0.172000
O41	O4	0.891300	0.330900	0.031200
O51	O5	0.980320	0.311080	0.669420
O61	O6	0.949200	0.359800	0.530000
O71	O7	0.688040	0.006880	0.328000
O81	O8	0.669100	0.108700	0.468800
O91	O9	0.311080	0.980320	0.169420
O101	O10	0.359800	0.949200	0.030000
O111	O11	0.006880	0.688040	0.828000
O121	O12	0.108700	0.669100	0.968800
O131	O13	0.019680	0.688920	0.330580
O141	O14	0.050800	0.640200	0.470000
O151	O15	0.311960	0.993120	0.672000
O161	O16	0.330900	0.891300	0.531200
