data_XAFXOT_freeONLY_PM
_symmetry_space_group_name_H-M	'P1'
_cell_length_a	4.558800
_cell_length_b	11.901800
_cell_length_c	15.800500
_cell_angle_alpha	85.912000
_cell_angle_beta	84.811000
_cell_angle_gamma	83.249000
_symmetry_Int_Tables_number 1

loop_
_symmetry_equiv_pos_as_xyz
'x,y,z'

loop_
_atom_site_label
_atom_site_type_symbol
_atom_site_fract_x
_atom_site_fract_y
_atom_site_fract_z
La11	La1	0.808330	0.775740	0.673670
La21	La2	0.191670	0.224260	0.326330
H11	H1	0.442700	0.107100	0.561300
H21	H2	0.463200	0.101000	0.662000
H31	H3	0.892200	0.149300	0.739100
H41	H4	0.133300	0.235400	0.742500
H51	H5	0.560300	0.308400	0.530200
H61	H6	0.791300	0.399400	0.529200
H71	H7	0.236000	0.450200	0.607900
H81	H8	0.267500	0.451700	0.707800
H91	H9	0.030600	0.851600	0.922800
H101	H10	0.969600	0.972300	0.872400
H111	H11	0.572800	0.821800	0.972700
H121	H12	0.306800	0.845500	0.044200
H131	H13	0.822700	0.660000	0.845800
H141	H14	0.852600	0.563200	0.791700
H151	H15	0.557300	0.892900	0.438700
H161	H16	0.536800	0.899000	0.338000
H171	H17	0.107800	0.850700	0.260900
H181	H18	0.866700	0.764600	0.257500
H191	H19	0.439700	0.691600	0.469800
H201	H20	0.208700	0.600600	0.470800
H211	H21	0.764000	0.549800	0.392100
H221	H22	0.732500	0.548300	0.292200
H231	H23	0.969400	0.148400	0.077200
H241	H24	0.030400	0.027700	0.127600
H251	H25	0.427200	0.178200	0.027300
H261	H26	0.693200	0.154500	0.955800
H271	H27	0.177300	0.340000	0.154200
H281	H28	0.147400	0.436800	0.208300
C11	C1	0.214300	0.981600	0.624500
C21	C2	0.327500	0.097600	0.617000
C31	C3	0.969100	0.217900	0.710500
C41	C4	0.725600	0.314800	0.716900
C51	C5	0.975400	0.237500	0.554370
C61	C6	0.724300	0.330500	0.560200
C71	C7	0.377800	0.455800	0.650900
C81	C8	0.499400	0.569500	0.636590
C91	C9	0.309600	0.867700	0.812800
C101	C10	0.127500	0.913800	0.891000
C111	C11	0.336000	0.072500	0.939500
C121	C12	0.457700	0.881800	0.006200
C131	C13	0.785700	0.018400	0.375500
C141	C14	0.672500	0.902400	0.383000
C151	C15	0.030900	0.782100	0.289500
C161	C16	0.274400	0.685200	0.283100
C171	C17	0.024600	0.762500	0.445630
C181	C18	0.275700	0.669500	0.439800
C191	C19	0.622200	0.544200	0.349100
C201	C20	0.500600	0.430500	0.363410
C211	C21	0.690400	0.132300	0.187200
C221	C22	0.872500	0.086200	0.109000
C231	C23	0.664000	0.927500	0.060500
C241	C24	0.542300	0.118200	0.993800
N11	N1	0.090700	0.190900	0.624540
N21	N2	0.607500	0.359600	0.645600
N31	N3	0.304600	0.963000	0.947440
N41	N4	0.909300	0.809100	0.375460
N51	N5	0.392500	0.640400	0.354400
N61	N6	0.695400	0.037000	0.052560
O11	O1	0.398700	0.897880	0.607000
O21	O2	0.948400	0.975970	0.648740
O31	O3	0.074800	0.208120	0.482740
O41	O4	0.636600	0.347400	0.787740
O51	O5	0.765400	0.574470	0.612130
O61	O6	0.322200	0.656970	0.651370
O71	O7	0.196100	0.798670	0.773740
O81	O8	0.559100	0.900200	0.793470
O91	O9	0.200200	0.139600	0.889610
O101	O10	0.750100	0.635900	0.804520
O111	O11	0.601300	0.102120	0.393000
O121	O12	0.051600	0.024030	0.351260
O131	O13	0.925200	0.791880	0.517260
O141	O14	0.363400	0.652600	0.212260
O151	O15	0.234600	0.425530	0.387870
O161	O16	0.677800	0.343030	0.348630
O171	O17	0.803900	0.201330	0.226260
O181	O18	0.440900	0.099800	0.206530
O191	O19	0.799800	0.860400	0.110390
O201	O20	0.249900	0.364100	0.195480
