data_XAHPAZ_freeONLY_PM
_symmetry_space_group_name_H-M	'P1'
_cell_length_a	15.712500
_cell_length_b	15.712500
_cell_length_c	26.135900
_cell_angle_alpha	107.493000
_cell_angle_beta	107.493000
_cell_angle_gamma	90.000000
_symmetry_Int_Tables_number 1

loop_
_symmetry_equiv_pos_as_xyz
'x,y,z'

loop_
_atom_site_label
_atom_site_type_symbol
_atom_site_fract_x
_atom_site_fract_y
_atom_site_fract_z
Cu11	Cu1	0.303300	0.296460	0.718260
Cu21	Cu2	0.414960	0.421800	0.718260
Cu31	Cu3	0.546460	0.164960	0.218260
Cu41	Cu4	0.671800	0.053300	0.218260
Cu51	Cu5	0.835040	0.453540	0.781740
Cu61	Cu6	0.946700	0.328200	0.781740
Cu71	Cu7	0.578200	0.585040	0.281740
Cu81	Cu8	0.703540	0.696700	0.281740
H11	H1	0.402700	0.606900	0.878600
H21	H2	0.007500	0.641800	0.937600
H31	H3	0.157400	0.472700	0.820000
H41	H4	0.369100	0.700700	0.952800
H51	H5	0.475900	0.271700	0.878600
H61	H6	0.930100	0.295800	0.937600
H71	H7	0.662600	0.347300	0.820000
H81	H8	0.583700	0.252100	0.952800
H91	H9	0.856900	0.225900	0.378600
H101	H10	0.891800	0.680100	0.437600
H111	H11	0.722700	0.412600	0.320000
H121	H12	0.950700	0.333700	0.452800
H131	H13	0.521700	0.152700	0.378600
H141	H14	0.545800	0.757500	0.437600
H151	H15	0.597300	0.907400	0.320000
H161	H16	0.502100	0.119100	0.452800
H171	H17	0.774100	0.143100	0.621400
H181	H18	0.319900	0.108200	0.562400
H191	H19	0.587400	0.277300	0.680000
H201	H20	0.666300	0.049300	0.547200
H211	H21	0.847300	0.478300	0.621400
H221	H22	0.242500	0.454200	0.562400
H231	H23	0.092600	0.402700	0.680000
H241	H24	0.880900	0.497900	0.547200
H251	H25	0.728300	0.524100	0.121400
H261	H26	0.704200	0.069900	0.062400
H271	H27	0.652700	0.337400	0.180000
H281	H28	0.747900	0.416300	0.047200
H291	H29	0.393100	0.597300	0.121400
H301	H30	0.358200	0.992500	0.062400
H311	H31	0.527300	0.842600	0.180000
H321	H32	0.299300	0.630900	0.047200
C11	C1	0.346300	0.599800	0.882200
C21	C2	0.282740	0.529740	0.841880
C31	C3	0.087570	0.577470	0.895740
C41	C4	0.217570	0.712070	0.976940
C51	C5	0.174460	0.580260	0.890920
C61	C6	0.239830	0.651230	0.932260
C71	C7	0.130630	0.707730	0.978260
C81	C8	0.066450	0.642050	0.937100
C91	C9	0.013220	0.507120	0.854640
C101	C10	0.198700	0.519600	0.846400
C111	C11	0.325360	0.656560	0.925920
C121	C12	0.308640	0.466340	0.794680
C131	C13	0.129250	0.194950	0.689100
C141	C14	0.022300	0.803000	0.012800
C151	C15	0.023000	0.888500	0.057800
C161	C16	0.977500	0.122200	0.652400
C171	C17	0.952800	0.114800	0.589600
C181	C18	0.120400	0.027400	0.588800
C191	C19	0.105400	0.032100	0.644800
C201	C20	0.535900	0.282400	0.882200
C211	C21	0.559140	0.312140	0.841880
C221	C22	0.808170	0.318270	0.895740
C231	C23	0.759370	0.264870	0.976940
C241	C24	0.716460	0.310660	0.890920
C251	C25	0.692430	0.281030	0.932260
C261	C26	0.847630	0.270530	0.978260
C271	C27	0.870650	0.295050	0.937100
C281	C28	0.841420	0.347520	0.854640
C291	C29	0.647700	0.326800	0.846400
C301	C30	0.600560	0.269360	0.925920
C311	C31	0.486040	0.328340	0.794680
C321	C32	0.559850	0.494150	0.689100
C331	C33	0.990500	0.209800	0.012800
C341	C34	0.034800	0.169300	0.057800
C351	C35	0.674900	0.530200	0.652400
C361	C36	0.636800	0.474800	0.589600
C371	C37	0.468400	0.561400	0.588800
C381	C38	0.539400	0.612700	0.644800
C391	C39	0.849800	0.285900	0.382200
C401	C40	0.779740	0.309140	0.341880
C411	C41	0.827470	0.558170	0.395740
C421	C42	0.962070	0.509370	0.476940
C431	C43	0.830260	0.466460	0.390920
C441	C44	0.901230	0.442430	0.432260
C451	C45	0.957730	0.597630	0.478260
C461	C46	0.892050	0.620650	0.437100
C471	C47	0.757120	0.591420	0.354640
C481	C48	0.769600	0.397700	0.346400
C491	C49	0.906560	0.350560	0.425920
C501	C50	0.716340	0.236040	0.294680
C511	C51	0.444950	0.309850	0.189100
C521	C52	0.053000	0.740500	0.512800
C531	C53	0.138500	0.784800	0.557800
C541	C54	0.372200	0.424900	0.152400
C551	C55	0.364800	0.386800	0.089600
C561	C56	0.277400	0.218400	0.088800
C571	C57	0.282100	0.289400	0.144800
C581	C58	0.532400	0.096300	0.382200
C591	C59	0.562140	0.032740	0.341880
C601	C60	0.568270	0.837570	0.395740
C611	C61	0.514870	0.967570	0.476940
C621	C62	0.560660	0.924460	0.390920
C631	C63	0.531030	0.989830	0.432260
C641	C64	0.520530	0.880630	0.478260
C651	C65	0.545050	0.816450	0.437100
C661	C66	0.597520	0.763220	0.354640
C671	C67	0.576800	0.948700	0.346400
C681	C68	0.519360	0.075360	0.425920
C691	C69	0.578340	0.058640	0.294680
C701	C70	0.744150	0.879250	0.189100
C711	C71	0.459800	0.772300	0.512800
C721	C72	0.419300	0.773000	0.557800
C731	C73	0.780200	0.727500	0.152400
C741	C74	0.724800	0.702800	0.089600
C751	C75	0.811400	0.870400	0.088800
C761	C76	0.862700	0.855400	0.144800
C771	C77	0.714100	0.150200	0.617800
C781	C78	0.690860	0.220260	0.658120
C791	C79	0.441830	0.172530	0.604260
C801	C80	0.490630	0.037930	0.523060
C811	C81	0.533540	0.169740	0.609080
C821	C82	0.557570	0.098770	0.567740
C831	C83	0.402370	0.042270	0.521740
C841	C84	0.379350	0.107950	0.562900
C851	C85	0.408580	0.242880	0.645360
C861	C86	0.602300	0.230400	0.653600
C871	C87	0.649440	0.093440	0.574080
C881	C88	0.763960	0.283660	0.705320
C891	C89	0.690150	0.555050	0.810900
C901	C90	0.259500	0.947000	0.487200
C911	C91	0.215200	0.861500	0.442200
C921	C92	0.575100	0.627800	0.847600
C931	C93	0.613200	0.635200	0.910400
C941	C94	0.781600	0.722600	0.911200
C951	C95	0.710600	0.717900	0.855200
C961	C96	0.903700	0.467600	0.617800
C971	C97	0.967260	0.437860	0.658120
C981	C98	0.162430	0.431730	0.604260
C991	C99	0.032430	0.485130	0.523060
C1001	C100	0.075540	0.439340	0.609080
C1011	C101	0.010170	0.468970	0.567740
C1021	C102	0.119370	0.479470	0.521740
C1031	C103	0.183550	0.454950	0.562900
C1041	C104	0.236780	0.402480	0.645360
C1051	C105	0.051300	0.423200	0.653600
C1061	C106	0.924640	0.480640	0.574080
C1071	C107	0.941360	0.421660	0.705320
C1081	C108	0.120750	0.255850	0.810900
C1091	C109	0.227700	0.540200	0.487200
C1101	C110	0.227000	0.580700	0.442200
C1111	C111	0.272500	0.219800	0.847600
C1121	C112	0.297200	0.275200	0.910400
C1131	C113	0.129600	0.188600	0.911200
C1141	C114	0.144600	0.137300	0.855200
C1151	C115	0.717600	0.464100	0.117800
C1161	C116	0.687860	0.440860	0.158120
C1171	C117	0.681730	0.191830	0.104260
C1181	C118	0.735130	0.240630	0.023060
C1191	C119	0.689340	0.283540	0.109080
C1201	C120	0.718970	0.307570	0.067740
C1211	C121	0.729470	0.152370	0.021740
C1221	C122	0.704950	0.129350	0.062900
C1231	C123	0.652480	0.158580	0.145360
C1241	C124	0.673200	0.352300	0.153600
C1251	C125	0.730640	0.399440	0.074080
C1261	C126	0.671660	0.513960	0.205320
C1271	C127	0.505850	0.440150	0.310900
C1281	C128	0.790200	0.009500	0.987200
C1291	C129	0.830700	0.965200	0.942200
C1301	C130	0.469800	0.325100	0.347600
C1311	C131	0.525200	0.363200	0.410400
C1321	C132	0.438600	0.531600	0.411200
C1331	C133	0.387300	0.460600	0.355200
C1341	C134	0.400200	0.653700	0.117800
C1351	C135	0.470260	0.717260	0.158120
C1361	C136	0.422530	0.912430	0.104260
C1371	C137	0.287930	0.782430	0.023060
C1381	C138	0.419740	0.825540	0.109080
C1391	C139	0.348770	0.760170	0.067740
C1401	C140	0.292270	0.869370	0.021740
C1411	C141	0.357950	0.933550	0.062900
C1421	C142	0.492880	0.986780	0.145360
C1431	C143	0.480400	0.801300	0.153600
C1441	C144	0.343440	0.674640	0.074080
C1451	C145	0.533660	0.691360	0.205320
C1461	C146	0.805050	0.870750	0.310900
C1471	C147	0.197000	0.977700	0.987200
C1481	C148	0.111500	0.977000	0.942200
C1491	C149	0.877800	0.022500	0.347600
C1501	C150	0.885200	0.047200	0.410400
C1511	C151	0.972600	0.879600	0.411200
C1521	C152	0.967900	0.894600	0.355200
N11	N1	0.073400	0.113000	0.674600
N21	N2	0.601200	0.561600	0.674600
N31	N3	0.363000	0.351200	0.174600
N41	N4	0.811600	0.823400	0.174600
N51	N5	0.648800	0.637000	0.825400
N61	N6	0.176600	0.188400	0.825400
N71	N7	0.438400	0.398800	0.325400
N81	N8	0.887000	0.926600	0.325400
O11	O1	0.262830	0.390900	0.770640
O21	O2	0.373870	0.490380	0.782600
O31	O3	0.030230	0.427230	0.844440
O41	O4	0.939580	0.534700	0.834580
O51	O5	0.113530	0.770830	0.022460
O61	O6	0.211540	0.192140	0.712080
O71	O7	0.507810	0.379740	0.770640
O81	O8	0.408730	0.292220	0.782600
O91	O9	0.814210	0.417210	0.844440
O101	O10	0.895000	0.299880	0.834580
O111	O11	0.908930	0.251630	0.022460
O121	O12	0.500540	0.519940	0.712080
O131	O13	0.640900	0.257810	0.270640
O141	O14	0.740380	0.158730	0.282600
O151	O15	0.677230	0.564210	0.344440
O161	O16	0.784700	0.645000	0.334580
O171	O17	0.020830	0.658930	0.522460
O181	O18	0.442140	0.250540	0.212080
O191	O19	0.629740	0.012830	0.270640
O201	O20	0.542220	0.123870	0.282600
O211	O21	0.667210	0.780230	0.344440
O221	O22	0.549880	0.689580	0.334580
O231	O23	0.501630	0.863530	0.522460
O241	O24	0.769940	0.961540	0.212080
O251	O25	0.742190	0.359100	0.729360
O261	O26	0.841270	0.259620	0.717400
O271	O27	0.435790	0.322770	0.655560
O281	O28	0.355000	0.215300	0.665420
O291	O29	0.341070	0.979170	0.477540
O301	O30	0.749460	0.557860	0.787920
O311	O31	0.987170	0.370260	0.729360
O321	O32	0.876130	0.457780	0.717400
O331	O33	0.219770	0.332790	0.655560
O341	O34	0.310420	0.450120	0.665420
O351	O35	0.136470	0.498370	0.477540
O361	O36	0.038460	0.230060	0.787920
O371	O37	0.620260	0.492190	0.229360
O381	O38	0.707780	0.591270	0.217400
O391	O39	0.582790	0.185790	0.155560
O401	O40	0.700120	0.105000	0.165420
O411	O41	0.748370	0.091070	0.977540
O421	O42	0.480060	0.499460	0.287920
O431	O43	0.609100	0.737170	0.229360
O441	O44	0.509620	0.626130	0.217400
O451	O45	0.572770	0.969770	0.155560
O461	O46	0.465300	0.060420	0.165420
O471	O47	0.229170	0.886470	0.977540
O481	O48	0.807860	0.788460	0.287920
