data_XAKQOR_freeONLY_PM
_symmetry_space_group_name_H-M	'P1'
_cell_length_a	12.882900
_cell_length_b	14.156500
_cell_length_c	18.681900
_cell_angle_alpha	104.822000
_cell_angle_beta	98.409000
_cell_angle_gamma	113.367000
_symmetry_Int_Tables_number 1

loop_
_symmetry_equiv_pos_as_xyz
'x,y,z'

loop_
_atom_site_label
_atom_site_type_symbol
_atom_site_fract_x
_atom_site_fract_y
_atom_site_fract_z
Cu11	Cu1	0.942600	0.889900	0.967950
Cu21	Cu2	0.429870	0.523070	0.454450
Cu31	Cu3	0.057400	0.110100	0.032050
Cu41	Cu4	0.570130	0.476930	0.545550
H11	H1	0.764900	0.688800	0.005200
H21	H2	0.764600	0.389400	0.572900
H31	H3	0.708800	0.363500	0.825700
H41	H4	0.845400	0.415900	0.829400
H51	H5	0.971000	0.750200	0.833600
H61	H6	0.983200	0.638900	0.814300
H71	H7	0.874100	0.642900	0.764200
H81	H8	0.598200	0.484600	0.971300
H91	H9	0.638200	0.395000	0.932300
H101	H10	0.710600	0.480900	0.017500
H111	H11	0.503900	0.452900	0.691100
H121	H12	0.544600	0.428300	0.766500
H131	H13	0.610600	0.548400	0.762300
H141	H14	0.937600	0.381600	0.648500
H151	H15	0.939000	0.380900	0.734100
H161	H16	0.853300	0.272700	0.661600
H171	H17	0.430300	0.798300	0.622900
H181	H18	0.697900	0.766100	0.404100
H191	H19	0.449600	0.939200	0.730200
H201	H20	0.857000	0.897600	0.383500
H211	H21	0.678000	0.878700	0.862600
H221	H22	0.075200	0.807900	0.493900
H231	H23	0.660200	0.740400	0.754700
H241	H24	0.915800	0.678700	0.517500
H251	H25	0.216100	0.835700	0.888300
H261	H26	0.145500	0.142900	0.276800
H271	H27	0.373900	0.834800	0.842900
H281	H28	0.151900	0.120200	0.396900
H291	H29	0.561900	0.162300	0.957800
H301	H30	0.986700	0.790200	0.290700
H311	H31	0.403900	0.162800	0.004200
H321	H32	0.978900	0.813600	0.171800
H331	H33	0.235100	0.311200	0.994800
H341	H34	0.235400	0.610600	0.427100
H351	H35	0.291200	0.636500	0.174300
H361	H36	0.154600	0.584100	0.170600
H371	H37	0.029000	0.249800	0.166400
H381	H38	0.016800	0.361100	0.185700
H391	H39	0.125900	0.357100	0.235800
H401	H40	0.401800	0.515400	0.028700
H411	H41	0.361800	0.605000	0.067700
H421	H42	0.289400	0.519100	0.982500
H431	H43	0.496100	0.547100	0.308900
H441	H44	0.455400	0.571700	0.233500
H451	H45	0.389400	0.451600	0.237700
H461	H46	0.062400	0.618400	0.351500
H471	H47	0.061000	0.619100	0.265900
H481	H48	0.146700	0.727300	0.338400
H491	H49	0.569700	0.201700	0.377100
H501	H50	0.302100	0.233900	0.595900
H511	H51	0.550400	0.060800	0.269800
H521	H52	0.143000	0.102400	0.616500
H531	H53	0.322000	0.121300	0.137400
H541	H54	0.924800	0.192100	0.506100
H551	H55	0.339800	0.259600	0.245300
H561	H56	0.084200	0.321300	0.482500
H571	H57	0.783900	0.164300	0.111700
H581	H58	0.854500	0.857100	0.723200
H591	H59	0.626100	0.165200	0.157100
H601	H60	0.848100	0.879800	0.603100
H611	H61	0.438100	0.837700	0.042200
H621	H62	0.013300	0.209800	0.709300
H631	H63	0.596100	0.837200	0.995800
H641	H64	0.021100	0.186400	0.828200
C11	C1	0.857800	0.636800	0.870400
C21	C2	0.791500	0.532400	0.873200
C31	C3	0.743800	0.548700	0.933700
C41	C4	0.656200	0.438600	0.698500
C51	C5	0.741500	0.414400	0.734600
C61	C6	0.795000	0.389100	0.679800
C71	C7	0.772700	0.424100	0.817600
C81	C8	0.927500	0.670100	0.815900
C91	C9	0.665900	0.470500	0.966600
C101	C10	0.571600	0.469700	0.732500
C111	C11	0.889300	0.353000	0.681100
C121	C12	0.542200	0.755000	0.679000
C131	C13	0.790000	0.707500	0.461800
C141	C14	0.480500	0.814700	0.671700
C151	C15	0.774800	0.774300	0.422600
C161	C16	0.491700	0.898200	0.735300
C171	C17	0.868600	0.852100	0.410100
C181	C18	0.564400	0.921100	0.805700
C191	C19	0.979600	0.863100	0.436500
C201	C20	0.627800	0.862400	0.813800
C211	C21	0.998000	0.799300	0.475900
C221	C22	0.616600	0.780100	0.749900
C231	C23	0.903100	0.722100	0.489300
C241	C24	0.291900	0.999400	0.949500
C251	C25	0.059700	0.980000	0.212000
C261	C26	0.286100	0.902400	0.902100
C271	C27	0.112300	0.071300	0.279600
C281	C28	0.379400	0.901500	0.875000
C291	C29	0.116500	0.058000	0.350800
C301	C30	0.481400	0.998500	0.894700
C311	C31	0.068400	0.953400	0.353800
C321	C32	0.491100	0.096200	0.943500
C331	C33	0.017900	0.861700	0.287700
C341	C34	0.397200	0.096400	0.970700
C351	C35	0.013900	0.876100	0.217600
C361	C36	0.524800	0.661700	0.610900
C371	C37	0.686800	0.625200	0.477100
C381	C38	0.047400	0.992000	0.134400
C391	C39	0.187500	0.000600	0.974000
C401	C40	0.142200	0.363200	0.129600
C411	C41	0.208500	0.467600	0.126800
C421	C42	0.256200	0.451300	0.066300
C431	C43	0.343800	0.561400	0.301500
C441	C44	0.258500	0.585600	0.265400
C451	C45	0.205000	0.610900	0.320200
C461	C46	0.227300	0.575900	0.182400
C471	C47	0.072500	0.329900	0.184100
C481	C48	0.334100	0.529500	0.033400
C491	C49	0.428400	0.530300	0.267500
C501	C50	0.110700	0.647000	0.318900
C511	C51	0.457800	0.245000	0.321000
C521	C52	0.210000	0.292500	0.538200
C531	C53	0.519500	0.185300	0.328300
C541	C54	0.225200	0.225700	0.577400
C551	C55	0.508300	0.101800	0.264700
C561	C56	0.131400	0.147900	0.589900
C571	C57	0.435600	0.078900	0.194300
C581	C58	0.020400	0.136900	0.563500
C591	C59	0.372200	0.137600	0.186200
C601	C60	0.002000	0.200700	0.524100
C611	C61	0.383400	0.219900	0.250100
C621	C62	0.096900	0.277900	0.510700
C631	C63	0.708100	0.000600	0.050500
C641	C64	0.940300	0.020000	0.788000
C651	C65	0.713900	0.097600	0.097900
C661	C66	0.887700	0.928700	0.720400
C671	C67	0.620600	0.098500	0.125000
C681	C68	0.883500	0.942000	0.649200
C691	C69	0.518600	0.001500	0.105300
C701	C70	0.931600	0.046600	0.646200
C711	C71	0.508900	0.903800	0.056500
C721	C72	0.982100	0.138300	0.712300
C731	C73	0.602800	0.903600	0.029300
C741	C74	0.986100	0.123900	0.782400
C751	C75	0.475200	0.338300	0.389100
C761	C76	0.313200	0.374800	0.522900
C771	C77	0.952600	0.008000	0.865600
C781	C78	0.812500	0.999400	0.026000
N11	N1	0.851800	0.713100	0.926700
N21	N2	0.782400	0.657400	0.964800
N31	N3	0.658400	0.430800	0.626300
N41	N4	0.744300	0.400500	0.616100
N51	N5	0.148200	0.286900	0.073300
N61	N6	0.217600	0.342600	0.035200
N71	N7	0.341600	0.569200	0.373700
N81	N8	0.255700	0.599500	0.383900
O11	O1	0.457100	0.642200	0.547550
O21	O2	0.587100	0.614600	0.445960
O31	O3	0.706400	0.575100	0.520130
O41	O4	0.580400	0.607600	0.622170
O51	O5	0.098400	0.909500	0.955960
O61	O6	0.992700	0.903600	0.076590
O71	O7	0.195600	0.093300	0.010660
O81	O8	0.089600	0.087900	0.131620
O91	O9	0.579200	0.005100	0.870770
O101	O10	0.078300	0.942900	0.426770
O111	O11	0.542900	0.357800	0.452450
O121	O12	0.412900	0.385400	0.554040
O131	O13	0.293600	0.424900	0.479870
O141	O14	0.419600	0.392400	0.377830
O151	O15	0.901600	0.090500	0.044040
O161	O16	0.007300	0.096400	0.923410
O171	O17	0.804400	0.906700	0.989340
O181	O18	0.910400	0.912100	0.868380
O191	O19	0.420800	0.994900	0.129230
O201	O20	0.921700	0.057100	0.573230
