data_XALBES_freeONLY_PM
_symmetry_space_group_name_H-M	'P1'
_cell_length_a	17.588000
_cell_length_b	29.836000
_cell_length_c	29.836000
_cell_angle_alpha	85.016100
_cell_angle_beta	72.857700
_cell_angle_gamma	72.857700
_symmetry_Int_Tables_number 1

loop_
_symmetry_equiv_pos_as_xyz
'x,y,z'

loop_
_atom_site_label
_atom_site_type_symbol
_atom_site_fract_x
_atom_site_fract_y
_atom_site_fract_z
Mn11	Mn1	0.915560	0.085640	0.643500
Mn21	Mn2	0.757430	0.121610	0.529510
Mn31	Mn3	0.204610	0.002540	0.577300
Mn41	Mn4	0.144700	0.414360	0.856510
Mn51	Mn5	0.908550	0.378390	0.970490
Mn61	Mn6	0.284450	0.497460	0.922700
Mn71	Mn7	0.559050	0.356510	0.585640
Mn81	Mn8	0.286940	0.470490	0.621610
Mn91	Mn9	0.781910	0.422700	0.502540
Mn101	Mn10	0.001200	0.143490	0.914370
Mn111	Mn11	0.879040	0.029510	0.878390
Mn121	Mn12	0.207150	0.077300	0.997460
Mn131	Mn13	0.084440	0.914360	0.356500
Mn141	Mn14	0.242570	0.878390	0.470490
Mn151	Mn15	0.795390	0.997460	0.422700
Mn161	Mn16	0.855300	0.585640	0.143490
Mn171	Mn17	0.091450	0.621610	0.029510
Mn181	Mn18	0.715550	0.502540	0.077300
Mn191	Mn19	0.440940	0.643490	0.414370
Mn201	Mn20	0.713050	0.529520	0.378390
Mn211	Mn21	0.218090	0.577300	0.497460
Mn221	Mn22	0.998790	0.856510	0.085640
Mn231	Mn23	0.120970	0.970480	0.121610
Mn241	Mn24	0.792850	0.922700	0.002540
H11	H1	0.898800	0.218600	0.699000
H21	H2	0.821200	0.292900	0.690100
H31	H3	0.739600	0.308800	0.636800
H41	H4	0.738500	0.247600	0.596600
H51	H5	0.849900	0.010400	0.532400
H61	H6	0.919800	0.975400	0.553400
H71	H7	0.846300	0.086800	0.754400
H81	H8	0.736800	0.076500	0.815300
H91	H9	0.622200	0.066300	0.719500
H101	H10	0.733100	0.077900	0.661900
H111	H11	0.612800	0.053600	0.842200
H121	H12	0.580800	0.032800	0.806000
H131	H13	0.548700	0.111600	0.649200
H141	H14	0.448000	0.074000	0.656200
H151	H15	0.454000	0.026500	0.597900
H161	H16	0.566500	0.015800	0.529000
H171	H17	0.974600	0.046700	0.405700
H181	H18	0.913600	0.073000	0.375000
H191	H19	0.994900	0.119600	0.417400
H201	H20	0.024300	0.106200	0.363000
H211	H21	0.937400	0.144300	0.384300
H221	H22	0.776000	0.179600	0.439200
H231	H23	0.752800	0.283100	0.401500
H241	H24	0.788400	0.230500	0.382100
H251	H25	0.706600	0.264500	0.371300
H261	H26	0.289000	0.922000	0.691400
H271	H27	0.227000	0.920400	0.770800
H281	H28	0.088500	0.964900	0.801500
H291	H29	0.016800	0.011400	0.751400
H301	H30	0.023700	0.090200	0.501800
H311	H31	0.996600	0.128800	0.541600
H321	H32	0.117000	0.150600	0.507800
H331	H33	0.065200	0.155000	0.470800
H341	H34	0.145600	0.111400	0.468200
H351	H35	0.286600	0.149400	0.931000
H361	H36	0.392200	0.159400	0.870200
H371	H37	0.478000	0.018700	0.863500
H381	H38	0.370600	0.016700	0.931700
H391	H39	0.504400	0.105200	0.793000
H401	H40	0.538500	0.127200	0.827400
H411	H41	0.316400	0.281400	0.801000
H421	H42	0.304200	0.207100	0.809900
H431	H43	0.185200	0.191200	0.863200
H441	H44	0.082700	0.252400	0.903400
H451	H45	0.892700	0.489600	0.967600
H461	H46	0.948600	0.524600	0.946600
H471	H47	0.187500	0.413200	0.745600
H481	H48	0.128600	0.423500	0.684700
H491	H49	0.908000	0.433700	0.780500
H501	H50	0.972900	0.422100	0.838100
H511	H51	0.008600	0.446400	0.657800
H521	H52	0.919600	0.467200	0.694000
H531	H53	0.809500	0.388400	0.850800
H541	H54	0.678200	0.426000	0.843800
H551	H55	0.578400	0.473500	0.902100
H561	H56	0.611300	0.484200	0.971000
H571	H57	0.927000	0.453300	0.094300
H581	H58	0.861600	0.427000	0.125000
H591	H59	0.031900	0.380400	0.082600
H601	H60	0.993500	0.393800	0.137000
H611	H61	0.966000	0.355700	0.115700
H621	H62	0.894800	0.320400	0.060800
H631	H63	0.937400	0.216900	0.098500
H641	H64	0.901000	0.269500	0.117900
H651	H65	0.842400	0.235500	0.128700
H661	H66	0.402400	0.578000	0.808600
H671	H67	0.418200	0.579600	0.729200
H681	H68	0.354900	0.535100	0.698500
H691	H69	0.279600	0.488600	0.748600
H701	H70	0.115700	0.409800	0.998200
H711	H71	0.167000	0.371200	0.958400
H721	H72	0.275400	0.349400	0.992200
H731	H73	0.191000	0.345000	0.029200
H741	H74	0.225200	0.388600	0.031800
H751	H75	0.867000	0.350600	0.569000
H761	H76	0.921800	0.340600	0.629800
H771	H77	0.860200	0.481300	0.636500
H781	H78	0.819000	0.483300	0.568300
H791	H79	0.902600	0.394800	0.707000
H801	H80	0.993100	0.372800	0.672600
H811	H81	0.597800	0.301000	0.718600
H821	H82	0.511300	0.309900	0.792900
H831	H83	0.376400	0.363200	0.808800
H841	H84	0.335100	0.403400	0.747600
H851	H85	0.382300	0.467600	0.510400
H861	H86	0.473200	0.446600	0.475400
H871	H87	0.600700	0.245600	0.586800
H881	H88	0.552100	0.184700	0.576500
H891	H89	0.341700	0.280500	0.566300
H901	H90	0.395000	0.338100	0.577900
H911	H91	0.455000	0.157800	0.553600
H921	H92	0.386800	0.194000	0.532800
H931	H93	0.197900	0.350800	0.611600
H941	H94	0.104200	0.343800	0.574000
H951	H95	0.051900	0.402100	0.526500
H961	H96	0.095500	0.471000	0.515800
H971	H97	0.380300	0.594300	0.546700
H981	H98	0.288600	0.625000	0.573000
H991	H99	0.412300	0.582600	0.619600
H1001	H100	0.387300	0.637000	0.606200
H1011	H101	0.321700	0.615700	0.644300
H1021	H102	0.215200	0.560800	0.679600
H1031	H103	0.154300	0.598500	0.783100
H1041	H104	0.170500	0.617900	0.730500
H1051	H105	0.077900	0.628700	0.764500
H1061	H106	0.980400	0.308600	0.422000
H1071	H107	0.997800	0.229200	0.420400
H1081	H108	0.890000	0.198500	0.464900
H1091	H109	0.768200	0.248600	0.511400
H1101	H110	0.525500	0.498200	0.590200
H1111	H111	0.538200	0.458400	0.628800
H1121	H112	0.624800	0.492200	0.650600
H1131	H113	0.536000	0.529200	0.655000
H1141	H114	0.613800	0.531800	0.611400
H1151	H115	0.217600	0.069000	0.649400
H1161	H116	0.262400	0.129800	0.659400
H1171	H117	0.341500	0.136500	0.518700
H1181	H118	0.302300	0.068300	0.516700
H1191	H119	0.297400	0.207000	0.605200
H1201	H120	0.365900	0.172600	0.627200
H1211	H121	0.117400	0.199000	0.781400
H1221	H122	0.114100	0.190100	0.707100
H1231	H123	0.048400	0.136800	0.691200
H1241	H124	0.986100	0.096600	0.752400
H1251	H125	0.860300	0.032400	0.989600
H1261	H126	0.895200	0.053400	0.024600
H1271	H127	0.933100	0.254400	0.913200
H1281	H128	0.813300	0.315300	0.923500
H1291	H129	0.688500	0.219500	0.933700
H1301	H130	0.811000	0.161900	0.922100
H1311	H131	0.666400	0.342200	0.946400
H1321	H132	0.613600	0.306000	0.967200
H1331	H133	0.660300	0.149200	0.888400
H1341	H134	0.522000	0.156200	0.926000
H1351	H135	0.480500	0.097900	0.973500
H1361	H136	0.582300	0.029000	0.984200
H1371	H137	0.021300	0.905700	0.953300
H1381	H138	0.986600	0.875000	0.927000
H1391	H139	0.114500	0.917400	0.880400
H1401	H140	0.130500	0.863000	0.893800
H1411	H141	0.081700	0.884300	0.855700
H1421	H142	0.955600	0.939200	0.820400
H1431	H143	0.035900	0.901500	0.716900
H1441	H144	0.018900	0.882100	0.769500
H1451	H145	0.971100	0.871300	0.735500
H1461	H146	0.211000	0.191400	0.078000
H1471	H147	0.147400	0.270800	0.079600
H1481	H148	0.053400	0.301500	0.035100
H1491	H149	0.028200	0.251400	0.988600
H1501	H150	0.113900	0.001800	0.909800
H1511	H151	0.125400	0.041600	0.871200
H1521	H152	0.267600	0.007800	0.849400
H1531	H153	0.220200	0.970800	0.845000
H1541	H154	0.257000	0.968200	0.888600
H1551	H155	0.436000	0.431000	0.850600
H1561	H156	0.551600	0.370200	0.840600
H1571	H157	0.496700	0.363500	0.981300
H1581	H158	0.387300	0.431700	0.983300
H1591	H159	0.609600	0.293000	0.894800
H1601	H160	0.665700	0.327400	0.872800
H1611	H161	0.101200	0.781400	0.301000
H1621	H162	0.178800	0.707100	0.309900
H1631	H163	0.260400	0.691200	0.363200
H1641	H164	0.261500	0.752400	0.403400
H1651	H165	0.150100	0.989600	0.467600
H1661	H166	0.080200	0.024600	0.446600
H1671	H167	0.153700	0.913200	0.245600
H1681	H168	0.263200	0.923500	0.184700
H1691	H169	0.377800	0.933700	0.280500
H1701	H170	0.266900	0.922100	0.338100
H1711	H171	0.387200	0.946400	0.157800
H1721	H172	0.419200	0.967200	0.194000
H1731	H173	0.451300	0.888400	0.350800
H1741	H174	0.552000	0.926000	0.343800
H1751	H175	0.546000	0.973500	0.402100
H1761	H176	0.433500	0.984200	0.471000
H1771	H177	0.025400	0.953300	0.594300
H1781	H178	0.086400	0.927000	0.625000
H1791	H179	0.005100	0.880400	0.582600
H1801	H180	0.975700	0.893800	0.637000
H1811	H181	0.062600	0.855700	0.615700
H1821	H182	0.224000	0.820400	0.560800
H1831	H183	0.247200	0.716900	0.598500
H1841	H184	0.211600	0.769500	0.617900
H1851	H185	0.293400	0.735500	0.628700
H1861	H186	0.711000	0.078000	0.308600
H1871	H187	0.773000	0.079600	0.229200
H1881	H188	0.911500	0.035100	0.198500
H1891	H189	0.983200	0.988600	0.248600
H1901	H190	0.976300	0.909800	0.498200
H1911	H191	0.003400	0.871200	0.458400
H1921	H192	0.883000	0.849400	0.492200
H1931	H193	0.934800	0.845000	0.529200
H1941	H194	0.854400	0.888600	0.531800
H1951	H195	0.713400	0.850600	0.069000
H1961	H196	0.607800	0.840600	0.129800
H1971	H197	0.522000	0.981300	0.136500
H1981	H198	0.629400	0.983300	0.068300
H1991	H199	0.495600	0.894800	0.207000
H2001	H200	0.461500	0.872800	0.172600
H2011	H201	0.683600	0.718600	0.199000
H2021	H202	0.695800	0.792900	0.190100
H2031	H203	0.814800	0.808800	0.136800
H2041	H204	0.917300	0.747600	0.096600
H2051	H205	0.107300	0.510400	0.032400
H2061	H206	0.051400	0.475400	0.053400
H2071	H207	0.812500	0.586800	0.254400
H2081	H208	0.871400	0.576500	0.315300
H2091	H209	0.092000	0.566300	0.219500
H2101	H210	0.027100	0.577900	0.161900
H2111	H211	0.991400	0.553600	0.342200
H2121	H212	0.080400	0.532800	0.306000
H2131	H213	0.190500	0.611600	0.149200
H2141	H214	0.321800	0.574000	0.156200
H2151	H215	0.421600	0.526500	0.097900
H2161	H216	0.388700	0.515800	0.029000
H2171	H217	0.073000	0.546700	0.905700
H2181	H218	0.138400	0.573000	0.875000
H2191	H219	0.968100	0.619600	0.917400
H2201	H220	0.006500	0.606200	0.863000
H2211	H221	0.034000	0.644300	0.884300
H2221	H222	0.105200	0.679600	0.939200
H2231	H223	0.062600	0.783100	0.901500
H2241	H224	0.099000	0.730500	0.882100
H2251	H225	0.157600	0.764500	0.871300
H2261	H226	0.597600	0.422000	0.191400
H2271	H227	0.581800	0.420400	0.270800
H2281	H228	0.645100	0.464900	0.301500
H2291	H229	0.720400	0.511400	0.251400
H2301	H230	0.884300	0.590200	0.001800
H2311	H231	0.833000	0.628800	0.041600
H2321	H232	0.724600	0.650600	0.007800
H2331	H233	0.809000	0.655000	0.970800
H2341	H234	0.774800	0.611400	0.968200
H2351	H235	0.133000	0.649400	0.431000
H2361	H236	0.078200	0.659400	0.370200
H2371	H237	0.139800	0.518700	0.363500
H2381	H238	0.181000	0.516700	0.431700
H2391	H239	0.097400	0.605200	0.293000
H2401	H240	0.006900	0.627200	0.327400
H2411	H241	0.402200	0.699000	0.281400
H2421	H242	0.488700	0.690100	0.207100
H2431	H243	0.623600	0.636800	0.191200
H2441	H244	0.664900	0.596600	0.252400
H2451	H245	0.617700	0.532400	0.489600
H2461	H246	0.526800	0.553400	0.524600
H2471	H247	0.399300	0.754400	0.413200
H2481	H248	0.447900	0.815300	0.423500
H2491	H249	0.658300	0.719500	0.433700
H2501	H250	0.605000	0.661900	0.422100
H2511	H251	0.545000	0.842200	0.446400
H2521	H252	0.613200	0.806000	0.467200
H2531	H253	0.802100	0.649200	0.388400
H2541	H254	0.895800	0.656200	0.426000
H2551	H255	0.948100	0.597900	0.473500
H2561	H256	0.904500	0.529000	0.484200
H2571	H257	0.619700	0.405700	0.453300
H2581	H258	0.711400	0.375000	0.427000
H2591	H259	0.587700	0.417400	0.380400
H2601	H260	0.612700	0.363000	0.393800
H2611	H261	0.678300	0.384300	0.355700
H2621	H262	0.784800	0.439200	0.320400
H2631	H263	0.845700	0.401500	0.216900
H2641	H264	0.829500	0.382100	0.269500
H2651	H265	0.922100	0.371300	0.235500
H2661	H266	0.019600	0.691400	0.578000
H2671	H267	0.002200	0.770800	0.579600
H2681	H268	0.110000	0.801500	0.535100
H2691	H269	0.231800	0.751400	0.488600
H2701	H270	0.474500	0.501800	0.409800
H2711	H271	0.461800	0.541600	0.371200
H2721	H272	0.375200	0.507800	0.349400
H2731	H273	0.464000	0.470800	0.345000
H2741	H274	0.386200	0.468200	0.388600
H2751	H275	0.782400	0.931000	0.350600
H2761	H276	0.737600	0.870200	0.340600
H2771	H277	0.658500	0.863500	0.481300
H2781	H278	0.697700	0.931700	0.483300
H2791	H279	0.702600	0.793000	0.394800
H2801	H280	0.634100	0.827400	0.372800
H2811	H281	0.882600	0.801000	0.218600
H2821	H282	0.885900	0.809900	0.292900
H2831	H283	0.951600	0.863200	0.308800
H2841	H284	0.013900	0.903400	0.247600
H2851	H285	0.139700	0.967600	0.010400
H2861	H286	0.104800	0.946600	0.975400
H2871	H287	0.066900	0.745600	0.086800
H2881	H288	0.186700	0.684700	0.076500
H2891	H289	0.311500	0.780500	0.066300
H2901	H290	0.189000	0.838100	0.077900
H2911	H291	0.333600	0.657800	0.053600
H2921	H292	0.386400	0.694000	0.032800
H2931	H293	0.339700	0.850800	0.111600
H2941	H294	0.478000	0.843800	0.074000
H2951	H295	0.519500	0.902100	0.026500
H2961	H296	0.417700	0.971000	0.015800
H2971	H297	0.978700	0.094300	0.046700
H2981	H298	0.013400	0.125000	0.073000
H2991	H299	0.885500	0.082600	0.119600
H3001	H300	0.869500	0.137000	0.106200
H3011	H301	0.918300	0.115700	0.144300
H3021	H302	0.044400	0.060800	0.179600
H3031	H303	0.964100	0.098500	0.283100
H3041	H304	0.981100	0.117900	0.230500
H3051	H305	0.028900	0.128700	0.264500
H3061	H306	0.789000	0.808600	0.922000
H3071	H307	0.852600	0.729200	0.920400
H3081	H308	0.946600	0.698500	0.964900
H3091	H309	0.971800	0.748600	0.011400
H3101	H310	0.886100	0.998200	0.090200
H3111	H311	0.874600	0.958400	0.128800
H3121	H312	0.732400	0.992200	0.150600
H3131	H313	0.779800	0.029200	0.155000
H3141	H314	0.743000	0.031800	0.111400
H3151	H315	0.564000	0.569000	0.149400
H3161	H316	0.448400	0.629800	0.159400
H3171	H317	0.503300	0.636500	0.018700
H3181	H318	0.612700	0.568300	0.016700
H3191	H319	0.390400	0.707000	0.105200
H3201	H320	0.334300	0.672600	0.127200
C11	C1	0.866700	0.186360	0.653440
C21	C2	0.866010	0.224000	0.677780
C31	C3	0.820280	0.268130	0.672510
C41	C4	0.771500	0.277840	0.641160
C51	C5	0.771840	0.241350	0.617570
C61	C6	0.817470	0.195170	0.621690
C71	C7	0.814030	0.159000	0.593940
C81	C8	0.872170	0.039590	0.584870
C91	C9	0.866000	0.999880	0.561520
C101	C10	0.799590	0.082510	0.747310
C111	C11	0.735190	0.075880	0.783740
C121	C12	0.666240	0.068100	0.773820
C131	C13	0.668040	0.070050	0.727870
C141	C14	0.734230	0.077210	0.693530
C151	C15	0.595000	0.060540	0.813260
C161	C16	0.613970	0.090070	0.581190
C171	C17	0.550760	0.093510	0.623970
C181	C18	0.492500	0.070200	0.628200
C191	C19	0.495600	0.041900	0.594100
C201	C20	0.562610	0.036090	0.552890
C211	C21	0.622160	0.059160	0.546320
C221	C22	0.688810	0.050710	0.502670
C231	C23	0.861630	0.085510	0.445430
C241	C24	0.933550	0.076600	0.401900
C251	C25	0.976300	0.115100	0.390700
C261	C26	0.722300	0.197600	0.456200
C271	C27	0.606940	0.268770	0.461950
C281	C28	0.737800	0.255900	0.394700
C291	C29	0.193820	0.969340	0.672220
C301	C30	0.233680	0.941040	0.703600
C311	C31	0.197030	0.939360	0.750780
C321	C32	0.115420	0.965750	0.768810
C331	C33	0.072790	0.993740	0.738680
C341	C34	0.109250	0.996320	0.691580
C351	C35	0.062190	0.027770	0.663050
C361	C36	0.082800	0.069990	0.552010
C371	C37	0.045070	0.106030	0.521230
C381	C38	0.097700	0.133090	0.489310
C391	C39	0.329900	0.121800	0.919000
C401	C40	0.392400	0.128700	0.881900
C411	C41	0.452200	0.092600	0.863000
C421	C42	0.441800	0.046800	0.879200
C431	C43	0.376200	0.046200	0.918800
C441	C44	0.523500	0.099200	0.821600
C451	C45	0.206500	0.313640	0.846560
C461	C46	0.267790	0.276000	0.822220
C471	C47	0.260920	0.231870	0.827490
C481	C48	0.190500	0.222160	0.858840
C491	C49	0.130760	0.258650	0.882430
C501	C50	0.134330	0.304830	0.878310
C511	C51	0.066970	0.341000	0.906060
C521	C52	0.996630	0.460410	0.915130
C531	C53	0.927400	0.500120	0.938480
C541	C54	0.129410	0.417490	0.752690
C551	C55	0.094810	0.424120	0.716260
C561	C56	0.008160	0.431900	0.726180
C571	C57	0.965960	0.429950	0.772130
C581	C58	0.004970	0.422790	0.806470
C591	C59	0.968800	0.439460	0.686740
C601	C60	0.785230	0.409930	0.918810
C611	C61	0.768240	0.406490	0.876030
C621	C62	0.690900	0.429800	0.871800
C631	C63	0.631600	0.458100	0.905900
C641	C64	0.651590	0.463910	0.947110
C651	C65	0.727640	0.440840	0.953680
C661	C66	0.742190	0.449290	0.997330
C671	C67	0.892570	0.414490	0.054570
C681	C68	0.912050	0.423400	0.098100
C691	C69	0.982100	0.384900	0.109300
C701	C70	0.876100	0.302400	0.043800
C711	C71	0.837660	0.231230	0.038050
C721	C72	0.888400	0.244100	0.105300
C731	C73	0.335380	0.530660	0.827780
C741	C74	0.378320	0.558960	0.796400
C751	C75	0.387170	0.560640	0.749220
C761	C76	0.349980	0.534250	0.731190
C771	C77	0.305210	0.506260	0.761320
C781	C78	0.297150	0.503680	0.808420
C791	C79	0.253010	0.472230	0.836950
C801	C80	0.204800	0.430010	0.947990
C811	C81	0.172330	0.393970	0.978770
C821	C82	0.220100	0.366910	0.010690
C831	C83	0.870700	0.378200	0.581000
C841	C84	0.903000	0.371300	0.618100
C851	C85	0.907800	0.407400	0.637000
C861	C86	0.867800	0.453200	0.620800
C871	C87	0.841200	0.453800	0.581200
C881	C88	0.944300	0.400800	0.678400
C891	C89	0.520140	0.346560	0.686360
C901	C90	0.543790	0.322220	0.724000
C911	C91	0.492790	0.327490	0.768130
C921	C92	0.412660	0.358840	0.777840
C931	C93	0.389410	0.382430	0.741350
C941	C94	0.439160	0.378310	0.695170
C951	C95	0.407970	0.406060	0.659000
C961	C96	0.457040	0.415130	0.539590
C971	C97	0.427520	0.438480	0.499880
C981	C98	0.546900	0.252690	0.582510
C991	C99	0.518930	0.216260	0.575880
C1001	C100	0.440060	0.226180	0.568100
C1011	C101	0.395910	0.272130	0.570050
C1021	C102	0.427760	0.306470	0.577210
C1031	C103	0.408260	0.186740	0.560540
C1041	C104	0.195160	0.418810	0.590070
C1051	C105	0.174730	0.376030	0.593510
C1061	C106	0.120700	0.371800	0.570200
C1071	C107	0.089700	0.405900	0.541900
C1081	C108	0.115500	0.447110	0.536090
C1091	C109	0.168480	0.453680	0.559160
C1101	C110	0.191480	0.497330	0.550710
C1111	C111	0.307060	0.554570	0.585510
C1121	C112	0.335450	0.598100	0.576600
C1131	C113	0.367000	0.609300	0.615100
C1141	C114	0.178500	0.543800	0.697600
C1151	C115	0.068890	0.538050	0.768770
C1161	C116	0.132500	0.605300	0.755900
C1171	C117	0.866040	0.327780	0.469340
C1181	C118	0.937280	0.296400	0.441040
C1191	C119	0.947810	0.249220	0.439360
C1201	C120	0.884230	0.231190	0.465750
C1211	C121	0.811470	0.261320	0.493740
C1221	C122	0.800830	0.308420	0.496320
C1231	C123	0.725240	0.336950	0.527770
C1241	C124	0.634810	0.447990	0.569990
C1251	C125	0.566300	0.478770	0.606030
C1261	C126	0.587010	0.510690	0.633090
C1271	C127	0.248900	0.081000	0.621800
C1281	C128	0.274300	0.118100	0.628700
C1291	C129	0.315200	0.137000	0.592600
C1301	C130	0.321000	0.120800	0.546800
C1311	C131	0.295000	0.081200	0.546200
C1321	C132	0.345100	0.178400	0.599200
C1331	C133	0.053060	0.153440	0.813640
C1341	C134	0.090010	0.177780	0.776000
C1351	C135	0.088410	0.172510	0.731870
C1361	C136	0.049340	0.141160	0.722160
C1371	C137	0.013190	0.117570	0.758650
C1381	C138	0.012640	0.121690	0.804830
C1391	C139	0.973030	0.093940	0.841000
C1401	C140	0.911760	0.084870	0.960410
C1411	C141	0.865880	0.061520	0.000120
C1421	C142	0.882100	0.247310	0.917490
C1431	C143	0.811070	0.283740	0.924120
C1441	C144	0.734340	0.273820	0.931900
C1451	C145	0.738090	0.227870	0.929950
C1461	C146	0.811440	0.193530	0.922790
C1471	C147	0.655540	0.313260	0.939460
C1481	C148	0.704040	0.081190	0.909930
C1491	C149	0.644270	0.123970	0.906490
C1501	C150	0.562700	0.128200	0.929800
C1511	C151	0.537500	0.094100	0.958100
C1521	C152	0.598700	0.052890	0.963910
C1531	C153	0.681320	0.046320	0.940840
C1541	C154	0.739520	0.002670	0.949290
C1551	C155	0.947140	0.945430	0.914490
C1561	C156	0.010150	0.901900	0.923400
C1571	C157	0.091400	0.890700	0.884900
C1581	C158	0.919900	0.956200	0.802400
C1591	C159	0.875710	0.961950	0.731230
C1601	C160	0.993700	0.894700	0.744100
C1611	C161	0.163160	0.172220	0.030660
C1621	C162	0.174720	0.203600	0.058960
C1631	C163	0.136390	0.250780	0.060640
C1641	C164	0.081170	0.268810	0.034250
C1651	C165	0.066530	0.238680	0.006260
C1661	C166	0.105570	0.191580	0.003680
C1671	C167	0.089960	0.163050	0.972230
C1681	C168	0.152790	0.052010	0.930010
C1691	C169	0.151100	0.021230	0.893970
C1701	C170	0.230790	0.989310	0.866910
C1711	C171	0.451700	0.419000	0.878200
C1721	C172	0.521100	0.381900	0.871300
C1731	C173	0.544800	0.363000	0.907400
C1741	C174	0.488600	0.379200	0.953200
C1751	C175	0.422400	0.418800	0.953800
C1761	C176	0.622700	0.321600	0.900800
C1771	C177	0.133300	0.813640	0.346560
C1781	C178	0.133990	0.776000	0.322220
C1791	C179	0.179720	0.731870	0.327490
C1801	C180	0.228500	0.722160	0.358840
C1811	C181	0.228160	0.758650	0.382430
C1821	C182	0.182530	0.804830	0.378310
C1831	C183	0.185970	0.841000	0.406060
C1841	C184	0.127830	0.960410	0.415130
C1851	C185	0.134000	0.000120	0.438480
C1861	C186	0.200410	0.917490	0.252690
C1871	C187	0.264810	0.924120	0.216260
C1881	C188	0.333760	0.931900	0.226180
C1891	C189	0.331960	0.929950	0.272130
C1901	C190	0.265770	0.922790	0.306470
C1911	C191	0.405000	0.939460	0.186740
C1921	C192	0.386030	0.909930	0.418810
C1931	C193	0.449240	0.906490	0.376030
C1941	C194	0.507500	0.929800	0.371800
C1951	C195	0.504400	0.958100	0.405900
C1961	C196	0.437390	0.963910	0.447110
C1971	C197	0.377840	0.940840	0.453680
C1981	C198	0.311190	0.949290	0.497330
C1991	C199	0.138370	0.914490	0.554570
C2001	C200	0.066450	0.923400	0.598100
C2011	C201	0.023700	0.884900	0.609300
C2021	C202	0.277700	0.802400	0.543800
C2031	C203	0.393060	0.731230	0.538050
C2041	C204	0.262200	0.744100	0.605300
C2051	C205	0.806180	0.030660	0.327780
C2061	C206	0.766320	0.058960	0.296400
C2071	C207	0.802970	0.060640	0.249220
C2081	C208	0.884580	0.034250	0.231190
C2091	C209	0.927210	0.006260	0.261320
C2101	C210	0.890750	0.003680	0.308420
C2111	C211	0.937810	0.972230	0.336950
C2121	C212	0.917200	0.930010	0.447990
C2131	C213	0.954930	0.893970	0.478770
C2141	C214	0.902300	0.866910	0.510690
C2151	C215	0.670100	0.878200	0.081000
C2161	C216	0.607600	0.871300	0.118100
C2171	C217	0.547800	0.907400	0.137000
C2181	C218	0.558200	0.953200	0.120800
C2191	C219	0.623800	0.953800	0.081200
C2201	C220	0.476500	0.900800	0.178400
C2211	C221	0.793500	0.686360	0.153440
C2221	C222	0.732210	0.724000	0.177780
C2231	C223	0.739080	0.768130	0.172510
C2241	C224	0.809500	0.777840	0.141160
C2251	C225	0.869240	0.741350	0.117570
C2261	C226	0.865670	0.695170	0.121690
C2271	C227	0.933030	0.659000	0.093940
C2281	C228	0.003370	0.539590	0.084870
C2291	C229	0.072600	0.499880	0.061520
C2301	C230	0.870590	0.582510	0.247310
C2311	C231	0.905190	0.575880	0.283740
C2321	C232	0.991840	0.568100	0.273820
C2331	C233	0.034040	0.570050	0.227870
C2341	C234	0.995030	0.577210	0.193530
C2351	C235	0.031200	0.560540	0.313260
C2361	C236	0.214770	0.590070	0.081190
C2371	C237	0.231760	0.593510	0.123970
C2381	C238	0.309100	0.570200	0.128200
C2391	C239	0.368400	0.541900	0.094100
C2401	C240	0.348410	0.536090	0.052890
C2411	C241	0.272360	0.559160	0.046320
C2421	C242	0.257810	0.550710	0.002670
C2431	C243	0.107430	0.585510	0.945430
C2441	C244	0.087950	0.576600	0.901900
C2451	C245	0.017900	0.615100	0.890700
C2461	C246	0.123900	0.697600	0.956200
C2471	C247	0.162340	0.768770	0.961950
C2481	C248	0.111600	0.755900	0.894700
C2491	C249	0.664620	0.469340	0.172220
C2501	C250	0.621680	0.441040	0.203600
C2511	C251	0.612830	0.439360	0.250780
C2521	C252	0.650020	0.465750	0.268810
C2531	C253	0.694790	0.493740	0.238680
C2541	C254	0.702850	0.496320	0.191580
C2551	C255	0.746990	0.527770	0.163050
C2561	C256	0.795200	0.569990	0.052010
C2571	C257	0.827670	0.606030	0.021230
C2581	C258	0.779900	0.633090	0.989310
C2591	C259	0.129300	0.621800	0.419000
C2601	C260	0.097000	0.628700	0.381900
C2611	C261	0.092200	0.592600	0.363000
C2621	C262	0.132200	0.546800	0.379200
C2631	C263	0.158800	0.546200	0.418800
C2641	C264	0.055700	0.599200	0.321600
C2651	C265	0.479860	0.653440	0.313640
C2661	C266	0.456210	0.677780	0.276000
C2671	C267	0.507210	0.672510	0.231870
C2681	C268	0.587340	0.641160	0.222160
C2691	C269	0.610590	0.617570	0.258650
C2701	C270	0.560840	0.621690	0.304830
C2711	C271	0.592030	0.593940	0.341000
C2721	C272	0.542960	0.584870	0.460410
C2731	C273	0.572480	0.561520	0.500120
C2741	C274	0.453100	0.747310	0.417490
C2751	C275	0.481070	0.783740	0.424120
C2761	C276	0.559940	0.773820	0.431900
C2771	C277	0.604090	0.727870	0.429950
C2781	C278	0.572240	0.693530	0.422790
C2791	C279	0.591740	0.813260	0.439460
C2801	C280	0.804840	0.581190	0.409930
C2811	C281	0.825270	0.623970	0.406490
C2821	C282	0.879300	0.628200	0.429800
C2831	C283	0.910300	0.594100	0.458100
C2841	C284	0.884500	0.552890	0.463910
C2851	C285	0.831520	0.546320	0.440840
C2861	C286	0.808520	0.502670	0.449290
C2871	C287	0.692940	0.445430	0.414490
C2881	C288	0.664550	0.401900	0.423400
C2891	C289	0.633000	0.390700	0.384900
C2901	C290	0.821500	0.456200	0.302400
C2911	C291	0.931110	0.461950	0.231230
C2921	C292	0.867500	0.394700	0.244100
C2931	C293	0.133960	0.672220	0.530660
C2941	C294	0.062720	0.703600	0.558960
C2951	C295	0.052190	0.750780	0.560640
C2961	C296	0.115770	0.768810	0.534250
C2971	C297	0.188530	0.738680	0.506260
C2981	C298	0.199170	0.691580	0.503680
C2991	C299	0.274760	0.663050	0.472230
C3001	C300	0.365190	0.552010	0.430010
C3011	C301	0.433700	0.521230	0.393970
C3021	C302	0.412990	0.489310	0.366910
C3031	C303	0.751100	0.919000	0.378200
C3041	C304	0.725700	0.881900	0.371300
C3051	C305	0.684800	0.863000	0.407400
C3061	C306	0.679000	0.879200	0.453200
C3071	C307	0.705000	0.918800	0.453800
C3081	C308	0.654900	0.821600	0.400800
C3091	C309	0.946940	0.846560	0.186360
C3101	C310	0.909990	0.822220	0.224000
C3111	C311	0.911590	0.827490	0.268130
C3121	C312	0.950660	0.858840	0.277840
C3131	C313	0.986810	0.882430	0.241350
C3141	C314	0.987360	0.878310	0.195170
C3151	C315	0.026970	0.906060	0.159000
C3161	C316	0.088240	0.915130	0.039590
C3171	C317	0.134120	0.938480	0.999880
C3181	C318	0.117900	0.752690	0.082510
C3191	C319	0.188930	0.716260	0.075880
C3201	C320	0.265660	0.726180	0.068100
C3211	C321	0.261910	0.772130	0.070050
C3221	C322	0.188560	0.806470	0.077210
C3231	C323	0.344460	0.686740	0.060540
C3241	C324	0.295960	0.918810	0.090070
C3251	C325	0.355730	0.876030	0.093510
C3261	C326	0.437300	0.871800	0.070200
C3271	C327	0.462500	0.905900	0.041900
C3281	C328	0.401300	0.947110	0.036090
C3291	C329	0.318680	0.953680	0.059160
C3301	C330	0.260480	0.997330	0.050710
C3311	C331	0.052860	0.054570	0.085510
C3321	C332	0.989850	0.098100	0.076600
C3331	C333	0.908600	0.109300	0.115100
C3341	C334	0.080100	0.043800	0.197600
C3351	C335	0.124290	0.038050	0.268770
C3361	C336	0.006300	0.105300	0.255900
C3371	C337	0.836840	0.827780	0.969340
C3381	C338	0.825280	0.796400	0.941040
C3391	C339	0.863610	0.749220	0.939360
C3401	C340	0.918830	0.731190	0.965750
C3411	C341	0.933470	0.761320	0.993740
C3421	C342	0.894430	0.808420	0.996320
C3431	C343	0.910040	0.836950	0.027770
C3441	C344	0.847210	0.947990	0.069990
C3451	C345	0.848900	0.978770	0.106030
C3461	C346	0.769210	0.010690	0.133090
C3471	C347	0.548300	0.581000	0.121800
C3481	C348	0.478900	0.618100	0.128700
C3491	C349	0.455200	0.637000	0.092600
C3501	C350	0.511400	0.620800	0.046800
C3511	C351	0.577600	0.581200	0.046200
C3521	C352	0.377300	0.678400	0.099200
N11	N1	0.851290	0.114520	0.600500
N21	N2	0.840900	0.082320	0.572480
N31	N3	0.800170	0.083230	0.702430
N41	N4	0.747420	0.072500	0.495260
N51	N5	0.809450	0.060670	0.451830
N61	N6	0.687700	0.240520	0.436880
N71	N7	0.095500	0.033950	0.618650
N81	N8	0.046570	0.068300	0.595560
N91	N9	0.321010	0.084610	0.939570
N101	N10	0.066310	0.385480	0.899500
N111	N11	0.995700	0.417680	0.927520
N121	N12	0.085830	0.416770	0.797570
N131	N13	0.815180	0.427500	0.004740
N141	N14	0.821950	0.439330	0.048170
N151	N15	0.865100	0.259480	0.063120
N161	N16	0.248100	0.466050	0.881350
N171	N17	0.210430	0.431700	0.904440
N181	N18	0.845190	0.415390	0.560430
N191	N19	0.451790	0.399500	0.614520
N201	N20	0.413380	0.427520	0.582320
N211	N21	0.502600	0.297570	0.583230
N221	N22	0.242680	0.504740	0.572500
N231	N23	0.261280	0.548170	0.560670
N241	N24	0.124580	0.563120	0.740520
N251	N25	0.714150	0.381350	0.533950
N261	N26	0.642130	0.404440	0.568300
N271	N27	0.260580	0.060430	0.584610
N281	N28	0.965810	0.100500	0.885480
N291	N29	0.923220	0.072480	0.917680
N301	N30	0.883400	0.202430	0.916770
N311	N31	0.819920	0.995260	0.927500
N321	N32	0.870120	0.951830	0.939330
N331	N33	0.928220	0.936880	0.759480
N341	N34	0.129450	0.118650	0.966050
N351	N35	0.114870	0.095560	0.931700
N361	N36	0.405620	0.439570	0.915390
N371	N37	0.148710	0.885480	0.399500
N381	N38	0.159100	0.917680	0.427520
N391	N39	0.199830	0.916770	0.297570
N401	N40	0.252580	0.927500	0.504740
N411	N41	0.190550	0.939330	0.548170
N421	N42	0.312300	0.759480	0.563120
N431	N43	0.904500	0.966050	0.381350
N441	N44	0.953430	0.931700	0.404440
N451	N45	0.678990	0.915390	0.060430
N461	N46	0.933690	0.614520	0.100500
N471	N47	0.004300	0.582320	0.072480
N481	N48	0.914170	0.583230	0.202430
N491	N49	0.184820	0.572500	0.995260
N501	N50	0.178050	0.560670	0.951830
N511	N51	0.134900	0.740520	0.936880
N521	N52	0.751900	0.533950	0.118650
N531	N53	0.789570	0.568300	0.095560
N541	N54	0.154810	0.584610	0.439570
N551	N55	0.548210	0.600500	0.385480
N561	N56	0.586620	0.572480	0.417680
N571	N57	0.497400	0.702430	0.416770
N581	N58	0.757320	0.495260	0.427500
N591	N59	0.738720	0.451830	0.439330
N601	N60	0.875420	0.436880	0.259480
N611	N61	0.285850	0.618650	0.466050
N621	N62	0.357870	0.595560	0.431700
N631	N63	0.739420	0.939570	0.415390
N641	N64	0.034190	0.899500	0.114520
N651	N65	0.076780	0.927520	0.082320
N661	N66	0.116600	0.797570	0.083230
N671	N67	0.180080	0.004740	0.072500
N681	N68	0.129880	0.048170	0.060670
N691	N69	0.071780	0.063120	0.240520
N701	N70	0.870550	0.881350	0.033950
N711	N71	0.885130	0.904440	0.068300
N721	N72	0.594380	0.560430	0.084610
O11	O1	0.913050	0.144170	0.661330
O21	O2	0.773730	0.170390	0.562750
O31	O3	0.909850	0.030370	0.617930
O41	O4	0.663570	0.118230	0.577030
O51	O5	0.690850	0.021990	0.472370
O61	O6	0.853040	0.117040	0.475120
O71	O7	0.688850	0.181670	0.493030
O81	O8	0.234860	0.969750	0.627930
O91	O9	0.985500	0.049960	0.682920
O101	O10	0.157180	0.042370	0.532470
O111	O11	0.218550	0.355830	0.838670
O121	O12	0.006870	0.329610	0.937250
O131	O13	0.058150	0.469630	0.882070
O141	O14	0.858830	0.381770	0.922970
O151	O15	0.685210	0.478010	0.027630
O161	O16	0.945200	0.382960	0.024880
O171	O17	0.863550	0.318330	0.006970
O181	O18	0.332540	0.530250	0.872070
O191	O19	0.218380	0.450040	0.817080
O201	O20	0.232020	0.457630	0.967530
O211	O21	0.574380	0.338670	0.644170
O221	O22	0.336480	0.437250	0.670390
O231	O23	0.527780	0.382070	0.530370
O241	O24	0.240600	0.422970	0.618230
O251	O25	0.163220	0.527630	0.521990
O261	O26	0.328160	0.524880	0.617040
O271	O27	0.181880	0.506970	0.681670
O281	O28	0.862790	0.372070	0.469750
O291	O29	0.668420	0.317080	0.549960
O301	O30	0.689650	0.467530	0.542370
O311	O31	0.057220	0.161330	0.855830
O321	O32	0.944120	0.062750	0.829610
O331	O33	0.940220	0.117930	0.969630
O341	O34	0.781800	0.077030	0.881770
O351	O35	0.712840	0.972370	0.978010
O361	O36	0.970080	0.975120	0.882960
O371	O37	0.870520	0.993030	0.818330
O381	O38	0.204610	0.127930	0.030250
O391	O39	0.035460	0.182920	0.950040
O401	O40	0.199550	0.032470	0.957630
O411	O41	0.086950	0.855830	0.338670
O421	O42	0.226270	0.829610	0.437250
O431	O43	0.090150	0.969630	0.382070
O441	O44	0.336430	0.881770	0.422970
O451	O45	0.309150	0.978010	0.527630
O461	O46	0.146960	0.882960	0.524880
O471	O47	0.311150	0.818330	0.506970
O481	O48	0.765140	0.030250	0.372070
O491	O49	0.014500	0.950040	0.317080
O501	O50	0.842820	0.957630	0.467530
O511	O51	0.781450	0.644170	0.161330
O521	O52	0.993130	0.670390	0.062750
O531	O53	0.941850	0.530370	0.117930
O541	O54	0.141170	0.618230	0.077030
O551	O55	0.314790	0.521990	0.972370
O561	O56	0.054800	0.617040	0.975120
O571	O57	0.136450	0.681670	0.993030
O581	O58	0.667460	0.469750	0.127930
O591	O59	0.781620	0.549960	0.182920
O601	O60	0.767980	0.542370	0.032470
O611	O61	0.425620	0.661330	0.355830
O621	O62	0.663520	0.562750	0.329610
O631	O63	0.472220	0.617930	0.469630
O641	O64	0.759400	0.577030	0.381770
O651	O65	0.836780	0.472370	0.478010
O661	O66	0.671840	0.475120	0.382960
O671	O67	0.818120	0.493030	0.318330
O681	O68	0.137210	0.627930	0.530250
O691	O69	0.331580	0.682920	0.450040
O701	O70	0.310350	0.532470	0.457630
O711	O71	0.942780	0.838670	0.144170
O721	O72	0.055880	0.937250	0.170390
O731	O73	0.059780	0.882070	0.030370
O741	O74	0.218200	0.922970	0.118230
O751	O75	0.287160	0.027630	0.021990
O761	O76	0.029920	0.024880	0.117040
O771	O77	0.129480	0.006970	0.181670
O781	O78	0.795390	0.872070	0.969750
O791	O79	0.964540	0.817080	0.049960
O801	O80	0.800450	0.967530	0.042370
