data_XALCAP_freeONLY_PM
_symmetry_space_group_name_H-M	'P1'
_cell_length_a	17.413200
_cell_length_b	30.005800
_cell_length_c	30.005800
_cell_angle_alpha	85.170200
_cell_angle_beta	73.132200
_cell_angle_gamma	73.132200
_symmetry_Int_Tables_number 1

loop_
_symmetry_equiv_pos_as_xyz
'x,y,z'

loop_
_atom_site_label
_atom_site_type_symbol
_atom_site_fract_x
_atom_site_fract_y
_atom_site_fract_z
Mn11	Mn1	0.373120	0.879480	0.028940
Mn21	Mn2	0.293250	0.001810	0.920770
Mn31	Mn3	0.496750	0.915960	0.142780
Mn41	Mn4	0.781540	0.620520	0.471060
Mn51	Mn5	0.715830	0.498190	0.579230
Mn61	Mn6	0.055490	0.584040	0.357220
Mn71	Mn7	0.402060	0.971060	0.379480
Mn81	Mn8	0.214020	0.079230	0.501810
Mn91	Mn9	0.639530	0.857220	0.415960
Mn101	Mn10	0.252600	0.528940	0.120520
Mn111	Mn11	0.295060	0.420770	0.998190
Mn121	Mn12	0.412710	0.642780	0.084040
Mn131	Mn13	0.626880	0.120520	0.971060
Mn141	Mn14	0.706750	0.998190	0.079230
Mn151	Mn15	0.503250	0.084040	0.857220
Mn161	Mn16	0.218460	0.379480	0.528940
Mn171	Mn17	0.284170	0.501810	0.420770
Mn181	Mn18	0.944510	0.415960	0.642780
Mn191	Mn19	0.597940	0.028940	0.620520
Mn201	Mn20	0.785980	0.920770	0.498190
Mn211	Mn21	0.360470	0.142780	0.584040
Mn221	Mn22	0.747400	0.471060	0.879480
Mn231	Mn23	0.704940	0.579230	0.001810
Mn241	Mn24	0.587290	0.357220	0.915960
H11	H1	0.146300	0.890800	0.143000
H21	H2	0.013200	0.934200	0.151000
H31	H3	0.972700	0.978600	0.091400
H41	H4	0.078100	0.983200	0.020400
H51	H5	0.523000	0.951700	0.907100
H61	H6	0.487100	0.926800	0.876000
H71	H7	0.582600	0.859700	0.876300
H81	H8	0.633200	0.897600	0.870200
H91	H9	0.605300	0.874200	0.920000
H101	H10	0.420600	0.827300	0.938300
H111	H11	0.319300	0.735900	0.943700
H121	H12	0.347100	0.726400	0.990800
H131	H13	0.300900	0.778200	0.978000
H141	H14	0.468800	0.724600	0.880000
H151	H15	0.501300	0.767600	0.886600
H161	H16	0.531400	0.718900	0.911300
H171	H17	0.281200	0.927800	0.806000
H181	H18	0.344300	0.927600	0.727400
H191	H19	0.440700	0.971100	0.697300
H201	H20	0.474700	0.010700	0.748100
H211	H21	0.380900	0.125600	0.958400
H221	H22	0.394900	0.086600	0.997200
H231	H23	0.244000	0.105100	0.025500
H241	H24	0.285100	0.143500	0.034700
H251	H25	0.242200	0.150500	0.993100
H261	H26	0.133400	0.068800	0.980400
H271	H27	0.026900	0.137900	0.977900
H281	H28	0.110000	0.133100	0.842100
H291	H29	0.212600	0.067100	0.848900
H301	H30	0.966500	0.174800	0.870400
H311	H31	0.999900	0.207900	0.894500
H321	H32	0.616500	0.784300	0.196900
H331	H33	0.612600	0.709800	0.188400
H341	H34	0.545000	0.693900	0.136300
H351	H35	0.483800	0.754200	0.094600
H361	H36	0.345600	0.991600	0.035800
H371	H37	0.378200	0.027100	0.057700
H381	H38	0.240400	0.993000	0.119600
H391	H39	0.216100	0.036300	0.086500
H401	H40	0.259200	0.040900	0.125700
H411	H41	0.656800	0.248000	0.910600
H421	H42	0.765900	0.186400	0.920800
H431	H43	0.884300	0.280200	0.930600
H441	H44	0.772400	0.337800	0.922400
H451	H45	0.891700	0.158400	0.940000
H461	H46	0.923300	0.193200	0.963000
H471	H47	0.680100	0.609200	0.357000
H481	H48	0.598400	0.565800	0.349000
H491	H49	0.542700	0.521400	0.408600
H501	H50	0.581700	0.516800	0.479600
H511	H51	0.881800	0.548300	0.592900
H521	H52	0.789900	0.573200	0.624000
H531	H53	0.818600	0.640300	0.623700
H541	H54	0.901000	0.602400	0.629800
H551	H55	0.899500	0.625800	0.580000
H561	H56	0.686200	0.672700	0.561700
H571	H57	0.498900	0.764100	0.556300
H581	H58	0.564300	0.773600	0.509200
H591	H59	0.557100	0.721800	0.522000
H601	H60	0.573400	0.775400	0.620000
H611	H61	0.655500	0.732400	0.613400
H621	H62	0.661600	0.781100	0.588700
H631	H63	0.515000	0.572200	0.694000
H641	H64	0.499300	0.572400	0.772600
H651	H65	0.609100	0.528900	0.802700
H661	H66	0.733500	0.489300	0.751900
H671	H67	0.964900	0.374400	0.541600
H681	H68	0.978700	0.413400	0.502800
H691	H69	0.874600	0.394900	0.474500
H701	H70	0.963300	0.356500	0.465300
H711	H71	0.885800	0.349500	0.506900
H721	H72	0.682600	0.431200	0.519600
H731	H73	0.642700	0.362100	0.522100
H741	H74	0.585200	0.366900	0.657900
H751	H75	0.628600	0.432900	0.651100
H761	H76	0.511700	0.325200	0.629600
H771	H77	0.602300	0.292100	0.605500
H781	H78	0.097700	0.715700	0.303100
H791	H79	0.010800	0.790200	0.311600
H801	H80	0.875200	0.806100	0.363700
H811	H81	0.832600	0.745800	0.405400
H821	H82	0.873000	0.508400	0.464200
H831	H83	0.963000	0.472900	0.442300
H841	H84	0.853000	0.507000	0.380400
H851	H85	0.838900	0.463700	0.413500
H861	H86	0.925800	0.459100	0.374300
H871	H87	0.315400	0.252000	0.589400
H881	H88	0.373100	0.313600	0.579200
H891	H89	0.595100	0.219800	0.569400
H901	H90	0.532600	0.162200	0.577600
H911	H91	0.490100	0.341600	0.560000
H921	H92	0.579500	0.306800	0.537000
H931	H93	0.289300	0.857000	0.390800
H941	H94	0.164200	0.849000	0.434200
H951	H95	0.064100	0.908600	0.478600
H961	H96	0.098500	0.979600	0.483200
H971	H97	0.430100	0.092900	0.451700
H981	H98	0.363100	0.124000	0.426800
H991	H99	0.458900	0.123700	0.359700
H1001	H100	0.503400	0.129800	0.397600
H1011	H101	0.525300	0.080000	0.374200
H1021	H102	0.358900	0.061700	0.327300
H1031	H103	0.263000	0.056300	0.235900
H1041	H104	0.337900	0.009200	0.226400
H1051	H105	0.278900	0.022000	0.278200
H1061	H106	0.348800	0.120000	0.224600
H1071	H107	0.387900	0.113400	0.267600
H1081	H108	0.442700	0.088700	0.218900
H1091	H109	0.087200	0.194000	0.427800
H1101	H110	0.071700	0.272600	0.427600
H1111	H111	0.138000	0.302700	0.471100
H1121	H112	0.222800	0.251900	0.510700
H1131	H113	0.339300	0.041600	0.625600
H1141	H114	0.392100	0.002800	0.586600
H1151	H115	0.269500	0.974500	0.605100
H1161	H116	0.319800	0.965300	0.643500
H1171	H117	0.235300	0.006900	0.650500
H1181	H118	0.113800	0.019600	0.568800
H1191	H119	0.004800	0.022100	0.637900
H1201	H120	0.952100	0.157900	0.633100
H1211	H121	0.061500	0.151100	0.567100
H1221	H122	0.836900	0.129600	0.674800
H1231	H123	0.894400	0.105500	0.707900
H1241	H124	0.813400	0.803100	0.284300
H1251	H125	0.801000	0.811600	0.209800
H1261	H126	0.681300	0.863700	0.193900
H1271	H127	0.578400	0.905400	0.254200
H1281	H128	0.381400	0.964200	0.491600
H1291	H129	0.435900	0.942300	0.527100
H1301	H130	0.360000	0.880400	0.493000
H1311	H131	0.302600	0.913500	0.536300
H1321	H132	0.384900	0.874300	0.540900
H1331	H133	0.567400	0.089400	0.748000
H1341	H134	0.686700	0.079200	0.686400
H1351	H135	0.814900	0.069400	0.780200
H1361	H136	0.694800	0.077600	0.837800
H1371	H137	0.831700	0.060000	0.658400
H1381	H138	0.886300	0.037000	0.693200
H1391	H139	0.037100	0.643000	0.109200
H1401	H140	0.947400	0.651000	0.065800
H1411	H141	0.951300	0.591400	0.021400
H1421	H142	0.061300	0.520400	0.016800
H1431	H143	0.474700	0.407100	0.048300
H1441	H144	0.413900	0.376000	0.073200
H1451	H145	0.442300	0.376300	0.140300
H1461	H146	0.530800	0.370200	0.102400
H1471	H147	0.479500	0.420000	0.125800
H1481	H148	0.247900	0.438300	0.172700
H1491	H149	0.055200	0.443700	0.264100
H1501	H150	0.073500	0.490800	0.273600
H1511	H151	0.079100	0.478000	0.221800
H1521	H152	0.193400	0.380000	0.275400
H1531	H153	0.268900	0.386600	0.232400
H1541	H154	0.250300	0.411300	0.281100
H1551	H155	0.209000	0.306000	0.072200
H1561	H156	0.271900	0.227400	0.072400
H1571	H157	0.411800	0.197300	0.028900
H1581	H158	0.485400	0.248100	0.989300
H1591	H159	0.506500	0.458400	0.874400
H1601	H160	0.481500	0.497200	0.913400
H1611	H161	0.349100	0.525500	0.894900
H1621	H162	0.428600	0.534700	0.856500
H1631	H163	0.392700	0.493100	0.849500
H1641	H164	0.202200	0.480400	0.931200
H1651	H165	0.164800	0.477900	0.862100
H1661	H166	0.243100	0.342100	0.866900
H1671	H167	0.279700	0.348900	0.932900
H1681	H168	0.141300	0.370400	0.825200
H1691	H169	0.207800	0.394500	0.792100
H1701	H170	0.400800	0.696900	0.215700
H1711	H171	0.322400	0.688400	0.290200
H1721	H172	0.238900	0.636300	0.306100
H1731	H173	0.238000	0.594600	0.245800
H1741	H174	0.337200	0.535800	0.008400
H1751	H175	0.405300	0.557700	0.972900
H1761	H176	0.233400	0.619600	0.007000
H1771	H177	0.252400	0.586500	0.963700
H1781	H178	0.300100	0.625700	0.959100
H1791	H179	0.904800	0.410600	0.752000
H1801	H180	0.952300	0.420800	0.813600
H1811	H181	0.164500	0.430600	0.719800
H1821	H182	0.110200	0.422400	0.662200
H1831	H183	0.050100	0.440000	0.841600
H1841	H184	0.116500	0.463000	0.806800
H1851	H185	0.853700	0.109200	0.857000
H1861	H186	0.986800	0.065800	0.849000
H1871	H187	0.027300	0.021400	0.908600
H1881	H188	0.921900	0.016800	0.979600
H1891	H189	0.477000	0.048300	0.092900
H1901	H190	0.512900	0.073200	0.124000
H1911	H191	0.417400	0.140300	0.123700
H1921	H192	0.366800	0.102400	0.129800
H1931	H193	0.394700	0.125800	0.080000
H1941	H194	0.579400	0.172700	0.061700
H1951	H195	0.680700	0.264100	0.056300
H1961	H196	0.652900	0.273600	0.009200
H1971	H197	0.699100	0.221800	0.022000
H1981	H198	0.531200	0.275400	0.120000
H1991	H199	0.498700	0.232400	0.113400
H2001	H200	0.468600	0.281100	0.088700
H2011	H201	0.718800	0.072200	0.194000
H2021	H202	0.655700	0.072400	0.272600
H2031	H203	0.559300	0.028900	0.302700
H2041	H204	0.525300	0.989300	0.251900
H2051	H205	0.619100	0.874400	0.041600
H2061	H206	0.605100	0.913400	0.002800
H2071	H207	0.756000	0.894900	0.974500
H2081	H208	0.714900	0.856500	0.965300
H2091	H209	0.757800	0.849500	0.006900
H2101	H210	0.866600	0.931200	0.019600
H2111	H211	0.973100	0.862100	0.022100
H2121	H212	0.890000	0.866900	0.157900
H2131	H213	0.787400	0.932900	0.151100
H2141	H214	0.033500	0.825200	0.129600
H2151	H215	0.000100	0.792100	0.105500
H2161	H216	0.383500	0.215700	0.803100
H2171	H217	0.387400	0.290200	0.811600
H2181	H218	0.455000	0.306100	0.863700
H2191	H219	0.516200	0.245800	0.905400
H2201	H220	0.654400	0.008400	0.964200
H2211	H221	0.621800	0.972900	0.942300
H2221	H222	0.759600	0.007000	0.880400
H2231	H223	0.783900	0.963700	0.913500
H2241	H224	0.740800	0.959100	0.874300
H2251	H225	0.343200	0.752000	0.089400
H2261	H226	0.234100	0.813600	0.079200
H2271	H227	0.115700	0.719800	0.069400
H2281	H228	0.227600	0.662200	0.077600
H2291	H229	0.108300	0.841600	0.060000
H2301	H230	0.076700	0.806800	0.037000
H2311	H231	0.319900	0.390800	0.643000
H2321	H232	0.401600	0.434200	0.651000
H2331	H233	0.457300	0.478600	0.591400
H2341	H234	0.418300	0.483200	0.520400
H2351	H235	0.118200	0.451700	0.407100
H2361	H236	0.210100	0.426800	0.376000
H2371	H237	0.181400	0.359700	0.376300
H2381	H238	0.099000	0.397600	0.370200
H2391	H239	0.100500	0.374200	0.420000
H2401	H240	0.313800	0.327300	0.438300
H2411	H241	0.501100	0.235900	0.443700
H2421	H242	0.435700	0.226400	0.490800
H2431	H243	0.442900	0.278200	0.478000
H2441	H244	0.426600	0.224600	0.380000
H2451	H245	0.344500	0.267600	0.386600
H2461	H246	0.338400	0.218900	0.411300
H2471	H247	0.485000	0.427800	0.306000
H2481	H248	0.500700	0.427600	0.227400
H2491	H249	0.390900	0.471100	0.197300
H2501	H250	0.266500	0.510700	0.248100
H2511	H251	0.035100	0.625600	0.458400
H2521	H252	0.021300	0.586600	0.497200
H2531	H253	0.125400	0.605100	0.525500
H2541	H254	0.036700	0.643500	0.534700
H2551	H255	0.114200	0.650500	0.493100
H2561	H256	0.317400	0.568800	0.480400
H2571	H257	0.357300	0.637900	0.477900
H2581	H258	0.414800	0.633100	0.342100
H2591	H259	0.371400	0.567100	0.348900
H2601	H260	0.488300	0.674800	0.370400
H2611	H261	0.397700	0.707900	0.394500
H2621	H262	0.902300	0.284300	0.696900
H2631	H263	0.989200	0.209800	0.688400
H2641	H264	0.124800	0.193900	0.636300
H2651	H265	0.167400	0.254200	0.594600
H2661	H266	0.127000	0.491600	0.535800
H2671	H267	0.037000	0.527100	0.557700
H2681	H268	0.147000	0.493000	0.619600
H2691	H269	0.161100	0.536300	0.586500
H2701	H270	0.074200	0.540900	0.625700
H2711	H271	0.684600	0.748000	0.410600
H2721	H272	0.626900	0.686400	0.420800
H2731	H273	0.404900	0.780200	0.430600
H2741	H274	0.467400	0.837800	0.422400
H2751	H275	0.509900	0.658400	0.440000
H2761	H276	0.420500	0.693200	0.463000
H2771	H277	0.710700	0.143000	0.609200
H2781	H278	0.835800	0.151000	0.565800
H2791	H279	0.935900	0.091400	0.521400
H2801	H280	0.901500	0.020400	0.516800
H2811	H281	0.569900	0.907100	0.548300
H2821	H282	0.636900	0.876000	0.573200
H2831	H283	0.541100	0.876300	0.640300
H2841	H284	0.496600	0.870200	0.602400
H2851	H285	0.474700	0.920000	0.625800
H2861	H286	0.641100	0.938300	0.672700
H2871	H287	0.737000	0.943700	0.764100
H2881	H288	0.662100	0.990800	0.773600
H2891	H289	0.721100	0.978000	0.721800
H2901	H290	0.651200	0.880000	0.775400
H2911	H291	0.612100	0.886600	0.732400
H2921	H292	0.557300	0.911300	0.781100
H2931	H293	0.912800	0.806000	0.572200
H2941	H294	0.928300	0.727400	0.572400
H2951	H295	0.862000	0.697300	0.528900
H2961	H296	0.777200	0.748100	0.489300
H2971	H297	0.660700	0.958400	0.374400
H2981	H298	0.607900	0.997200	0.413400
H2991	H299	0.730500	0.025500	0.394900
H3001	H300	0.680200	0.034700	0.356500
H3011	H301	0.764700	0.993100	0.349500
H3021	H302	0.886200	0.980400	0.431200
H3031	H303	0.995200	0.977900	0.362100
H3041	H304	0.047900	0.842100	0.366900
H3051	H305	0.938500	0.848900	0.432900
H3061	H306	0.163100	0.870400	0.325200
H3071	H307	0.105600	0.894500	0.292100
H3081	H308	0.186600	0.196900	0.715700
H3091	H309	0.199000	0.188400	0.790200
H3101	H310	0.318700	0.136300	0.806100
H3111	H311	0.421600	0.094600	0.745800
H3121	H312	0.618600	0.035800	0.508400
H3131	H313	0.564100	0.057700	0.472900
H3141	H314	0.640000	0.119600	0.507000
H3151	H315	0.697400	0.086500	0.463700
H3161	H316	0.615100	0.125700	0.459100
H3171	H317	0.432600	0.910600	0.252000
H3181	H318	0.313300	0.920800	0.313600
H3191	H319	0.185100	0.930600	0.219800
H3201	H320	0.305200	0.922400	0.162200
H3211	H321	0.168300	0.940000	0.341600
H3221	H322	0.113700	0.963000	0.306800
H3231	H323	0.962900	0.357000	0.890800
H3241	H324	0.052600	0.349000	0.934200
H3251	H325	0.048700	0.408600	0.978600
H3261	H326	0.938700	0.479600	0.983200
H3271	H327	0.525300	0.592900	0.951700
H3281	H328	0.586100	0.624000	0.926800
H3291	H329	0.557700	0.623700	0.859700
H3301	H330	0.469200	0.629800	0.897600
H3311	H331	0.520500	0.580000	0.874200
H3321	H332	0.752100	0.561700	0.827300
H3331	H333	0.944800	0.556300	0.735900
H3341	H334	0.926500	0.509200	0.726400
H3351	H335	0.920900	0.522000	0.778200
H3361	H336	0.806600	0.620000	0.724600
H3371	H337	0.731100	0.613400	0.767600
H3381	H338	0.749700	0.588700	0.718900
H3391	H339	0.791000	0.694000	0.927800
H3401	H340	0.728100	0.772600	0.927600
H3411	H341	0.588200	0.802700	0.971100
H3421	H342	0.514600	0.751900	0.010700
H3431	H343	0.493500	0.541600	0.125600
H3441	H344	0.518500	0.502800	0.086600
H3451	H345	0.650900	0.474500	0.105100
H3461	H346	0.571400	0.465300	0.143500
H3471	H347	0.607300	0.506900	0.150500
H3481	H348	0.797800	0.519600	0.068800
H3491	H349	0.835200	0.522100	0.137900
H3501	H350	0.756900	0.657900	0.133100
H3511	H351	0.720300	0.651100	0.067100
H3521	H352	0.858700	0.629600	0.174800
H3531	H353	0.792200	0.605500	0.207900
H3541	H354	0.599200	0.303100	0.784300
H3551	H355	0.677600	0.311600	0.709800
H3561	H356	0.761100	0.363700	0.693900
H3571	H357	0.762000	0.405400	0.754200
H3581	H358	0.662800	0.464200	0.991600
H3591	H359	0.594700	0.442300	0.027100
H3601	H360	0.766600	0.380400	0.993000
H3611	H361	0.747600	0.413500	0.036300
H3621	H362	0.699900	0.374300	0.040900
H3631	H363	0.095200	0.589400	0.248000
H3641	H364	0.047700	0.579200	0.186400
H3651	H365	0.835500	0.569400	0.280200
H3661	H366	0.889800	0.577600	0.337800
H3671	H367	0.949900	0.560000	0.158400
H3681	H368	0.883500	0.537000	0.193200
C11	C1	0.197490	0.911320	0.077500
C21	C2	0.133400	0.910100	0.117900
C31	C3	0.054000	0.935300	0.122300
C41	C4	0.029700	0.962200	0.087800
C51	C5	0.092900	0.965000	0.045800
C61	C6	0.175470	0.941530	0.041930
C71	C7	0.235240	0.949350	0.998770
C81	C8	0.445120	0.914340	0.945820
C91	C9	0.510740	0.922430	0.902890
C101	C10	0.589500	0.885400	0.891400
C111	C11	0.398000	0.806400	0.960000
C121	C12	0.340500	0.748500	0.965300
C131	C13	0.484600	0.740400	0.901800
C141	C14	0.334970	0.971120	0.825940
C151	C15	0.319700	0.945720	0.794480
C161	C16	0.357310	0.945200	0.747580
C171	C17	0.414740	0.970550	0.729770
C181	C18	0.432990	0.994820	0.760200
C191	C19	0.394850	0.997340	0.806360
C201	C20	0.413840	0.026610	0.836110
C211	C21	0.351500	0.066290	0.947110
C221	C22	0.356490	0.102420	0.978400
C231	C23	0.275000	0.127500	0.010700
C241	C24	0.128100	0.081600	0.951000
C251	C25	0.062700	0.121800	0.950400
C261	C26	0.054100	0.136600	0.905600
C271	C27	0.109400	0.119600	0.872000
C281	C28	0.172300	0.080500	0.876700
C291	C29	0.980100	0.179700	0.899100
C301	C30	0.550000	0.815720	0.152480
C311	C31	0.588040	0.778770	0.176150
C321	C32	0.586440	0.734390	0.170930
C331	C33	0.546570	0.724720	0.140140
C341	C34	0.510290	0.760670	0.115950
C351	C35	0.509430	0.806890	0.120450
C361	C36	0.467460	0.842980	0.093700
C371	C37	0.403150	0.961420	0.086080
C381	C38	0.351200	0.001520	0.065080
C391	C39	0.257000	0.019800	0.103200
C401	C40	0.703610	0.254560	0.915820
C411	C41	0.768800	0.217500	0.921500
C421	C42	0.839300	0.226400	0.928000
C431	C43	0.837300	0.272300	0.927300
C441	C44	0.770830	0.306450	0.922290
C451	C45	0.910000	0.187200	0.934600
C461	C46	0.686310	0.588680	0.422500
C471	C47	0.661400	0.589900	0.382100
C481	C48	0.611600	0.564700	0.377700
C491	C49	0.579700	0.537800	0.412200
C501	C50	0.603700	0.535000	0.454200
C511	C51	0.658930	0.558470	0.458070
C521	C52	0.683360	0.550650	0.501230
C531	C53	0.805280	0.585660	0.554180
C541	C54	0.836060	0.577570	0.597110
C551	C55	0.866300	0.614600	0.608600
C561	C56	0.664400	0.693600	0.540000
C571	C57	0.554300	0.751500	0.534700
C581	C58	0.626800	0.759600	0.598200
C591	C59	0.632030	0.528880	0.674060
C601	C60	0.559900	0.554280	0.705520
C611	C61	0.550090	0.554800	0.752420
C621	C62	0.615060	0.529450	0.770230
C631	C63	0.688010	0.505180	0.739800
C641	C64	0.698550	0.502660	0.693640
C651	C65	0.776560	0.473390	0.663890
C661	C66	0.864900	0.433710	0.552890
C671	C67	0.937310	0.397580	0.521600
C681	C68	0.913200	0.372500	0.489300
C691	C69	0.660700	0.418400	0.549000
C701	C70	0.634900	0.378200	0.549600
C711	C71	0.596300	0.363400	0.594400
C721	C72	0.601000	0.380400	0.628000
C731	C73	0.629500	0.419500	0.623300
C741	C74	0.558900	0.320300	0.600900
C751	C75	0.018200	0.684280	0.347520
C761	C76	0.042960	0.721230	0.323850
C771	C77	0.991760	0.765610	0.329070
C781	C78	0.911430	0.775280	0.359860
C791	C79	0.886910	0.739330	0.384050
C801	C80	0.936770	0.693110	0.379550
C811	C81	0.904140	0.657020	0.406300
C821	C82	0.950650	0.538580	0.413920
C831	C83	0.917800	0.498480	0.434920
C841	C84	0.880000	0.480200	0.396800
C851	C85	0.373990	0.245440	0.584180
C861	C86	0.407800	0.282500	0.578500
C871	C87	0.493700	0.273600	0.572000
C881	C88	0.536900	0.227700	0.572700
C891	C89	0.499570	0.193550	0.577710
C901	C90	0.531800	0.312800	0.565400
C911	C91	0.274990	0.922500	0.411320
C921	C92	0.251300	0.882100	0.410100
C931	C93	0.176300	0.877700	0.435300
C941	C94	0.117500	0.912200	0.462200
C951	C95	0.138700	0.954200	0.465000
C961	C96	0.217400	0.958070	0.441530
C971	C97	0.234010	0.001230	0.449350
C981	C98	0.390940	0.054180	0.414340
C991	C99	0.413630	0.097110	0.422430
C1001	C100	0.480900	0.108600	0.385400
C1011	C101	0.358000	0.040000	0.306400
C1021	C102	0.305800	0.034700	0.248500
C1031	C103	0.386400	0.098200	0.240400
C1041	C104	0.160910	0.174060	0.471120
C1051	C105	0.114180	0.205520	0.445720
C1061	C106	0.104890	0.252420	0.445200
C1071	C107	0.144510	0.270230	0.470550
C1081	C108	0.193190	0.239800	0.494820
C1091	C109	0.201210	0.193640	0.497340
C1101	C110	0.249950	0.163890	0.526610
C1111	C111	0.298610	0.052890	0.566290
C1121	C112	0.334890	0.021600	0.602420
C1131	C113	0.285700	0.989300	0.627500
C1141	C114	0.079100	0.049000	0.581600
C1151	C115	0.013100	0.049600	0.621800
C1161	C116	0.959700	0.094400	0.636600
C1171	C117	0.981400	0.128000	0.619600
C1181	C118	0.049000	0.123300	0.580500
C1191	C119	0.879200	0.100900	0.679700
C1201	C120	0.702480	0.847520	0.315720
C1211	C121	0.764190	0.823850	0.278770
C1221	C122	0.757370	0.829070	0.234390
C1231	C123	0.686710	0.859860	0.224720
C1241	C124	0.626240	0.884050	0.260670
C1251	C125	0.629880	0.879550	0.306890
C1261	C126	0.561160	0.906300	0.342980
C1271	C127	0.489230	0.913920	0.461420
C1281	C128	0.416280	0.934920	0.501520
C1291	C129	0.360200	0.896800	0.519800
C1301	C130	0.619430	0.084180	0.754560
C1311	C131	0.690300	0.078500	0.717500
C1321	C132	0.767300	0.072000	0.726400
C1331	C133	0.764600	0.072700	0.772300
C1341	C134	0.693120	0.077710	0.806450
C1351	C135	0.844600	0.065400	0.687200
C1361	C136	0.108810	0.577500	0.088680
C1371	C137	0.043500	0.617900	0.089900
C1381	C138	0.989300	0.622300	0.064700
C1391	C139	0.991900	0.587800	0.037800
C1401	C140	0.057900	0.545800	0.035000
C1411	C141	0.117000	0.541930	0.058470
C1421	C142	0.184590	0.498770	0.050650
C1431	C143	0.359460	0.445820	0.085660
C1441	C144	0.433170	0.402890	0.077570
C1451	C145	0.474900	0.391400	0.114600
C1461	C146	0.204400	0.460000	0.193600
C1471	C147	0.089000	0.465300	0.251500
C1481	C148	0.225000	0.401800	0.259600
C1491	C149	0.306090	0.325940	0.028880
C1501	C150	0.265420	0.294480	0.054280
C1511	C151	0.302510	0.247580	0.054800
C1521	C152	0.385290	0.229770	0.029450
C1531	C153	0.427810	0.260200	0.005180
C1541	C154	0.392190	0.306360	0.002660
C1551	C155	0.440450	0.336110	0.973390
C1561	C156	0.417790	0.447110	0.933710
C1571	C157	0.458910	0.478400	0.897580
C1581	C158	0.402500	0.510700	0.872500
C1591	C159	0.209700	0.451000	0.918400
C1601	C160	0.184500	0.450400	0.878200
C1611	C161	0.190700	0.405600	0.863400
C1621	C162	0.229000	0.372000	0.880400
C1631	C163	0.252800	0.376700	0.919500
C1641	C164	0.159800	0.399100	0.820300
C1651	C165	0.365720	0.652480	0.184280
C1661	C166	0.366810	0.676150	0.221230
C1671	C167	0.320830	0.670930	0.265610
C1681	C168	0.271290	0.640140	0.275280
C1691	C169	0.270960	0.615950	0.239330
C1701	C170	0.316320	0.620450	0.193110
C1711	C171	0.310440	0.593700	0.157020
C1721	C172	0.364570	0.586080	0.038580
C1731	C173	0.352720	0.565080	0.998480
C1741	C174	0.276800	0.603200	0.980200
C1751	C175	0.958170	0.415820	0.745440
C1761	C176	0.986300	0.421500	0.782500
C1771	C177	0.065700	0.428000	0.773600
C1781	C178	0.109600	0.427300	0.727700
C1791	C179	0.077280	0.422290	0.693550
C1801	C180	0.097200	0.434600	0.812800
C1811	C181	0.802510	0.088680	0.922500
C1821	C182	0.866600	0.089900	0.882100
C1831	C183	0.946000	0.064700	0.877700
C1841	C184	0.970300	0.037800	0.912200
C1851	C185	0.907100	0.035000	0.954200
C1861	C186	0.824530	0.058470	0.958070
C1871	C187	0.764760	0.050650	0.001230
C1881	C188	0.554880	0.085660	0.054180
C1891	C189	0.489260	0.077570	0.097110
C1901	C190	0.410500	0.114600	0.108600
C1911	C191	0.602000	0.193600	0.040000
C1921	C192	0.659500	0.251500	0.034700
C1931	C193	0.515400	0.259600	0.098200
C1941	C194	0.665030	0.028880	0.174060
C1951	C195	0.680300	0.054280	0.205520
C1961	C196	0.642690	0.054800	0.252420
C1971	C197	0.585260	0.029450	0.270230
C1981	C198	0.567010	0.005180	0.239800
C1991	C199	0.605150	0.002660	0.193640
C2001	C200	0.586160	0.973390	0.163890
C2011	C201	0.648500	0.933710	0.052890
C2021	C202	0.643510	0.897580	0.021600
C2031	C203	0.725000	0.872500	0.989300
C2041	C204	0.871900	0.918400	0.049000
C2051	C205	0.937300	0.878200	0.049600
C2061	C206	0.945900	0.863400	0.094400
C2071	C207	0.890600	0.880400	0.128000
C2081	C208	0.827700	0.919500	0.123300
C2091	C209	0.019900	0.820300	0.100900
C2101	C210	0.450000	0.184280	0.847520
C2111	C211	0.411960	0.221230	0.823850
C2121	C212	0.413560	0.265610	0.829070
C2131	C213	0.453430	0.275280	0.859860
C2141	C214	0.489710	0.239330	0.884050
C2151	C215	0.490570	0.193110	0.879550
C2161	C216	0.532540	0.157020	0.906300
C2171	C217	0.596850	0.038580	0.913920
C2181	C218	0.648800	0.998480	0.934920
C2191	C219	0.743000	0.980200	0.896800
C2201	C220	0.296390	0.745440	0.084180
C2211	C221	0.231200	0.782500	0.078500
C2221	C222	0.160700	0.773600	0.072000
C2231	C223	0.162700	0.727700	0.072700
C2241	C224	0.229170	0.693550	0.077710
C2251	C225	0.090000	0.812800	0.065400
C2261	C226	0.313690	0.411320	0.577500
C2271	C227	0.338600	0.410100	0.617900
C2281	C228	0.388400	0.435300	0.622300
C2291	C229	0.420300	0.462200	0.587800
C2301	C230	0.396300	0.465000	0.545800
C2311	C231	0.341070	0.441530	0.541930
C2321	C232	0.316640	0.449350	0.498770
C2331	C233	0.194720	0.414340	0.445820
C2341	C234	0.163940	0.422430	0.402890
C2351	C235	0.133700	0.385400	0.391400
C2361	C236	0.335600	0.306400	0.460000
C2371	C237	0.445700	0.248500	0.465300
C2381	C238	0.373200	0.240400	0.401800
C2391	C239	0.367970	0.471120	0.325940
C2401	C240	0.440100	0.445720	0.294480
C2411	C241	0.449910	0.445200	0.247580
C2421	C242	0.384940	0.470550	0.229770
C2431	C243	0.311990	0.494820	0.260200
C2441	C244	0.301450	0.497340	0.306360
C2451	C245	0.223440	0.526610	0.336110
C2461	C246	0.135100	0.566290	0.447110
C2471	C247	0.062690	0.602420	0.478400
C2481	C248	0.086800	0.627500	0.510700
C2491	C249	0.339300	0.581600	0.451000
C2501	C250	0.365100	0.621800	0.450400
C2511	C251	0.403700	0.636600	0.405600
C2521	C252	0.399000	0.619600	0.372000
C2531	C253	0.370500	0.580500	0.376700
C2541	C254	0.441100	0.679700	0.399100
C2551	C255	0.981800	0.315720	0.652480
C2561	C256	0.957040	0.278770	0.676150
C2571	C257	0.008240	0.234390	0.670930
C2581	C258	0.088570	0.224720	0.640140
C2591	C259	0.113090	0.260670	0.615950
C2601	C260	0.063230	0.306890	0.620450
C2611	C261	0.095860	0.342980	0.593700
C2621	C262	0.049350	0.461420	0.586080
C2631	C263	0.082200	0.501520	0.565080
C2641	C264	0.120000	0.519800	0.603200
C2651	C265	0.626010	0.754560	0.415820
C2661	C266	0.592200	0.717500	0.421500
C2671	C267	0.506300	0.726400	0.428000
C2681	C268	0.463100	0.772300	0.427300
C2691	C269	0.500430	0.806450	0.422290
C2701	C270	0.468200	0.687200	0.434600
C2711	C271	0.725010	0.077500	0.588680
C2721	C272	0.748700	0.117900	0.589900
C2731	C273	0.823700	0.122300	0.564700
C2741	C274	0.882500	0.087800	0.537800
C2751	C275	0.861300	0.045800	0.535000
C2761	C276	0.782600	0.041930	0.558470
C2771	C277	0.765990	0.998770	0.550650
C2781	C278	0.609060	0.945820	0.585660
C2791	C279	0.586370	0.902890	0.577570
C2801	C280	0.519100	0.891400	0.614600
C2811	C281	0.642000	0.960000	0.693600
C2821	C282	0.694200	0.965300	0.751500
C2831	C283	0.613600	0.901800	0.759600
C2841	C284	0.839090	0.825940	0.528880
C2851	C285	0.885820	0.794480	0.554280
C2861	C286	0.895110	0.747580	0.554800
C2871	C287	0.855490	0.729770	0.529450
C2881	C288	0.806810	0.760200	0.505180
C2891	C289	0.798790	0.806360	0.502660
C2901	C290	0.750050	0.836110	0.473390
C2911	C291	0.701390	0.947110	0.433710
C2921	C292	0.665110	0.978400	0.397580
C2931	C293	0.714300	0.010700	0.372500
C2941	C294	0.920900	0.951000	0.418400
C2951	C295	0.986900	0.950400	0.378200
C2961	C296	0.040300	0.905600	0.363400
C2971	C297	0.018600	0.872000	0.380400
C2981	C298	0.951000	0.876700	0.419500
C2991	C299	0.120800	0.899100	0.320300
C3001	C300	0.297520	0.152480	0.684280
C3011	C301	0.235810	0.176150	0.721230
C3021	C302	0.242630	0.170930	0.765610
C3031	C303	0.313290	0.140140	0.775280
C3041	C304	0.373760	0.115950	0.739330
C3051	C305	0.370120	0.120450	0.693110
C3061	C306	0.438840	0.093700	0.657020
C3071	C307	0.510770	0.086080	0.538580
C3081	C308	0.583720	0.065080	0.498480
C3091	C309	0.639800	0.103200	0.480200
C3101	C310	0.380570	0.915820	0.245440
C3111	C311	0.309700	0.921500	0.282500
C3121	C312	0.232700	0.928000	0.273600
C3131	C313	0.235400	0.927300	0.227700
C3141	C314	0.306880	0.922290	0.193550
C3151	C315	0.155400	0.934600	0.312800
C3161	C316	0.891190	0.422500	0.911320
C3171	C317	0.956500	0.382100	0.910100
C3181	C318	0.010700	0.377700	0.935300
C3191	C319	0.008100	0.412200	0.962200
C3201	C320	0.942100	0.454200	0.965000
C3211	C321	0.883000	0.458070	0.941530
C3221	C322	0.815410	0.501230	0.949350
C3231	C323	0.640540	0.554180	0.914340
C3241	C324	0.566830	0.597110	0.922430
C3251	C325	0.525100	0.608600	0.885400
C3261	C326	0.795600	0.540000	0.806400
C3271	C327	0.911000	0.534700	0.748500
C3281	C328	0.775000	0.598200	0.740400
C3291	C329	0.693910	0.674060	0.971120
C3301	C330	0.734580	0.705520	0.945720
C3311	C331	0.697490	0.752420	0.945200
C3321	C332	0.614710	0.770230	0.970550
C3331	C333	0.572190	0.739800	0.994820
C3341	C334	0.607810	0.693640	0.997340
C3351	C335	0.559550	0.663890	0.026610
C3361	C336	0.582210	0.552890	0.066290
C3371	C337	0.541090	0.521600	0.102420
C3381	C338	0.597500	0.489300	0.127500
C3391	C339	0.790300	0.549000	0.081600
C3401	C340	0.815500	0.549600	0.121800
C3411	C341	0.809300	0.594400	0.136600
C3421	C342	0.771000	0.628000	0.119600
C3431	C343	0.747200	0.623300	0.080500
C3441	C344	0.840200	0.600900	0.179700
C3451	C345	0.634280	0.347520	0.815720
C3461	C346	0.633190	0.323850	0.778770
C3471	C347	0.679170	0.329070	0.734390
C3481	C348	0.728710	0.359860	0.724720
C3491	C349	0.729040	0.384050	0.760670
C3501	C350	0.683680	0.379550	0.806890
C3511	C351	0.689560	0.406300	0.842980
C3521	C352	0.635430	0.413920	0.961420
C3531	C353	0.647280	0.434920	0.001520
C3541	C354	0.723200	0.396800	0.019800
C3551	C355	0.041830	0.584180	0.254560
C3561	C356	0.013700	0.578500	0.217500
C3571	C357	0.934300	0.572000	0.226400
C3581	C358	0.890400	0.572700	0.272300
C3591	C359	0.922720	0.577710	0.306450
C3601	C360	0.902800	0.565400	0.187200
N11	N1	0.315710	0.927250	0.993330
N21	N2	0.368680	0.938800	0.950840
N31	N3	0.412800	0.755300	0.943100
N41	N4	0.372240	0.032300	0.881220
N51	N5	0.390020	0.065380	0.903980
N61	N6	0.180990	0.061170	0.914250
N71	N7	0.460360	0.887270	0.100210
N81	N8	0.415440	0.919080	0.073640
N91	N9	0.702130	0.298160	0.917180
N101	N10	0.736290	0.572750	0.506670
N111	N11	0.758320	0.561200	0.549160
N121	N12	0.611200	0.744700	0.556900
N131	N13	0.785760	0.467700	0.618780
N141	N14	0.859380	0.434620	0.596020
N151	N15	0.656410	0.438830	0.585750
N161	N16	0.947840	0.612730	0.399790
N171	N17	0.908160	0.580920	0.426360
N181	N18	0.417470	0.201840	0.582820
N191	N19	0.309040	0.006670	0.427250
N201	N20	0.319520	0.049160	0.438800
N211	N21	0.355900	0.056900	0.255300
N221	N22	0.253460	0.118780	0.532300
N231	N23	0.294000	0.096020	0.565380
N241	N24	0.095240	0.085750	0.561170
N251	N25	0.560570	0.899790	0.387270
N261	N26	0.489080	0.926360	0.419080
N271	N27	0.619310	0.082820	0.798160
N281	N28	0.242960	0.493330	0.072750
N291	N29	0.307480	0.450840	0.061200
N301	N30	0.168100	0.443100	0.244700
N311	N31	0.404540	0.381220	0.967700
N321	N32	0.455400	0.403980	0.934620
N331	N33	0.242160	0.414250	0.938830
N341	N34	0.347630	0.600210	0.112730
N351	N35	0.334520	0.573640	0.080920
N361	N36	0.000290	0.417180	0.701840
N371	N37	0.684290	0.072750	0.006670
N381	N38	0.631320	0.061200	0.049160
N391	N39	0.587200	0.244700	0.056900
N401	N40	0.627760	0.967700	0.118780
N411	N41	0.609980	0.934620	0.096020
N421	N42	0.819010	0.938830	0.085750
N431	N43	0.539640	0.112730	0.899790
N441	N44	0.584560	0.080920	0.926360
N451	N45	0.297870	0.701840	0.082820
N461	N46	0.263710	0.427250	0.493330
N471	N47	0.241680	0.438800	0.450840
N481	N48	0.388800	0.255300	0.443100
N491	N49	0.214240	0.532300	0.381220
N501	N50	0.140620	0.565380	0.403980
N511	N51	0.343590	0.561170	0.414250
N521	N52	0.052160	0.387270	0.600210
N531	N53	0.091840	0.419080	0.573640
N541	N54	0.582530	0.798160	0.417180
N551	N55	0.690960	0.993330	0.572750
N561	N56	0.680480	0.950840	0.561200
N571	N57	0.644100	0.943100	0.744700
N581	N58	0.746540	0.881220	0.467700
N591	N59	0.706000	0.903980	0.434620
N601	N60	0.904760	0.914250	0.438830
N611	N61	0.439430	0.100210	0.612730
N621	N62	0.510920	0.073640	0.580920
N631	N63	0.380690	0.917180	0.201840
N641	N64	0.757040	0.506670	0.927250
N651	N65	0.692520	0.549160	0.938800
N661	N66	0.831900	0.556900	0.755300
N671	N67	0.595460	0.618780	0.032300
N681	N68	0.544600	0.596020	0.065380
N691	N69	0.757840	0.585750	0.061170
N701	N70	0.652370	0.399790	0.887270
N711	N71	0.665480	0.426360	0.919080
N721	N72	0.999710	0.582820	0.298160
O11	O1	0.273030	0.883400	0.074740
O21	O2	0.210470	0.977730	0.968730
O31	O3	0.466850	0.883320	0.975580
O41	O4	0.365280	0.818190	0.993250
O51	O5	0.292950	0.970900	0.869800
O61	O6	0.469270	0.048230	0.816830
O71	O7	0.302840	0.040000	0.966520
O81	O8	0.554160	0.858250	0.159830
O91	O9	0.438040	0.831230	0.062890
O101	O10	0.431750	0.971010	0.118690
O111	O11	0.731170	0.616600	0.425260
O121	O12	0.656930	0.522270	0.531270
O131	O13	0.825750	0.616680	0.524420
O141	O14	0.676720	0.681810	0.506750
O151	O15	0.633650	0.529100	0.630200
O161	O16	0.834330	0.451770	0.683170
O171	O17	0.809360	0.460000	0.533480
O181	O18	0.072240	0.641750	0.340170
O191	O19	0.832160	0.668770	0.437110
O201	O20	0.021450	0.528990	0.381310
O211	O21	0.347770	0.925260	0.383400
O221	O22	0.179200	0.031270	0.477730
O231	O23	0.442430	0.024420	0.383320
O241	O24	0.358530	0.006750	0.318190
O251	O25	0.162750	0.130200	0.470900
O261	O26	0.286100	0.183170	0.548230
O271	O27	0.269360	0.033480	0.540000
O281	O28	0.713990	0.840170	0.358250
O291	O29	0.500930	0.937110	0.331230
O301	O30	0.550440	0.881310	0.471010
O311	O31	0.156430	0.574740	0.116600
O321	O32	0.188200	0.468730	0.022270
O331	O33	0.350170	0.475580	0.116680
O341	O34	0.183470	0.493250	0.181810
O351	O35	0.263850	0.369800	0.029100
O361	O36	0.517500	0.316830	0.951770
O371	O37	0.342840	0.466520	0.960000
O381	O38	0.412410	0.659830	0.141750
O391	O39	0.269270	0.562890	0.168770
O401	O40	0.402760	0.618690	0.028990
O411	O41	0.726970	0.116600	0.925260
O421	O42	0.789530	0.022270	0.031270
O431	O43	0.533150	0.116680	0.024420
O441	O44	0.634720	0.181810	0.006750
O451	O45	0.707050	0.029100	0.130200
O461	O46	0.530730	0.951770	0.183170
O471	O47	0.697160	0.960000	0.033480
O481	O48	0.445840	0.141750	0.840170
O491	O49	0.561960	0.168770	0.937110
O501	O50	0.568250	0.028990	0.881310
O511	O51	0.268830	0.383400	0.574740
O521	O52	0.343070	0.477730	0.468730
O531	O53	0.174250	0.383320	0.475580
O541	O54	0.323280	0.318190	0.493250
O551	O55	0.366350	0.470900	0.369800
O561	O56	0.165670	0.548230	0.316830
O571	O57	0.190640	0.540000	0.466520
O581	O58	0.927760	0.358250	0.659830
O591	O59	0.167840	0.331230	0.562890
O601	O60	0.978550	0.471010	0.618690
O611	O61	0.652230	0.074740	0.616600
O621	O62	0.820800	0.968730	0.522270
O631	O63	0.557570	0.975580	0.616680
O641	O64	0.641470	0.993250	0.681810
O651	O65	0.837250	0.869800	0.529100
O661	O66	0.713900	0.816830	0.451770
O671	O67	0.730640	0.966520	0.460000
O681	O68	0.286010	0.159830	0.641750
O691	O69	0.499070	0.062890	0.668770
O701	O70	0.449560	0.118690	0.528990
O711	O71	0.843570	0.425260	0.883400
O721	O72	0.811800	0.531270	0.977730
O731	O73	0.649830	0.524420	0.883320
O741	O74	0.816530	0.506750	0.818190
O751	O75	0.736150	0.630200	0.970900
O761	O76	0.482500	0.683170	0.048230
O771	O77	0.657160	0.533480	0.040000
O781	O78	0.587590	0.340170	0.858250
O791	O79	0.730730	0.437110	0.831230
O801	O80	0.597240	0.381310	0.971010
