data_XALTOV_freeONLY_PM
_symmetry_space_group_name_H-M	'P1'
_cell_length_a	15.366100
_cell_length_b	15.366100
_cell_length_c	15.366100
_cell_angle_alpha	60.000000
_cell_angle_beta	60.000000
_cell_angle_gamma	60.000000
_symmetry_Int_Tables_number 1

loop_
_symmetry_equiv_pos_as_xyz
'x,y,z'

loop_
_atom_site_label
_atom_site_type_symbol
_atom_site_fract_x
_atom_site_fract_y
_atom_site_fract_z
Co11	Co1	0.023300	0.658900	0.658900
Co21	Co2	0.658900	0.023300	0.658900
Co31	Co3	0.658900	0.658900	0.023300
Co41	Co4	0.658900	0.658900	0.658900
Co51	Co5	0.341100	0.976700	0.341100
Co61	Co6	0.976700	0.341100	0.341100
Co71	Co7	0.341100	0.341100	0.976700
Co81	Co8	0.341100	0.341100	0.341100
H11	H1	0.160400	0.839600	0.500000
H21	H2	0.839600	0.160400	0.500000
H31	H3	0.500000	0.500000	0.160400
H41	H4	0.500000	0.500000	0.839600
H51	H5	0.160400	0.500000	0.500000
H61	H6	0.839600	0.500000	0.500000
H71	H7	0.500000	0.160400	0.839600
H81	H8	0.500000	0.839600	0.160400
H91	H9	0.160400	0.500000	0.839600
H101	H10	0.839600	0.500000	0.160400
H111	H11	0.500000	0.839600	0.500000
H121	H12	0.500000	0.160400	0.500000
C11	C1	0.995600	0.899200	0.552600
C21	C2	0.899200	0.995600	0.552600
C31	C3	0.552600	0.552600	0.995600
C41	C4	0.552600	0.552600	0.899200
C51	C5	0.995600	0.552600	0.552600
C61	C6	0.899200	0.552600	0.552600
C71	C7	0.552600	0.995600	0.899200
C81	C8	0.552600	0.899200	0.995600
C91	C9	0.995600	0.552600	0.899200
C101	C10	0.899200	0.552600	0.995600
C111	C11	0.552600	0.899200	0.552600
C121	C12	0.552600	0.995600	0.552600
C131	C13	0.100800	0.004400	0.447400
C141	C14	0.004400	0.100800	0.447400
C151	C15	0.447400	0.447400	0.004400
C161	C16	0.447400	0.447400	0.100800
C171	C17	0.447400	0.004400	0.447400
C181	C18	0.447400	0.100800	0.447400
C191	C19	0.004400	0.447400	0.100800
C201	C20	0.100800	0.447400	0.004400
C211	C21	0.447400	0.004400	0.100800
C221	C22	0.447400	0.100800	0.004400
C231	C23	0.100800	0.447400	0.447400
C241	C24	0.004400	0.447400	0.447400
C251	C25	0.099800	0.900200	0.500000
C261	C26	0.900200	0.099800	0.500000
C271	C27	0.500000	0.500000	0.099800
C281	C28	0.500000	0.500000	0.900200
C291	C29	0.099800	0.500000	0.500000
C301	C30	0.900200	0.500000	0.500000
C311	C31	0.500000	0.099800	0.900200
C321	C32	0.500000	0.900200	0.099800
C331	C33	0.099800	0.500000	0.900200
C341	C34	0.900200	0.500000	0.099800
C351	C35	0.500000	0.900200	0.500000
C361	C36	0.500000	0.099800	0.500000
N11	N1	0.960300	0.815100	0.612300
N21	N2	0.815100	0.960300	0.612300
N31	N3	0.612300	0.612300	0.960300
N41	N4	0.612300	0.612300	0.815100
N51	N5	0.960300	0.612300	0.612300
N61	N6	0.815100	0.612300	0.612300
N71	N7	0.612300	0.960300	0.815100
N81	N8	0.612300	0.815100	0.960300
N91	N9	0.960300	0.612300	0.815100
N101	N10	0.815100	0.612300	0.960300
N111	N11	0.612300	0.815100	0.612300
N121	N12	0.612300	0.960300	0.612300
N131	N13	0.184900	0.039700	0.387700
N141	N14	0.039700	0.184900	0.387700
N151	N15	0.387700	0.387700	0.039700
N161	N16	0.387700	0.387700	0.184900
N171	N17	0.387700	0.039700	0.387700
N181	N18	0.387700	0.184900	0.387700
N191	N19	0.039700	0.387700	0.184900
N201	N20	0.184900	0.387700	0.039700
N211	N21	0.387700	0.039700	0.184900
N221	N22	0.387700	0.184900	0.039700
N231	N23	0.184900	0.387700	0.387700
N241	N24	0.039700	0.387700	0.387700
N251	N25	0.855360	0.855360	0.644640
N261	N26	0.644640	0.644640	0.855360
N271	N27	0.855360	0.644640	0.644640
N281	N28	0.644640	0.855360	0.855360
N291	N29	0.855360	0.644640	0.855360
N301	N30	0.644640	0.855360	0.644640
N311	N31	0.144640	0.144640	0.355360
N321	N32	0.355360	0.355360	0.144640
N331	N33	0.355360	0.144640	0.355360
N341	N34	0.144640	0.355360	0.144640
N351	N35	0.355360	0.144640	0.144640
N361	N36	0.144640	0.355360	0.355360
Cl11	Cl1	0.183800	0.605400	0.605400
Cl21	Cl2	0.605400	0.183800	0.605400
Cl31	Cl3	0.605400	0.605400	0.183800
Cl41	Cl4	0.605400	0.605400	0.605400
Cl51	Cl5	0.394600	0.816200	0.394600
Cl61	Cl6	0.816200	0.394600	0.394600
Cl71	Cl7	0.394600	0.394600	0.816200
Cl81	Cl8	0.394600	0.394600	0.394600
