data_XASFAY_freeONLY_PM
_symmetry_space_group_name_H-M	'P1'
_cell_length_a	13.057000
_cell_length_b	13.263900
_cell_length_c	19.966000
_cell_angle_alpha	82.157300
_cell_angle_beta	73.904900
_cell_angle_gamma	60.514700
_symmetry_Int_Tables_number 1

loop_
_symmetry_equiv_pos_as_xyz
'x,y,z'

loop_
_atom_site_label
_atom_site_type_symbol
_atom_site_fract_x
_atom_site_fract_y
_atom_site_fract_z
Cu11	Cu1	0.500000	0.500000	0.500000
Cu21	Cu2	0.000000	0.500000	0.000000
Cu31	Cu3	0.000000	0.000000	0.000000
Cu41	Cu4	0.000000	0.000000	0.500000
H11	H1	0.510400	0.647400	0.600600
H21	H2	0.630200	0.624400	0.673000
H31	H3	0.807300	0.283800	0.639900
H41	H4	0.687400	0.307000	0.567600
H51	H5	0.826300	0.503600	0.701300
H61	H6	0.882800	0.368800	0.699900
H71	H7	0.845400	0.218800	0.073300
H81	H8	0.666900	0.387200	0.077000
H91	H9	0.609900	0.255800	0.932000
H101	H10	0.793300	0.093600	0.927900
H111	H11	0.454000	0.437600	0.977600
H121	H12	0.443100	0.453800	0.056200
H131	H13	0.708200	0.438400	0.376500
H141	H14	0.817000	0.515600	0.299700
H151	H15	0.618400	0.808200	0.410100
H161	H16	0.514800	0.722000	0.484500
H171	H17	0.807100	0.700800	0.244800
H181	H18	0.877800	0.693200	0.298500
H191	H19	0.826800	0.911200	0.057200
H201	H20	0.726300	0.865400	0.158500
H211	H21	0.886500	0.956800	0.262600
H221	H22	0.976500	0.010000	0.157900
H231	H23	0.657300	0.888800	0.293100
H241	H24	0.753800	0.879000	0.329700
H251	H25	0.842200	0.647400	0.899400
H261	H26	0.745400	0.624400	0.827000
H271	H27	0.908900	0.283800	0.860100
H281	H28	0.005600	0.307000	0.932400
H291	H29	0.670100	0.503600	0.798700
H301	H30	0.748400	0.368800	0.800100
H311	H31	0.935800	0.218800	0.426700
H321	H32	0.945900	0.387200	0.423000
H331	H33	0.134300	0.255800	0.568000
H341	H34	0.113100	0.093600	0.572100
H351	H35	0.108400	0.437600	0.522400
H361	H36	0.103100	0.453800	0.443800
H371	H37	0.853400	0.438400	0.123500
H381	H38	0.667400	0.515600	0.200300
H391	H39	0.573400	0.808200	0.089900
H401	H40	0.763200	0.722000	0.015500
H411	H41	0.492100	0.700800	0.255200
H421	H42	0.429000	0.693200	0.201500
H431	H43	0.262000	0.911200	0.442800
H441	H44	0.408300	0.865400	0.341500
H451	H45	0.156700	0.956800	0.237400
H461	H46	0.013500	0.010000	0.342100
H471	H47	0.453900	0.888800	0.206900
H481	H48	0.367200	0.879000	0.170300
H491	H49	0.489600	0.352600	0.399400
H501	H50	0.369800	0.375600	0.327000
H511	H51	0.192700	0.716200	0.360100
H521	H52	0.312600	0.693000	0.432400
H531	H53	0.173700	0.496400	0.298700
H541	H54	0.117200	0.631200	0.300100
H551	H55	0.154600	0.781200	0.926700
H561	H56	0.333100	0.612800	0.923000
H571	H57	0.390100	0.744200	0.068000
H581	H58	0.206700	0.906400	0.072100
H591	H59	0.546000	0.562400	0.022400
H601	H60	0.556900	0.546200	0.943800
H611	H61	0.291800	0.561600	0.623500
H621	H62	0.183000	0.484400	0.700300
H631	H63	0.381600	0.191800	0.589900
H641	H64	0.485200	0.278000	0.515500
H651	H65	0.192900	0.299200	0.755200
H661	H66	0.122200	0.306800	0.701500
H671	H67	0.173200	0.088800	0.942800
H681	H68	0.273700	0.134600	0.841500
H691	H69	0.113500	0.043200	0.737400
H701	H70	0.023500	0.990000	0.842100
H711	H71	0.342700	0.111200	0.706900
H721	H72	0.246200	0.121000	0.670300
H731	H73	0.157800	0.352600	0.100600
H741	H74	0.254600	0.375600	0.173000
H751	H75	0.091100	0.716200	0.139900
H761	H76	0.994400	0.693000	0.067600
H771	H77	0.329900	0.496400	0.201300
H781	H78	0.251600	0.631200	0.199900
H791	H79	0.064200	0.781200	0.573300
H801	H80	0.054100	0.612800	0.577000
H811	H81	0.865700	0.744200	0.432000
H821	H82	0.886900	0.906400	0.427900
H831	H83	0.891600	0.562400	0.477600
H841	H84	0.896900	0.546200	0.556200
H851	H85	0.146600	0.561600	0.876500
H861	H86	0.332600	0.484400	0.799700
H871	H87	0.426600	0.191800	0.910100
H881	H88	0.236800	0.278000	0.984500
H891	H89	0.507900	0.299200	0.744800
H901	H90	0.571000	0.306800	0.798500
H911	H91	0.738000	0.088800	0.557200
H921	H92	0.591700	0.134600	0.658500
H931	H93	0.843300	0.043200	0.762600
H941	H94	0.986500	0.990000	0.657900
H951	H95	0.546100	0.111200	0.793100
H961	H96	0.632800	0.121000	0.829700
C11	C1	0.570400	0.574000	0.608600
C21	C2	0.641800	0.560200	0.651600
C31	C3	0.730300	0.451800	0.663300
C41	C4	0.747200	0.357400	0.632000
C51	C5	0.675800	0.371200	0.588900
C61	C6	0.807000	0.440400	0.711300
C71	C7	0.798700	0.227800	0.043000
C81	C8	0.690100	0.328200	0.046700
C91	C9	0.616300	0.340200	0.005000
C101	C10	0.657400	0.250800	0.960800
C111	C11	0.768100	0.153400	0.958100
C121	C12	0.493590	0.446420	0.009300
C131	C13	0.688600	0.514600	0.383000
C141	C14	0.754600	0.560600	0.336400
C151	C15	0.728100	0.674000	0.344000
C161	C16	0.637800	0.732800	0.401400
C171	C17	0.575300	0.680400	0.446200
C181	C18	0.797300	0.725800	0.290600
C191	C19	0.840500	0.919600	0.098900
C201	C20	0.781500	0.889800	0.159700
C211	C21	0.802800	0.895400	0.223300
C221	C22	0.874300	0.944400	0.221400
C231	C23	0.929100	0.976000	0.157600
C241	C24	0.743500	0.854200	0.289700
C251	C25	0.855600	0.574000	0.891400
C261	C26	0.798000	0.560200	0.848400
C271	C27	0.817900	0.451800	0.836700
C281	C28	0.895400	0.357400	0.868000
C291	C29	0.953000	0.371200	0.911100
C301	C30	0.752600	0.440400	0.788700
C311	C31	0.973500	0.227800	0.457000
C321	C32	0.981700	0.328200	0.453300
C331	C33	0.043500	0.340200	0.495000
C341	C34	0.091800	0.250800	0.539200
C351	C35	0.078500	0.153400	0.541900
C361	C36	0.059990	0.446420	0.490700
C371	C37	0.796800	0.514600	0.117000
C381	C38	0.684800	0.560600	0.163600
C391	C39	0.597900	0.674000	0.156000
C401	C40	0.629400	0.732800	0.098600
C411	C41	0.744300	0.680400	0.053800
C421	C42	0.476900	0.725800	0.209400
C431	C43	0.239900	0.919600	0.401100
C441	C44	0.328700	0.889800	0.340300
C451	C45	0.301800	0.895400	0.276700
C461	C46	0.181300	0.944400	0.278600
C471	C47	0.094900	0.976000	0.342400
C481	C48	0.402300	0.854200	0.210300
C491	C49	0.429600	0.426000	0.391400
C501	C50	0.358200	0.439800	0.348400
C511	C51	0.269700	0.548200	0.336700
C521	C52	0.252800	0.642600	0.368000
C531	C53	0.324200	0.628800	0.411100
C541	C54	0.193000	0.559600	0.288700
C551	C55	0.201300	0.772200	0.957000
C561	C56	0.309900	0.671800	0.953300
C571	C57	0.383700	0.659800	0.995000
C581	C58	0.342600	0.749200	0.039200
C591	C59	0.231900	0.846600	0.041900
C601	C60	0.506410	0.553580	0.990700
C611	C61	0.311400	0.485400	0.617000
C621	C62	0.245400	0.439400	0.663600
C631	C63	0.271900	0.326000	0.656000
C641	C64	0.362200	0.267200	0.598600
C651	C65	0.424700	0.319600	0.553800
C661	C66	0.202700	0.274200	0.709400
C671	C67	0.159500	0.080400	0.901100
C681	C68	0.218500	0.110200	0.840300
C691	C69	0.197200	0.104600	0.776700
C701	C70	0.125700	0.055600	0.778600
C711	C71	0.070900	0.024000	0.842400
C721	C72	0.256500	0.145800	0.710300
C731	C73	0.144400	0.426000	0.108600
C741	C74	0.202000	0.439800	0.151600
C751	C75	0.182100	0.548200	0.163300
C761	C76	0.104600	0.642600	0.132000
C771	C77	0.047000	0.628800	0.088900
C781	C78	0.247400	0.559600	0.211300
C791	C79	0.026500	0.772200	0.543000
C801	C80	0.018300	0.671800	0.546700
C811	C81	0.956500	0.659800	0.505000
C821	C82	0.908200	0.749200	0.460800
C831	C83	0.921500	0.846600	0.458100
C841	C84	0.940010	0.553580	0.509300
C851	C85	0.203200	0.485400	0.883000
C861	C86	0.315200	0.439400	0.836400
C871	C87	0.402100	0.326000	0.844000
C881	C88	0.370600	0.267200	0.901400
C891	C89	0.255700	0.319600	0.946200
C901	C90	0.523100	0.274200	0.790600
C911	C91	0.760100	0.080400	0.598900
C921	C92	0.671300	0.110200	0.659700
C931	C93	0.698200	0.104600	0.723300
C941	C94	0.818700	0.055600	0.721400
C951	C95	0.905100	0.024000	0.657600
C961	C96	0.597700	0.145800	0.789700
N11	N1	0.587500	0.479400	0.577200
N21	N2	0.840270	0.142660	0.998000
N31	N3	0.598750	0.572700	0.436540
N41	N4	0.917280	0.960240	0.096890
N51	N5	0.933100	0.479400	0.922800
N61	N6	0.017070	0.142660	0.502000
N71	N7	0.828550	0.572700	0.063460
N81	N8	0.122480	0.960240	0.403110
N91	N9	0.412500	0.520600	0.422800
N101	N10	0.159730	0.857340	0.002000
N111	N11	0.401250	0.427300	0.563460
N121	N12	0.082720	0.039760	0.903110
N131	N13	0.066900	0.520600	0.077200
N141	N14	0.982930	0.857340	0.498000
N151	N15	0.171450	0.427300	0.936540
N161	N16	0.877520	0.039760	0.596890
