data_XEDPED_freeONLY_PM
_symmetry_space_group_name_H-M	'P1'
_cell_length_a	18.121000
_cell_length_b	26.884000
_cell_length_c	26.884000
_cell_angle_alpha	120.000000
_cell_angle_beta	90.000000
_cell_angle_gamma	90.000000
_symmetry_Int_Tables_number 1

loop_
_symmetry_equiv_pos_as_xyz
'x,y,z'

loop_
_atom_site_label
_atom_site_type_symbol
_atom_site_fract_x
_atom_site_fract_y
_atom_site_fract_z
Zn11	Zn1	0.416050	0.889430	0.331650
Zn21	Zn2	0.416050	0.442220	0.110570
Zn31	Zn3	0.416050	0.668350	0.557780
Zn41	Zn4	0.916050	0.110570	0.668350
Zn51	Zn5	0.916050	0.557780	0.889430
Zn61	Zn6	0.916050	0.331650	0.442220
Zn71	Zn7	0.583950	0.557780	0.668350
Zn81	Zn8	0.583950	0.331650	0.889430
Zn91	Zn9	0.583950	0.110570	0.442220
Zn101	Zn10	0.083950	0.442220	0.331650
Zn111	Zn11	0.083950	0.668350	0.110570
Zn121	Zn12	0.083950	0.889430	0.557780
Zn131	Zn13	0.583950	0.110570	0.668350
Zn141	Zn14	0.583950	0.557780	0.889430
Zn151	Zn15	0.583950	0.331650	0.442220
Zn161	Zn16	0.083950	0.889430	0.331650
Zn171	Zn17	0.083950	0.442220	0.110570
Zn181	Zn18	0.083950	0.668350	0.557780
Zn191	Zn19	0.416050	0.442220	0.331650
Zn201	Zn20	0.416050	0.668350	0.110570
Zn211	Zn21	0.416050	0.889430	0.557780
Zn221	Zn22	0.916050	0.557780	0.668350
Zn231	Zn23	0.916050	0.331650	0.889430
Zn241	Zn24	0.916050	0.110570	0.442220
H11	H1	0.594300	0.870900	0.301600
H21	H2	0.700000	0.825100	0.259600
H31	H3	0.446100	0.910200	0.222400
H41	H4	0.461800	0.962800	0.176200
H51	H5	0.317700	0.975700	0.308600
H61	H6	0.523200	0.815200	0.361100
H71	H7	0.594300	0.430700	0.129100
H81	H8	0.700000	0.434500	0.174900
H91	H9	0.446100	0.312200	0.089800
H101	H10	0.461800	0.213400	0.037200
H111	H11	0.317700	0.332900	0.024300
H121	H12	0.523200	0.545900	0.184800
H131	H13	0.594300	0.698400	0.569300
H141	H14	0.700000	0.740400	0.565500
H151	H15	0.446100	0.777600	0.687800
H161	H16	0.461800	0.823800	0.786600
H171	H17	0.317700	0.691400	0.667100
H181	H18	0.523200	0.638900	0.454100
H191	H19	0.094300	0.129100	0.698400
H201	H20	0.200000	0.174900	0.740400
H211	H21	0.946100	0.089800	0.777600
H221	H22	0.961800	0.037200	0.823800
H231	H23	0.817700	0.024300	0.691400
H241	H24	0.023200	0.184800	0.638900
H251	H25	0.094300	0.569300	0.870900
H261	H26	0.200000	0.565500	0.825100
H271	H27	0.946100	0.687800	0.910200
H281	H28	0.961800	0.786600	0.962800
H291	H29	0.817700	0.667100	0.975700
H301	H30	0.023200	0.454100	0.815200
H311	H31	0.094300	0.301600	0.430700
H321	H32	0.200000	0.259600	0.434500
H331	H33	0.946100	0.222400	0.312200
H341	H34	0.961800	0.176200	0.213400
H351	H35	0.817700	0.308600	0.332900
H361	H36	0.023200	0.361100	0.545900
H371	H37	0.405700	0.569300	0.698400
H381	H38	0.300000	0.565500	0.740400
H391	H39	0.553900	0.687800	0.777600
H401	H40	0.538200	0.786600	0.823800
H411	H41	0.682300	0.667100	0.691400
H421	H42	0.476800	0.454100	0.638900
H431	H43	0.405700	0.301600	0.870900
H441	H44	0.300000	0.259600	0.825100
H451	H45	0.553900	0.222400	0.910200
H461	H46	0.538200	0.176200	0.962800
H471	H47	0.682300	0.308600	0.975700
H481	H48	0.476800	0.361100	0.815200
H491	H49	0.405700	0.129100	0.430700
H501	H50	0.300000	0.174900	0.434500
H511	H51	0.553900	0.089800	0.312200
H521	H52	0.538200	0.037200	0.213400
H531	H53	0.682300	0.024300	0.332900
H541	H54	0.476800	0.184800	0.545900
H551	H55	0.905700	0.430700	0.301600
H561	H56	0.800000	0.434500	0.259600
H571	H57	0.053900	0.312200	0.222400
H581	H58	0.038200	0.213400	0.176200
H591	H59	0.182300	0.332900	0.308600
H601	H60	0.976800	0.545900	0.361100
H611	H61	0.905700	0.698400	0.129100
H621	H62	0.800000	0.740400	0.174900
H631	H63	0.053900	0.777600	0.089800
H641	H64	0.038200	0.823800	0.037200
H651	H65	0.182300	0.691400	0.024300
H661	H66	0.976800	0.638900	0.184800
H671	H67	0.905700	0.870900	0.569300
H681	H68	0.800000	0.825100	0.565500
H691	H69	0.053900	0.910200	0.687800
H701	H70	0.038200	0.962800	0.786600
H711	H71	0.182300	0.975700	0.667100
H721	H72	0.976800	0.815200	0.454100
H731	H73	0.405700	0.129100	0.698400
H741	H74	0.300000	0.174900	0.740400
H751	H75	0.553900	0.089800	0.777600
H761	H76	0.538200	0.037200	0.823800
H771	H77	0.682300	0.024300	0.691400
H781	H78	0.476800	0.184800	0.638900
H791	H79	0.405700	0.569300	0.870900
H801	H80	0.300000	0.565500	0.825100
H811	H81	0.553900	0.687800	0.910200
H821	H82	0.538200	0.786600	0.962800
H831	H83	0.682300	0.667100	0.975700
H841	H84	0.476800	0.454100	0.815200
H851	H85	0.405700	0.301600	0.430700
H861	H86	0.300000	0.259600	0.434500
H871	H87	0.553900	0.222400	0.312200
H881	H88	0.538200	0.176200	0.213400
H891	H89	0.682300	0.308600	0.332900
H901	H90	0.476800	0.361100	0.545900
H911	H91	0.905700	0.870900	0.301600
H921	H92	0.800000	0.825100	0.259600
H931	H93	0.053900	0.910200	0.222400
H941	H94	0.038200	0.962800	0.176200
H951	H95	0.182300	0.975700	0.308600
H961	H96	0.976800	0.815200	0.361100
H971	H97	0.905700	0.430700	0.129100
H981	H98	0.800000	0.434500	0.174900
H991	H99	0.053900	0.312200	0.089800
H1001	H100	0.038200	0.213400	0.037200
H1011	H101	0.182300	0.332900	0.024300
H1021	H102	0.976800	0.545900	0.184800
H1031	H103	0.905700	0.698400	0.569300
H1041	H104	0.800000	0.740400	0.565500
H1051	H105	0.053900	0.777600	0.687800
H1061	H106	0.038200	0.823800	0.786600
H1071	H107	0.182300	0.691400	0.667100
H1081	H108	0.976800	0.638900	0.454100
H1091	H109	0.594300	0.430700	0.301600
H1101	H110	0.700000	0.434500	0.259600
H1111	H111	0.446100	0.312200	0.222400
H1121	H112	0.461800	0.213400	0.176200
H1131	H113	0.317700	0.332900	0.308600
H1141	H114	0.523200	0.545900	0.361100
H1151	H115	0.594300	0.698400	0.129100
H1161	H116	0.700000	0.740400	0.174900
H1171	H117	0.446100	0.777600	0.089800
H1181	H118	0.461800	0.823800	0.037200
H1191	H119	0.317700	0.691400	0.024300
H1201	H120	0.523200	0.638900	0.184800
H1211	H121	0.594300	0.870900	0.569300
H1221	H122	0.700000	0.825100	0.565500
H1231	H123	0.446100	0.910200	0.687800
H1241	H124	0.461800	0.962800	0.786600
H1251	H125	0.317700	0.975700	0.667100
H1261	H126	0.523200	0.815200	0.454100
H1271	H127	0.094300	0.569300	0.698400
H1281	H128	0.200000	0.565500	0.740400
H1291	H129	0.946100	0.687800	0.777600
H1301	H130	0.961800	0.786600	0.823800
H1311	H131	0.817700	0.667100	0.691400
H1321	H132	0.023200	0.454100	0.638900
H1331	H133	0.094300	0.301600	0.870900
H1341	H134	0.200000	0.259600	0.825100
H1351	H135	0.946100	0.222400	0.910200
H1361	H136	0.961800	0.176200	0.962800
H1371	H137	0.817700	0.308600	0.975700
H1381	H138	0.023200	0.361100	0.815200
H1391	H139	0.094300	0.129100	0.430700
H1401	H140	0.200000	0.174900	0.434500
H1411	H141	0.946100	0.089800	0.312200
H1421	H142	0.961800	0.037200	0.213400
H1431	H143	0.817700	0.024300	0.332900
H1441	H144	0.023200	0.184800	0.545900
H1451	H145	0.366500	0.775100	0.224900
H1461	H146	0.366500	0.449800	0.224900
H1471	H147	0.366500	0.775100	0.550200
H1481	H148	0.866500	0.224900	0.775100
H1491	H149	0.866500	0.550200	0.775100
H1501	H150	0.866500	0.224900	0.449800
H1511	H151	0.633500	0.550200	0.775100
H1521	H152	0.633500	0.224900	0.775100
H1531	H153	0.633500	0.224900	0.449800
H1541	H154	0.133500	0.449800	0.224900
H1551	H155	0.133500	0.775100	0.224900
H1561	H156	0.133500	0.775100	0.550200
H1571	H157	0.500000	0.000000	0.422800
H1581	H158	0.500000	0.422800	0.000000
H1591	H159	0.500000	0.577200	0.577200
H1601	H160	0.000000	0.000000	0.577200
H1611	H161	0.000000	0.577200	0.000000
H1621	H162	0.000000	0.422800	0.422800
H1631	H163	0.500000	0.000000	0.577200
H1641	H164	0.500000	0.577200	0.000000
H1651	H165	0.500000	0.422800	0.422800
H1661	H166	0.000000	0.000000	0.422800
H1671	H167	0.000000	0.422800	0.000000
H1681	H168	0.000000	0.577200	0.577200
C11	C1	0.527800	0.808800	0.244400
C21	C2	0.592900	0.834500	0.267500
C31	C3	0.654200	0.808200	0.242000
C41	C4	0.479200	0.974700	0.297800
C51	C5	0.465600	0.948100	0.242000
C61	C6	0.480600	0.977000	0.214000
C71	C7	0.287400	0.948700	0.311900
C81	C8	0.493600	0.839100	0.393700
C91	C9	0.527800	0.435600	0.191200
C101	C10	0.592900	0.433000	0.165500
C111	C11	0.654200	0.433800	0.191800
C121	C12	0.479200	0.323100	0.025300
C131	C13	0.465600	0.293900	0.051900
C141	C14	0.480600	0.237000	0.023000
C151	C15	0.287400	0.363200	0.051300
C161	C16	0.493600	0.554600	0.160900
C171	C17	0.527800	0.755600	0.564400
C181	C18	0.592900	0.732500	0.567000
C191	C19	0.654200	0.758000	0.566200
C201	C20	0.479200	0.702200	0.676900
C211	C21	0.465600	0.758000	0.706100
C221	C22	0.480600	0.786000	0.763000
C231	C23	0.287400	0.688100	0.636800
C241	C24	0.493600	0.606300	0.445400
C251	C25	0.027800	0.191200	0.755600
C261	C26	0.092900	0.165500	0.732500
C271	C27	0.154200	0.191800	0.758000
C281	C28	0.979200	0.025300	0.702200
C291	C29	0.965600	0.051900	0.758000
C301	C30	0.980600	0.023000	0.786000
C311	C31	0.787400	0.051300	0.688100
C321	C32	0.993600	0.160900	0.606300
C331	C33	0.027800	0.564400	0.808800
C341	C34	0.092900	0.567000	0.834500
C351	C35	0.154200	0.566200	0.808200
C361	C36	0.979200	0.676900	0.974700
C371	C37	0.965600	0.706100	0.948100
C381	C38	0.980600	0.763000	0.977000
C391	C39	0.787400	0.636800	0.948700
C401	C40	0.993600	0.445400	0.839100
C411	C41	0.027800	0.244400	0.435600
C421	C42	0.092900	0.267500	0.433000
C431	C43	0.154200	0.242000	0.433800
C441	C44	0.979200	0.297800	0.323100
C451	C45	0.965600	0.242000	0.293900
C461	C46	0.980600	0.214000	0.237000
C471	C47	0.787400	0.311900	0.363200
C481	C48	0.993600	0.393700	0.554600
C491	C49	0.472200	0.564400	0.755600
C501	C50	0.407100	0.567000	0.732500
C511	C51	0.345800	0.566200	0.758000
C521	C52	0.520800	0.676900	0.702200
C531	C53	0.534400	0.706100	0.758000
C541	C54	0.519400	0.763000	0.786000
C551	C55	0.712600	0.636800	0.688100
C561	C56	0.506400	0.445400	0.606300
C571	C57	0.472200	0.244400	0.808800
C581	C58	0.407100	0.267500	0.834500
C591	C59	0.345800	0.242000	0.808200
C601	C60	0.520800	0.297800	0.974700
C611	C61	0.534400	0.242000	0.948100
C621	C62	0.519400	0.214000	0.977000
C631	C63	0.712600	0.311900	0.948700
C641	C64	0.506400	0.393700	0.839100
C651	C65	0.472200	0.191200	0.435600
C661	C66	0.407100	0.165500	0.433000
C671	C67	0.345800	0.191800	0.433800
C681	C68	0.520800	0.025300	0.323100
C691	C69	0.534400	0.051900	0.293900
C701	C70	0.519400	0.023000	0.237000
C711	C71	0.712600	0.051300	0.363200
C721	C72	0.506400	0.160900	0.554600
C731	C73	0.972200	0.435600	0.244400
C741	C74	0.907100	0.433000	0.267500
C751	C75	0.845800	0.433800	0.242000
C761	C76	0.020800	0.323100	0.297800
C771	C77	0.034400	0.293900	0.242000
C781	C78	0.019400	0.237000	0.214000
C791	C79	0.212600	0.363200	0.311900
C801	C80	0.006400	0.554600	0.393700
C811	C81	0.972200	0.755600	0.191200
C821	C82	0.907100	0.732500	0.165500
C831	C83	0.845800	0.758000	0.191800
C841	C84	0.020800	0.702200	0.025300
C851	C85	0.034400	0.758000	0.051900
C861	C86	0.019400	0.786000	0.023000
C871	C87	0.212600	0.688100	0.051300
C881	C88	0.006400	0.606300	0.160900
C891	C89	0.972200	0.808800	0.564400
C901	C90	0.907100	0.834500	0.567000
C911	C91	0.845800	0.808200	0.566200
C921	C92	0.020800	0.974700	0.676900
C931	C93	0.034400	0.948100	0.706100
C941	C94	0.019400	0.977000	0.763000
C951	C95	0.212600	0.948700	0.636800
C961	C96	0.006400	0.839100	0.445400
C971	C97	0.472200	0.191200	0.755600
C981	C98	0.407100	0.165500	0.732500
C991	C99	0.345800	0.191800	0.758000
C1001	C100	0.520800	0.025300	0.702200
C1011	C101	0.534400	0.051900	0.758000
C1021	C102	0.519400	0.023000	0.786000
C1031	C103	0.712600	0.051300	0.688100
C1041	C104	0.506400	0.160900	0.606300
C1051	C105	0.472200	0.564400	0.808800
C1061	C106	0.407100	0.567000	0.834500
C1071	C107	0.345800	0.566200	0.808200
C1081	C108	0.520800	0.676900	0.974700
C1091	C109	0.534400	0.706100	0.948100
C1101	C110	0.519400	0.763000	0.977000
C1111	C111	0.712600	0.636800	0.948700
C1121	C112	0.506400	0.445400	0.839100
C1131	C113	0.472200	0.244400	0.435600
C1141	C114	0.407100	0.267500	0.433000
C1151	C115	0.345800	0.242000	0.433800
C1161	C116	0.520800	0.297800	0.323100
C1171	C117	0.534400	0.242000	0.293900
C1181	C118	0.519400	0.214000	0.237000
C1191	C119	0.712600	0.311900	0.363200
C1201	C120	0.506400	0.393700	0.554600
C1211	C121	0.972200	0.808800	0.244400
C1221	C122	0.907100	0.834500	0.267500
C1231	C123	0.845800	0.808200	0.242000
C1241	C124	0.020800	0.974700	0.297800
C1251	C125	0.034400	0.948100	0.242000
C1261	C126	0.019400	0.977000	0.214000
C1271	C127	0.212600	0.948700	0.311900
C1281	C128	0.006400	0.839100	0.393700
C1291	C129	0.972200	0.435600	0.191200
C1301	C130	0.907100	0.433000	0.165500
C1311	C131	0.845800	0.433800	0.191800
C1321	C132	0.020800	0.323100	0.025300
C1331	C133	0.034400	0.293900	0.051900
C1341	C134	0.019400	0.237000	0.023000
C1351	C135	0.212600	0.363200	0.051300
C1361	C136	0.006400	0.554600	0.160900
C1371	C137	0.972200	0.755600	0.564400
C1381	C138	0.907100	0.732500	0.567000
C1391	C139	0.845800	0.758000	0.566200
C1401	C140	0.020800	0.702200	0.676900
C1411	C141	0.034400	0.758000	0.706100
C1421	C142	0.019400	0.786000	0.763000
C1431	C143	0.212600	0.688100	0.636800
C1441	C144	0.006400	0.606300	0.445400
C1451	C145	0.527800	0.435600	0.244400
C1461	C146	0.592900	0.433000	0.267500
C1471	C147	0.654200	0.433800	0.242000
C1481	C148	0.479200	0.323100	0.297800
C1491	C149	0.465600	0.293900	0.242000
C1501	C150	0.480600	0.237000	0.214000
C1511	C151	0.287400	0.363200	0.311900
C1521	C152	0.493600	0.554600	0.393700
C1531	C153	0.527800	0.755600	0.191200
C1541	C154	0.592900	0.732500	0.165500
C1551	C155	0.654200	0.758000	0.191800
C1561	C156	0.479200	0.702200	0.025300
C1571	C157	0.465600	0.758000	0.051900
C1581	C158	0.480600	0.786000	0.023000
C1591	C159	0.287400	0.688100	0.051300
C1601	C160	0.493600	0.606300	0.160900
C1611	C161	0.527800	0.808800	0.564400
C1621	C162	0.592900	0.834500	0.567000
C1631	C163	0.654200	0.808200	0.566200
C1641	C164	0.479200	0.974700	0.676900
C1651	C165	0.465600	0.948100	0.706100
C1661	C166	0.480600	0.977000	0.763000
C1671	C167	0.287400	0.948700	0.636800
C1681	C168	0.493600	0.839100	0.445400
C1691	C169	0.027800	0.564400	0.755600
C1701	C170	0.092900	0.567000	0.732500
C1711	C171	0.154200	0.566200	0.758000
C1721	C172	0.979200	0.676900	0.702200
C1731	C173	0.965600	0.706100	0.758000
C1741	C174	0.980600	0.763000	0.786000
C1751	C175	0.787400	0.636800	0.688100
C1761	C176	0.993600	0.445400	0.606300
C1771	C177	0.027800	0.244400	0.808800
C1781	C178	0.092900	0.267500	0.834500
C1791	C179	0.154200	0.242000	0.808200
C1801	C180	0.979200	0.297800	0.974700
C1811	C181	0.965600	0.242000	0.948100
C1821	C182	0.980600	0.214000	0.977000
C1831	C183	0.787400	0.311900	0.948700
C1841	C184	0.993600	0.393700	0.839100
C1851	C185	0.027800	0.191200	0.435600
C1861	C186	0.092900	0.165500	0.433000
C1871	C187	0.154200	0.191800	0.433800
C1881	C188	0.979200	0.025300	0.323100
C1891	C189	0.965600	0.051900	0.293900
C1901	C190	0.980600	0.023000	0.237000
C1911	C191	0.787400	0.051300	0.363200
C1921	C192	0.993600	0.160900	0.554600
C1931	C193	0.418600	0.777550	0.222450
C1941	C194	0.418600	0.444900	0.222450
C1951	C195	0.418600	0.777550	0.555100
C1961	C196	0.918600	0.222450	0.777550
C1971	C197	0.918600	0.555100	0.777550
C1981	C198	0.918600	0.222450	0.444900
C1991	C199	0.581400	0.555100	0.777550
C2001	C200	0.581400	0.222450	0.777550
C2011	C201	0.581400	0.222450	0.444900
C2021	C202	0.081400	0.444900	0.222450
C2031	C203	0.081400	0.777550	0.222450
C2041	C204	0.081400	0.777550	0.555100
C2051	C205	0.500000	0.000000	0.387400
C2061	C206	0.500000	0.387400	0.000000
C2071	C207	0.500000	0.612600	0.612600
C2081	C208	0.000000	0.000000	0.612600
C2091	C209	0.000000	0.612600	0.000000
C2101	C210	0.000000	0.387400	0.387400
C2111	C211	0.500000	0.000000	0.612600
C2121	C212	0.500000	0.612600	0.000000
C2131	C213	0.500000	0.387400	0.387400
C2141	C214	0.000000	0.000000	0.387400
C2151	C215	0.000000	0.387400	0.000000
C2161	C216	0.000000	0.612600	0.612600
C2171	C217	0.250000	0.879100	0.319300
C2181	C218	0.250000	0.440200	0.120900
C2191	C219	0.250000	0.680700	0.559800
C2201	C220	0.750000	0.120900	0.680700
C2211	C221	0.750000	0.559800	0.879100
C2221	C222	0.750000	0.319300	0.440200
C2231	C223	0.750000	0.559800	0.680700
C2241	C224	0.750000	0.319300	0.879100
C2251	C225	0.750000	0.120900	0.440200
C2261	C226	0.250000	0.440200	0.319300
C2271	C227	0.250000	0.680700	0.120900
C2281	C228	0.250000	0.879100	0.559800
C2291	C229	0.418900	0.900800	0.450400
C2301	C230	0.418900	0.549600	0.099200
C2311	C231	0.418900	0.549600	0.450400
C2321	C232	0.918900	0.099200	0.549600
C2331	C233	0.918900	0.450400	0.900800
C2341	C234	0.918900	0.450400	0.549600
C2351	C235	0.581100	0.450400	0.549600
C2361	C236	0.581100	0.450400	0.900800
C2371	C237	0.581100	0.099200	0.549600
C2381	C238	0.081100	0.549600	0.450400
C2391	C239	0.081100	0.549600	0.099200
C2401	C240	0.081100	0.900800	0.450400
N11	N1	0.458300	0.821000	0.262300
N21	N2	0.471300	0.958800	0.338000
N31	N3	0.311500	0.905500	0.317300
N41	N4	0.445900	0.877500	0.397300
N51	N5	0.458300	0.441300	0.179000
N61	N6	0.471300	0.379200	0.041200
N71	N7	0.311500	0.411800	0.094500
N81	N8	0.445900	0.519800	0.122500
N91	N9	0.458300	0.737700	0.558700
N101	N10	0.471300	0.662000	0.620800
N111	N11	0.311500	0.682700	0.588200
N121	N12	0.445900	0.602700	0.480200
N131	N13	0.958300	0.179000	0.737700
N141	N14	0.971300	0.041200	0.662000
N151	N15	0.811500	0.094500	0.682700
N161	N16	0.945900	0.122500	0.602700
N171	N17	0.958300	0.558700	0.821000
N181	N18	0.971300	0.620800	0.958800
N191	N19	0.811500	0.588200	0.905500
N201	N20	0.945900	0.480200	0.877500
N211	N21	0.958300	0.262300	0.441300
N221	N22	0.971300	0.338000	0.379200
N231	N23	0.811500	0.317300	0.411800
N241	N24	0.945900	0.397300	0.519800
N251	N25	0.541700	0.558700	0.737700
N261	N26	0.528700	0.620800	0.662000
N271	N27	0.688500	0.588200	0.682700
N281	N28	0.554100	0.480200	0.602700
N291	N29	0.541700	0.262300	0.821000
N301	N30	0.528700	0.338000	0.958800
N311	N31	0.688500	0.317300	0.905500
N321	N32	0.554100	0.397300	0.877500
N331	N33	0.541700	0.179000	0.441300
N341	N34	0.528700	0.041200	0.379200
N351	N35	0.688500	0.094500	0.411800
N361	N36	0.554100	0.122500	0.519800
N371	N37	0.041700	0.441300	0.262300
N381	N38	0.028700	0.379200	0.338000
N391	N39	0.188500	0.411800	0.317300
N401	N40	0.054100	0.519800	0.397300
N411	N41	0.041700	0.737700	0.179000
N421	N42	0.028700	0.662000	0.041200
N431	N43	0.188500	0.682700	0.094500
N441	N44	0.054100	0.602700	0.122500
N451	N45	0.041700	0.821000	0.558700
N461	N46	0.028700	0.958800	0.620800
N471	N47	0.188500	0.905500	0.588200
N481	N48	0.054100	0.877500	0.480200
N491	N49	0.541700	0.179000	0.737700
N501	N50	0.528700	0.041200	0.662000
N511	N51	0.688500	0.094500	0.682700
N521	N52	0.554100	0.122500	0.602700
N531	N53	0.541700	0.558700	0.821000
N541	N54	0.528700	0.620800	0.958800
N551	N55	0.688500	0.588200	0.905500
N561	N56	0.554100	0.480200	0.877500
N571	N57	0.541700	0.262300	0.441300
N581	N58	0.528700	0.338000	0.379200
N591	N59	0.688500	0.317300	0.411800
N601	N60	0.554100	0.397300	0.519800
N611	N61	0.041700	0.821000	0.262300
N621	N62	0.028700	0.958800	0.338000
N631	N63	0.188500	0.905500	0.317300
N641	N64	0.054100	0.877500	0.397300
N651	N65	0.041700	0.441300	0.179000
N661	N66	0.028700	0.379200	0.041200
N671	N67	0.188500	0.411800	0.094500
N681	N68	0.054100	0.519800	0.122500
N691	N69	0.041700	0.737700	0.558700
N701	N70	0.028700	0.662000	0.620800
N711	N71	0.188500	0.682700	0.588200
N721	N72	0.054100	0.602700	0.480200
N731	N73	0.458300	0.441300	0.262300
N741	N74	0.471300	0.379200	0.338000
N751	N75	0.311500	0.411800	0.317300
N761	N76	0.445900	0.519800	0.397300
N771	N77	0.458300	0.737700	0.179000
N781	N78	0.471300	0.662000	0.041200
N791	N79	0.311500	0.682700	0.094500
N801	N80	0.445900	0.602700	0.122500
N811	N81	0.458300	0.821000	0.558700
N821	N82	0.471300	0.958800	0.620800
N831	N83	0.311500	0.905500	0.588200
N841	N84	0.445900	0.877500	0.480200
N851	N85	0.958300	0.558700	0.737700
N861	N86	0.971300	0.620800	0.662000
N871	N87	0.811500	0.588200	0.682700
N881	N88	0.945900	0.480200	0.602700
N891	N89	0.958300	0.262300	0.821000
N901	N90	0.971300	0.338000	0.958800
N911	N91	0.811500	0.317300	0.905500
N921	N92	0.945900	0.397300	0.877500
N931	N93	0.958300	0.179000	0.441300
N941	N94	0.971300	0.041200	0.379200
N951	N95	0.811500	0.094500	0.411800
N961	N96	0.945900	0.122500	0.519800
N971	N97	0.250000	0.829400	0.325700
N981	N98	0.250000	0.496300	0.170600
N991	N99	0.250000	0.674300	0.503700
N1001	N100	0.750000	0.170600	0.674300
N1011	N101	0.750000	0.503700	0.829400
N1021	N102	0.750000	0.325700	0.496300
N1031	N103	0.750000	0.503700	0.674300
N1041	N104	0.750000	0.325700	0.829400
N1051	N105	0.750000	0.170600	0.496300
N1061	N106	0.250000	0.496300	0.325700
N1071	N107	0.250000	0.674300	0.170600
N1081	N108	0.250000	0.829400	0.503700
N1091	N109	0.365000	0.945700	0.472850
N1101	N110	0.365000	0.527150	0.054300
N1111	N111	0.365000	0.527150	0.472850
N1121	N112	0.865000	0.054300	0.527150
N1131	N113	0.865000	0.472850	0.945700
N1141	N114	0.865000	0.472850	0.527150
N1151	N115	0.635000	0.472850	0.527150
N1161	N116	0.635000	0.472850	0.945700
N1171	N117	0.635000	0.054300	0.527150
N1181	N118	0.135000	0.527150	0.472850
N1191	N119	0.135000	0.527150	0.054300
N1201	N120	0.135000	0.945700	0.472850
O11	O1	0.310300	0.811200	0.329300
O21	O2	0.346300	0.961300	0.438100
O31	O3	0.310300	0.518100	0.188800
O41	O4	0.346300	0.476800	0.038700
O51	O5	0.310300	0.670700	0.481900
O61	O6	0.346300	0.561900	0.523200
O71	O7	0.810300	0.188800	0.670700
O81	O8	0.846300	0.038700	0.561900
O91	O9	0.810300	0.481900	0.811200
O101	O10	0.846300	0.523200	0.961300
O111	O11	0.810300	0.329300	0.518100
O121	O12	0.846300	0.438100	0.476800
O131	O13	0.689700	0.481900	0.670700
O141	O14	0.653700	0.523200	0.561900
O151	O15	0.689700	0.329300	0.811200
O161	O16	0.653700	0.438100	0.961300
O171	O17	0.689700	0.188800	0.518100
O181	O18	0.653700	0.038700	0.476800
O191	O19	0.189700	0.518100	0.329300
O201	O20	0.153700	0.476800	0.438100
O211	O21	0.189700	0.670700	0.188800
O221	O22	0.153700	0.561900	0.038700
O231	O23	0.189700	0.811200	0.481900
O241	O24	0.153700	0.961300	0.523200
O251	O25	0.689700	0.188800	0.670700
O261	O26	0.653700	0.038700	0.561900
O271	O27	0.689700	0.481900	0.811200
O281	O28	0.653700	0.523200	0.961300
O291	O29	0.689700	0.329300	0.518100
O301	O30	0.653700	0.438100	0.476800
O311	O31	0.189700	0.811200	0.329300
O321	O32	0.153700	0.961300	0.438100
O331	O33	0.189700	0.518100	0.188800
O341	O34	0.153700	0.476800	0.038700
O351	O35	0.189700	0.670700	0.481900
O361	O36	0.153700	0.561900	0.523200
O371	O37	0.310300	0.518100	0.329300
O381	O38	0.346300	0.476800	0.438100
O391	O39	0.310300	0.670700	0.188800
O401	O40	0.346300	0.561900	0.038700
O411	O41	0.310300	0.811200	0.481900
O421	O42	0.346300	0.961300	0.523200
O431	O43	0.810300	0.481900	0.670700
O441	O44	0.846300	0.523200	0.561900
O451	O45	0.810300	0.329300	0.811200
O461	O46	0.846300	0.438100	0.961300
O471	O47	0.810300	0.188800	0.518100
O481	O48	0.846300	0.038700	0.476800
