data_XEGJIE_freeONLY_PM
_symmetry_space_group_name_H-M	'P1'
_cell_length_a	13.103000
_cell_length_b	23.434000
_cell_length_c	30.424000
_cell_angle_alpha	90.000000
_cell_angle_beta	90.000000
_cell_angle_gamma	101.392000
_symmetry_Int_Tables_number 1

loop_
_symmetry_equiv_pos_as_xyz
'x,y,z'

loop_
_atom_site_label
_atom_site_type_symbol
_atom_site_fract_x
_atom_site_fract_y
_atom_site_fract_z
Gd11	Gd1	0.850470	0.728510	0.769330
Gd21	Gd2	0.152180	0.796590	0.741690
Gd31	Gd3	0.649530	0.771490	0.269330
Gd41	Gd4	0.347820	0.703410	0.241690
Gd51	Gd5	0.149530	0.271490	0.230670
Gd61	Gd6	0.847820	0.203410	0.258310
Gd71	Gd7	0.350470	0.228510	0.730670
Gd81	Gd8	0.652180	0.296590	0.758310
H11	H1	0.189800	0.655900	0.728900
H21	H2	0.968400	0.546200	0.794900
H31	H3	0.485800	0.461400	0.808000
H41	H4	0.319400	0.367200	0.713100
H51	H5	0.072000	0.784700	0.598700
H61	H6	0.788100	0.691800	0.624600
H71	H7	0.825400	0.678100	0.385700
H81	H8	0.796600	0.841100	0.413600
H91	H9	0.930800	0.728000	0.912500
H101	H10	0.223200	0.808400	0.888700
H111	H11	0.187600	0.647800	0.096500
H121	H12	0.195300	0.815100	0.126300
H131	H13	0.692000	0.591900	0.768200
H141	H14	0.629700	0.648900	0.672100
H151	H15	0.538300	0.596400	0.662200
H161	H16	0.651100	0.595200	0.645500
H171	H17	0.625500	0.503200	0.739800
H181	H18	0.646900	0.500800	0.689200
H191	H19	0.534800	0.503100	0.706200
H201	H20	0.622200	0.751100	0.721300
H211	H21	0.729000	0.872200	0.647800
H221	H22	0.718200	0.822400	0.612700
H231	H23	0.795500	0.823700	0.652200
H241	H24	0.497500	0.768100	0.671500
H251	H25	0.549000	0.759400	0.626200
H261	H26	0.533800	0.821500	0.640300
H271	H27	0.293300	0.950000	0.750300
H281	H28	0.334700	0.927400	0.871500
H291	H29	0.448400	0.931000	0.854100
H301	H30	0.359600	0.879400	0.839600
H311	H31	0.370400	0.033000	0.782700
H321	H32	0.457200	0.027700	0.817000
H331	H33	0.345400	0.032300	0.833100
H341	H34	0.241300	0.712100	0.823500
H351	H35	0.334400	0.684300	0.879100
H361	H36	0.436400	0.730000	0.889100
H371	H37	0.442400	0.672900	0.863200
H381	H38	0.464900	0.786600	0.782800
H391	H39	0.525500	0.738100	0.796800
H401	H40	0.521200	0.790300	0.828500
H411	H41	0.310200	0.844100	0.228900
H421	H42	0.531600	0.953800	0.294900
H431	H43	0.014200	0.038600	0.308000
H441	H44	0.180600	0.132800	0.213100
H451	H45	0.428000	0.715300	0.098700
H461	H46	0.711900	0.808200	0.124600
H471	H47	0.674600	0.821900	0.885700
H481	H48	0.703400	0.658900	0.913600
H491	H49	0.569200	0.772000	0.412500
H501	H50	0.276800	0.691600	0.388700
H511	H51	0.312400	0.852200	0.596500
H521	H52	0.304700	0.684900	0.626300
H531	H53	0.808000	0.908100	0.268200
H541	H54	0.870300	0.851100	0.172100
H551	H55	0.961700	0.903600	0.162200
H561	H56	0.848900	0.904800	0.145500
H571	H57	0.874500	0.996800	0.239800
H581	H58	0.853100	0.999200	0.189200
H591	H59	0.965200	0.996900	0.206200
H601	H60	0.877800	0.748900	0.221300
H611	H61	0.771000	0.627800	0.147800
H621	H62	0.781800	0.677600	0.112700
H631	H63	0.704500	0.676300	0.152200
H641	H64	0.002500	0.731900	0.171500
H651	H65	0.951000	0.740600	0.126200
H661	H66	0.966200	0.678500	0.140300
H671	H67	0.206700	0.550000	0.250300
H681	H68	0.165300	0.572600	0.371500
H691	H69	0.051600	0.569000	0.354100
H701	H70	0.140400	0.620600	0.339600
H711	H71	0.129600	0.467000	0.282700
H721	H72	0.042800	0.472300	0.317000
H731	H73	0.154600	0.467700	0.333100
H741	H74	0.258700	0.787900	0.323500
H751	H75	0.165600	0.815700	0.379100
H761	H76	0.063600	0.770000	0.389100
H771	H77	0.057600	0.827100	0.363200
H781	H78	0.035100	0.713400	0.282800
H791	H79	0.974500	0.761900	0.296800
H801	H80	0.978800	0.709700	0.328500
H811	H81	0.810200	0.344100	0.271100
H821	H82	0.031600	0.453800	0.205100
H831	H83	0.514200	0.538600	0.192000
H841	H84	0.680600	0.632800	0.286900
H851	H85	0.928000	0.215300	0.401300
H861	H86	0.211900	0.308200	0.375400
H871	H87	0.174600	0.321900	0.614300
H881	H88	0.203400	0.158900	0.586400
H891	H89	0.069200	0.272000	0.087500
H901	H90	0.776800	0.191600	0.111300
H911	H91	0.812400	0.352200	0.903500
H921	H92	0.804700	0.184900	0.873700
H931	H93	0.308000	0.408100	0.231800
H941	H94	0.370300	0.351100	0.327900
H951	H95	0.461700	0.403600	0.337800
H961	H96	0.348900	0.404800	0.354500
H971	H97	0.374500	0.496800	0.260200
H981	H98	0.353100	0.499200	0.310800
H991	H99	0.465200	0.496900	0.293800
H1001	H100	0.377800	0.248900	0.278700
H1011	H101	0.271000	0.127800	0.352200
H1021	H102	0.281800	0.177600	0.387300
H1031	H103	0.204500	0.176300	0.347800
H1041	H104	0.502500	0.231900	0.328500
H1051	H105	0.451000	0.240600	0.373800
H1061	H106	0.466200	0.178500	0.359700
H1071	H107	0.706700	0.050000	0.249700
H1081	H108	0.665300	0.072600	0.128500
H1091	H109	0.551600	0.069000	0.145900
H1101	H110	0.640400	0.120600	0.160400
H1111	H111	0.629600	0.967000	0.217300
H1121	H112	0.542800	0.972300	0.183000
H1131	H113	0.654600	0.967700	0.166900
H1141	H114	0.758700	0.287900	0.176500
H1151	H115	0.665600	0.315700	0.120900
H1161	H116	0.563600	0.270000	0.110900
H1171	H117	0.557600	0.327100	0.136800
H1181	H118	0.535100	0.213400	0.217200
H1191	H119	0.474500	0.261900	0.203200
H1201	H120	0.478800	0.209700	0.171500
H1211	H121	0.689800	0.155900	0.771100
H1221	H122	0.468400	0.046200	0.705100
H1231	H123	0.985800	0.961400	0.692000
H1241	H124	0.819400	0.867200	0.786900
H1251	H125	0.572000	0.284700	0.901300
H1261	H126	0.288100	0.191800	0.875400
H1271	H127	0.325400	0.178100	0.114300
H1281	H128	0.296600	0.341100	0.086400
H1291	H129	0.430800	0.228000	0.587500
H1301	H130	0.723200	0.308400	0.611300
H1311	H131	0.687600	0.147800	0.403500
H1321	H132	0.695300	0.315100	0.373700
H1331	H133	0.192000	0.091900	0.731800
H1341	H134	0.129700	0.148900	0.827900
H1351	H135	0.038300	0.096400	0.837800
H1361	H136	0.151100	0.095200	0.854500
H1371	H137	0.125500	0.003200	0.760200
H1381	H138	0.146900	0.000800	0.810800
H1391	H139	0.034800	0.003100	0.793800
H1401	H140	0.122200	0.251100	0.778700
H1411	H141	0.229000	0.372200	0.852200
H1421	H142	0.218200	0.322400	0.887300
H1431	H143	0.295500	0.323700	0.847800
H1441	H144	0.997500	0.268100	0.828500
H1451	H145	0.049000	0.259400	0.873800
H1461	H146	0.033800	0.321500	0.859700
H1471	H147	0.793300	0.450000	0.749700
H1481	H148	0.834700	0.427400	0.628500
H1491	H149	0.948400	0.431000	0.645900
H1501	H150	0.859600	0.379400	0.660400
H1511	H151	0.870400	0.533000	0.717300
H1521	H152	0.957200	0.527700	0.683000
H1531	H153	0.845400	0.532300	0.666900
H1541	H154	0.741300	0.212100	0.676500
H1551	H155	0.834400	0.184300	0.620900
H1561	H156	0.936400	0.230000	0.610900
H1571	H157	0.942400	0.172900	0.636800
H1581	H158	0.964900	0.286600	0.717200
H1591	H159	0.025500	0.238100	0.703200
H1601	H160	0.021200	0.290300	0.671500
C11	C1	0.002700	0.653400	0.764170
C21	C2	0.070000	0.608800	0.762860
C31	C3	0.166000	0.620200	0.742430
C41	C4	0.226600	0.578000	0.742260
C51	C5	0.196300	0.524100	0.763570
C61	C6	0.099100	0.514400	0.783370
C71	C7	0.034500	0.555000	0.782500
C81	C8	0.267200	0.480900	0.764520
C91	C9	0.354600	0.489200	0.791160
C101	C10	0.427700	0.454000	0.789820
C111	C11	0.412700	0.407100	0.760690
C121	C12	0.328500	0.397700	0.733170
C131	C13	0.256700	0.434000	0.735360
C141	C14	0.492800	0.368300	0.758680
C151	C15	0.956100	0.743600	0.668080
C161	C16	0.932500	0.738800	0.619160
C171	C17	0.006700	0.765700	0.589180
C181	C18	0.982200	0.763800	0.545020
C191	C19	0.886200	0.737200	0.528330
C201	C20	0.814000	0.710700	0.560020
C211	C21	0.837300	0.710800	0.604770
C221	C22	0.858100	0.744600	0.480990
C231	C23	0.855700	0.700900	0.448720
C241	C24	0.827700	0.708200	0.405870
C251	C25	0.803000	0.760300	0.392650
C261	C26	0.809700	0.805300	0.422440
C271	C27	0.836000	0.796500	0.465870
C281	C28	0.765800	0.768100	0.346830
C291	C29	0.047300	0.770400	0.844440
C301	C30	0.073300	0.769500	0.893350
C311	C31	0.997800	0.743200	0.922360
C321	C32	0.022500	0.739600	0.966440
C331	C33	0.121700	0.761000	0.983580
C341	C34	0.195000	0.786300	0.952470
C351	C35	0.171800	0.790900	0.908150
C361	C36	0.146100	0.750900	0.030660
C371	C37	0.158400	0.696700	0.045280
C381	C38	0.183300	0.685400	0.088110
C391	C39	0.201700	0.730100	0.118380
C401	C40	0.185700	0.784800	0.106090
C411	C41	0.155400	0.793700	0.063690
C421	C42	0.241800	0.720600	0.163740
C431	C43	0.677600	0.611200	0.742900
C441	C44	0.611200	0.607400	0.668900
C451	C45	0.607900	0.516300	0.711400
C461	C46	0.674400	0.776800	0.706600
C471	C47	0.729400	0.831700	0.643300
C481	C48	0.549200	0.785400	0.650600
C491	C49	0.304300	0.927300	0.774200
C501	C50	0.375900	0.920000	0.846800
C511	C51	0.384200	0.017100	0.810600
C521	C52	0.300100	0.731500	0.808700
C531	C53	0.401800	0.702200	0.868100
C541	C54	0.483100	0.764400	0.807100
C551	C55	0.497300	0.846600	0.264170
C561	C56	0.430000	0.891200	0.262860
C571	C57	0.334000	0.879800	0.242430
C581	C58	0.273400	0.922000	0.242260
C591	C59	0.303700	0.975900	0.263570
C601	C60	0.400900	0.985600	0.283370
C611	C61	0.465500	0.945000	0.282500
C621	C62	0.232800	0.019100	0.264520
C631	C63	0.145400	0.010800	0.291160
C641	C64	0.072300	0.046000	0.289820
C651	C65	0.087300	0.092900	0.260690
C661	C66	0.171500	0.102300	0.233170
C671	C67	0.243300	0.066000	0.235360
C681	C68	0.007200	0.131700	0.258680
C691	C69	0.543900	0.756400	0.168080
C701	C70	0.567500	0.761200	0.119160
C711	C71	0.493300	0.734300	0.089180
C721	C72	0.517800	0.736200	0.045020
C731	C73	0.613800	0.762800	0.028330
C741	C74	0.686000	0.789300	0.060020
C751	C75	0.662700	0.789200	0.104770
C761	C76	0.641900	0.755400	0.980990
C771	C77	0.644300	0.799100	0.948720
C781	C78	0.672300	0.791800	0.905870
C791	C79	0.697000	0.739700	0.892650
C801	C80	0.690300	0.694700	0.922440
C811	C81	0.664000	0.703500	0.965870
C821	C82	0.734200	0.731900	0.846830
C831	C83	0.452700	0.729600	0.344440
C841	C84	0.426700	0.730500	0.393350
C851	C85	0.502200	0.756800	0.422360
C861	C86	0.477500	0.760400	0.466440
C871	C87	0.378300	0.739000	0.483580
C881	C88	0.305000	0.713700	0.452470
C891	C89	0.328200	0.709100	0.408150
C901	C90	0.353900	0.749100	0.530660
C911	C91	0.341600	0.803300	0.545280
C921	C92	0.316700	0.814600	0.588110
C931	C93	0.298300	0.769900	0.618380
C941	C94	0.314300	0.715200	0.606090
C951	C95	0.344600	0.706300	0.563690
C961	C96	0.258200	0.779400	0.663740
C971	C97	0.822400	0.888800	0.242900
C981	C98	0.888800	0.892600	0.168900
C991	C99	0.892100	0.983700	0.211400
C1001	C100	0.825600	0.723200	0.206600
C1011	C101	0.770600	0.668300	0.143300
C1021	C102	0.950800	0.714600	0.150600
C1031	C103	0.195700	0.572700	0.274200
C1041	C104	0.124100	0.580000	0.346800
C1051	C105	0.115800	0.482900	0.310600
C1061	C106	0.199900	0.768500	0.308700
C1071	C107	0.098200	0.797800	0.368100
C1081	C108	0.016900	0.735600	0.307100
C1091	C109	0.997300	0.346600	0.235830
C1101	C110	0.930000	0.391200	0.237140
C1111	C111	0.834000	0.379800	0.257570
C1121	C112	0.773400	0.422000	0.257740
C1131	C113	0.803700	0.475900	0.236430
C1141	C114	0.900900	0.485600	0.216630
C1151	C115	0.965500	0.445000	0.217500
C1161	C116	0.732800	0.519100	0.235480
C1171	C117	0.645400	0.510800	0.208840
C1181	C118	0.572300	0.546000	0.210180
C1191	C119	0.587300	0.592900	0.239310
C1201	C120	0.671500	0.602300	0.266830
C1211	C121	0.743300	0.566000	0.264640
C1221	C122	0.507200	0.631700	0.241320
C1231	C123	0.043900	0.256400	0.331920
C1241	C124	0.067500	0.261200	0.380840
C1251	C125	0.993300	0.234300	0.410820
C1261	C126	0.017800	0.236200	0.454980
C1271	C127	0.113800	0.262800	0.471670
C1281	C128	0.186000	0.289300	0.439980
C1291	C129	0.162700	0.289200	0.395230
C1301	C130	0.141900	0.255400	0.519010
C1311	C131	0.144300	0.299100	0.551280
C1321	C132	0.172300	0.291800	0.594130
C1331	C133	0.197000	0.239700	0.607350
C1341	C134	0.190300	0.194700	0.577560
C1351	C135	0.164000	0.203500	0.534130
C1361	C136	0.234200	0.231900	0.653170
C1371	C137	0.952700	0.229600	0.155560
C1381	C138	0.926700	0.230500	0.106650
C1391	C139	0.002200	0.256800	0.077640
C1401	C140	0.977500	0.260400	0.033560
C1411	C141	0.878300	0.239000	0.016420
C1421	C142	0.805000	0.213700	0.047530
C1431	C143	0.828200	0.209100	0.091850
C1441	C144	0.853900	0.249100	0.969340
C1451	C145	0.841600	0.303300	0.954720
C1461	C146	0.816700	0.314600	0.911890
C1471	C147	0.798300	0.269900	0.881620
C1481	C148	0.814300	0.215200	0.893910
C1491	C149	0.844600	0.206300	0.936310
C1501	C150	0.758200	0.279400	0.836260
C1511	C151	0.322400	0.388800	0.257100
C1521	C152	0.388800	0.392600	0.331100
C1531	C153	0.392100	0.483700	0.288600
C1541	C154	0.325600	0.223200	0.293400
C1551	C155	0.270600	0.168300	0.356700
C1561	C156	0.450800	0.214600	0.349400
C1571	C157	0.695700	0.072700	0.225800
C1581	C158	0.624100	0.080000	0.153200
C1591	C159	0.615800	0.982900	0.189400
C1601	C160	0.699900	0.268500	0.191300
C1611	C161	0.598200	0.297800	0.131900
C1621	C162	0.516900	0.235600	0.192900
C1631	C163	0.502700	0.153400	0.735830
C1641	C164	0.570000	0.108800	0.737140
C1651	C165	0.666000	0.120200	0.757570
C1661	C166	0.726600	0.078000	0.757740
C1671	C167	0.696300	0.024100	0.736430
C1681	C168	0.599100	0.014400	0.716630
C1691	C169	0.534500	0.055000	0.717500
C1701	C170	0.767200	0.980900	0.735480
C1711	C171	0.854600	0.989200	0.708840
C1721	C172	0.927700	0.954000	0.710180
C1731	C173	0.912700	0.907100	0.739310
C1741	C174	0.828500	0.897700	0.766830
C1751	C175	0.756700	0.934000	0.764640
C1761	C176	0.992800	0.868300	0.741320
C1771	C177	0.456100	0.243600	0.831920
C1781	C178	0.432500	0.238800	0.880840
C1791	C179	0.506700	0.265700	0.910820
C1801	C180	0.482200	0.263800	0.954980
C1811	C181	0.386200	0.237200	0.971670
C1821	C182	0.314000	0.210700	0.939980
C1831	C183	0.337300	0.210800	0.895230
C1841	C184	0.358100	0.244600	0.019010
C1851	C185	0.355700	0.200900	0.051280
C1861	C186	0.327700	0.208200	0.094130
C1871	C187	0.303000	0.260300	0.107350
C1881	C188	0.309700	0.305300	0.077560
C1891	C189	0.336000	0.296500	0.034130
C1901	C190	0.265800	0.268100	0.153170
C1911	C191	0.547300	0.270400	0.655560
C1921	C192	0.573300	0.269500	0.606650
C1931	C193	0.497800	0.243200	0.577640
C1941	C194	0.522500	0.239600	0.533560
C1951	C195	0.621700	0.261000	0.516420
C1961	C196	0.695000	0.286300	0.547530
C1971	C197	0.671800	0.290900	0.591850
C1981	C198	0.646100	0.250900	0.469340
C1991	C199	0.658400	0.196700	0.454720
C2001	C200	0.683300	0.185400	0.411890
C2011	C201	0.701700	0.230100	0.381620
C2021	C202	0.685700	0.284800	0.393910
C2031	C203	0.655400	0.293700	0.436310
C2041	C204	0.741800	0.220600	0.336260
C2051	C205	0.177600	0.111200	0.757100
C2061	C206	0.111200	0.107400	0.831100
C2071	C207	0.107900	0.016300	0.788600
C2081	C208	0.174400	0.276800	0.793400
C2091	C209	0.229400	0.331700	0.856700
C2101	C210	0.049200	0.285400	0.849400
C2111	C211	0.804300	0.427300	0.725800
C2121	C212	0.875900	0.420000	0.653200
C2131	C213	0.884200	0.517100	0.689400
C2141	C214	0.800100	0.231500	0.691300
C2151	C215	0.901800	0.202200	0.631900
C2161	C216	0.983100	0.264400	0.692900
N11	N1	0.325600	0.592000	0.717920
N21	N2	0.060400	0.461300	0.808380
N31	N3	0.375100	0.539600	0.820780
N41	N4	0.168600	0.422300	0.704500
N51	N5	0.063600	0.795200	0.515400
N61	N6	0.706700	0.684400	0.547360
N71	N7	0.883500	0.645000	0.460470
N81	N8	0.839300	0.845900	0.495930
N91	N9	0.939300	0.709200	0.995340
N101	N10	0.304000	0.810400	0.965310
N111	N11	0.144500	0.646100	0.014540
N121	N12	0.134800	0.851800	0.052810
N131	N13	0.633000	0.579600	0.709920
N141	N14	0.644700	0.795500	0.670000
N151	N15	0.353000	0.953900	0.809300
N161	N16	0.389900	0.731800	0.826850
N171	N17	0.174400	0.908000	0.217920
N181	N18	0.439600	0.038700	0.308380
N191	N19	0.124900	0.960400	0.320780
N201	N20	0.331400	0.077700	0.204500
N211	N21	0.436400	0.704800	0.015400
N221	N22	0.793300	0.815600	0.047360
N231	N23	0.616500	0.855000	0.960470
N241	N24	0.660700	0.654100	0.995930
N251	N25	0.560700	0.790800	0.495340
N261	N26	0.196000	0.689600	0.465310
N271	N27	0.355500	0.853900	0.514540
N281	N28	0.365200	0.648200	0.552810
N291	N29	0.867000	0.920400	0.209920
N301	N30	0.855300	0.704500	0.170000
N311	N31	0.147000	0.546100	0.309300
N321	N32	0.110100	0.768200	0.326850
N331	N33	0.674400	0.408000	0.282080
N341	N34	0.939600	0.538700	0.191620
N351	N35	0.624900	0.460400	0.179220
N361	N36	0.831400	0.577700	0.295500
N371	N37	0.936400	0.204800	0.484600
N381	N38	0.293300	0.315600	0.452640
N391	N39	0.116500	0.355000	0.539530
N401	N40	0.160700	0.154100	0.504070
N411	N41	0.060700	0.290800	0.004660
N421	N42	0.696000	0.189600	0.034690
N431	N43	0.855500	0.353900	0.985460
N441	N44	0.865200	0.148200	0.947190
N451	N45	0.367000	0.420400	0.290080
N461	N46	0.355300	0.204500	0.330000
N471	N47	0.647000	0.046100	0.190700
N481	N48	0.610100	0.268200	0.173150
N491	N49	0.825600	0.092000	0.782080
N501	N50	0.560400	0.961300	0.691620
N511	N51	0.875100	0.039600	0.679220
N521	N52	0.668600	0.922300	0.795500
N531	N53	0.563600	0.295200	0.984600
N541	N54	0.206700	0.184400	0.952640
N551	N55	0.383500	0.145000	0.039530
N561	N56	0.339300	0.345900	0.004070
N571	N57	0.439300	0.209200	0.504660
N581	N58	0.804000	0.310400	0.534690
N591	N59	0.644500	0.146100	0.485460
N601	N60	0.634800	0.351800	0.447190
N611	N61	0.133000	0.079600	0.790080
N621	N62	0.144700	0.295500	0.830000
N631	N63	0.853000	0.453900	0.690700
N641	N64	0.889900	0.231800	0.673150
O11	O1	0.907700	0.637340	0.772270
O21	O2	0.043400	0.705940	0.756220
O31	O3	0.466000	0.318530	0.741320
O41	O4	0.581200	0.386500	0.773590
O51	O5	0.363900	0.641800	0.712800
O61	O6	0.363300	0.552200	0.704000
O71	O7	0.123100	0.435100	0.824400
O81	O8	0.968000	0.445800	0.814100
O91	O9	0.302200	0.554800	0.838750
O101	O10	0.466400	0.564700	0.824620
O111	O11	0.082200	0.425900	0.719300
O121	O12	0.181800	0.404100	0.669160
O131	O13	0.888700	0.715370	0.693070
O141	O14	0.039400	0.776990	0.678630
O151	O15	0.747600	0.817040	0.336020
O161	O16	0.749300	0.725030	0.321330
O171	O17	0.129500	0.833840	0.531590
O181	O18	0.061900	0.781500	0.476840
O191	O19	0.640600	0.674500	0.576560
O201	O20	0.687600	0.672100	0.509320
O211	O21	0.921000	0.639600	0.496450
O221	O22	0.869200	0.606500	0.433150
O231	O23	0.819000	0.837000	0.534510
O241	O24	0.864600	0.894600	0.480210
O251	O25	0.957100	0.747410	0.833850
O261	O26	0.119800	0.794950	0.819950
O271	O27	0.241400	0.668890	0.176120
O281	O28	0.276400	0.764510	0.186660
O291	O29	0.877400	0.667100	0.979800
O301	O30	0.936500	0.724700	0.032950
O311	O31	0.367300	0.825600	0.936160
O321	O32	0.326000	0.811600	0.004140
O331	O33	0.170900	0.654800	0.976500
O341	O34	0.106800	0.598200	0.029980
O351	O35	0.103900	0.861000	0.017540
O361	O36	0.142000	0.886200	0.081200
O371	O37	0.701900	0.664970	0.742650
O381	O38	0.755400	0.785770	0.725400
O391	O39	0.273300	0.874200	0.771720
O401	O40	0.286300	0.754900	0.773380
O411	O41	0.592300	0.862660	0.272270
O421	O42	0.456600	0.794060	0.256220
O431	O43	0.034000	0.181470	0.241320
O441	O44	0.918800	0.113500	0.273590
O451	O45	0.136100	0.858200	0.212800
O461	O46	0.136700	0.947800	0.204000
O471	O47	0.376900	0.064900	0.324400
O481	O48	0.532000	0.054200	0.314100
O491	O49	0.197800	0.945200	0.338750
O501	O50	0.033600	0.935300	0.324620
O511	O51	0.417800	0.074100	0.219300
O521	O52	0.318200	0.095900	0.169160
O531	O53	0.611300	0.784630	0.193070
O541	O54	0.460600	0.723010	0.178630
O551	O55	0.752400	0.682960	0.836020
O561	O56	0.750700	0.774970	0.821330
O571	O57	0.370500	0.666160	0.031590
O581	O58	0.438100	0.718500	0.976840
O591	O59	0.859400	0.825500	0.076560
O601	O60	0.812400	0.827900	0.009320
O611	O61	0.579000	0.860400	0.996450
O621	O62	0.630800	0.893500	0.933150
O631	O63	0.681000	0.663000	0.034510
O641	O64	0.635400	0.605400	0.980210
O651	O65	0.542900	0.752590	0.333850
O661	O66	0.380200	0.705050	0.319950
O671	O67	0.258600	0.831110	0.676120
O681	O68	0.223600	0.735490	0.686660
O691	O69	0.622600	0.832900	0.479800
O701	O70	0.563500	0.775300	0.532950
O711	O71	0.132700	0.674400	0.436160
O721	O72	0.174000	0.688400	0.504140
O731	O73	0.329100	0.845200	0.476500
O741	O74	0.393200	0.901800	0.529980
O751	O75	0.396100	0.639000	0.517540
O761	O76	0.358000	0.613800	0.581200
O771	O77	0.798100	0.835030	0.242650
O781	O78	0.744600	0.714230	0.225400
O791	O79	0.226700	0.625800	0.271720
O801	O80	0.213700	0.745100	0.273380
O811	O81	0.092300	0.362660	0.227730
O821	O82	0.956600	0.294060	0.243780
O831	O83	0.534000	0.681470	0.258680
O841	O84	0.418800	0.613500	0.226410
O851	O85	0.636100	0.358200	0.287200
O861	O86	0.636700	0.447800	0.296000
O871	O87	0.876900	0.564900	0.175600
O881	O88	0.032000	0.554200	0.185900
O891	O89	0.697800	0.445200	0.161250
O901	O90	0.533600	0.435300	0.175380
O911	O91	0.917800	0.574100	0.280700
O921	O92	0.818200	0.595900	0.330840
O931	O93	0.111300	0.284630	0.306930
O941	O94	0.960600	0.223010	0.321370
O951	O95	0.252400	0.182960	0.663980
O961	O96	0.250700	0.274970	0.678670
O971	O97	0.870500	0.166160	0.468410
O981	O98	0.938100	0.218500	0.523160
O991	O99	0.359400	0.325500	0.423440
O1001	O100	0.312400	0.327900	0.490680
O1011	O101	0.079000	0.360400	0.503550
O1021	O102	0.130800	0.393500	0.566850
O1031	O103	0.181000	0.163000	0.465490
O1041	O104	0.135400	0.105400	0.519790
O1051	O105	0.042900	0.252590	0.166150
O1061	O106	0.880200	0.205050	0.180050
O1071	O107	0.758600	0.331110	0.823880
O1081	O108	0.723600	0.235490	0.813340
O1091	O109	0.122600	0.332900	0.020200
O1101	O110	0.063500	0.275300	0.967050
O1111	O111	0.632700	0.174400	0.063840
O1121	O112	0.674000	0.188400	0.995860
O1131	O113	0.829100	0.345200	0.023500
O1141	O114	0.893200	0.401800	0.970020
O1151	O115	0.896100	0.139000	0.982460
O1161	O116	0.858000	0.113800	0.918800
O1171	O117	0.298100	0.335030	0.257350
O1181	O118	0.244600	0.214230	0.274600
O1191	O119	0.726700	0.125800	0.228280
O1201	O120	0.713700	0.245100	0.226620
O1211	O121	0.407700	0.137340	0.727730
O1221	O122	0.543400	0.205940	0.743780
O1231	O123	0.966000	0.818530	0.758680
O1241	O124	0.081200	0.886500	0.726410
O1251	O125	0.863900	0.141800	0.787200
O1261	O126	0.863300	0.052200	0.796000
O1271	O127	0.623100	0.935100	0.675600
O1281	O128	0.468000	0.945800	0.685900
O1291	O129	0.802200	0.054800	0.661250
O1301	O130	0.966400	0.064700	0.675380
O1311	O131	0.582200	0.925900	0.780700
O1321	O132	0.681800	0.904100	0.830840
O1331	O133	0.388700	0.215370	0.806930
O1341	O134	0.539400	0.276990	0.821370
O1351	O135	0.247600	0.317040	0.163980
O1361	O136	0.249300	0.225030	0.178670
O1371	O137	0.629500	0.333840	0.968410
O1381	O138	0.561900	0.281500	0.023160
O1391	O139	0.140600	0.174500	0.923440
O1401	O140	0.187600	0.172100	0.990680
O1411	O141	0.421000	0.139600	0.003550
O1421	O142	0.369200	0.106500	0.066850
O1431	O143	0.319000	0.337000	0.965490
O1441	O144	0.364600	0.394600	0.019790
O1451	O145	0.457100	0.247410	0.666150
O1461	O146	0.619800	0.294950	0.680050
O1471	O147	0.741400	0.168890	0.323880
O1481	O148	0.776400	0.264510	0.313340
O1491	O149	0.377400	0.167100	0.520200
O1501	O150	0.436500	0.224700	0.467050
O1511	O151	0.867300	0.325600	0.563840
O1521	O152	0.826000	0.311600	0.495860
O1531	O153	0.670900	0.154800	0.523500
O1541	O154	0.606800	0.098200	0.470020
O1551	O155	0.603900	0.361000	0.482460
O1561	O156	0.642000	0.386200	0.418800
O1571	O157	0.201900	0.164970	0.757350
O1581	O158	0.255400	0.285770	0.774600
O1591	O159	0.773300	0.374200	0.728280
O1601	O160	0.786300	0.254900	0.726620
