data_XEGJOK_freeONLY_PM
_symmetry_space_group_name_H-M	'P1'
_cell_length_a	13.356000
_cell_length_b	19.441300
_cell_length_c	19.441300
_cell_angle_alpha	102.158000
_cell_angle_beta	93.847400
_cell_angle_gamma	93.847400
_symmetry_Int_Tables_number 1

loop_
_symmetry_equiv_pos_as_xyz
'x,y,z'

loop_
_atom_site_label
_atom_site_type_symbol
_atom_site_fract_x
_atom_site_fract_y
_atom_site_fract_z
Gd11	Gd1	0.352470	0.984790	0.461260
Gd21	Gd2	0.147530	0.538740	0.015210
Gd31	Gd3	0.647530	0.015210	0.538740
Gd41	Gd4	0.852470	0.461260	0.984790
H11	H1	0.295900	0.830700	0.598100
H21	H2	0.570100	0.883600	0.696400
H31	H3	0.340200	0.573400	0.811800
H41	H4	0.284700	0.749500	0.943700
H51	H5	0.322300	0.146600	0.569800
H61	H6	0.506400	0.163300	0.743100
H71	H7	0.251700	0.959900	0.619300
H81	H8	0.138200	0.966300	0.716300
H91	H9	0.023100	0.957700	0.691300
H101	H10	0.092700	0.898600	0.661200
H111	H11	0.015100	0.059700	0.632700
H121	H12	0.040700	0.034400	0.554200
H131	H13	0.965400	0.987600	0.587200
H141	H14	0.241100	0.843100	0.345700
H151	H15	0.125500	0.706900	0.300700
H161	H16	0.219800	0.697100	0.349100
H171	H17	0.111200	0.676400	0.368200
H181	H18	0.176900	0.769800	0.490200
H191	H19	0.067800	0.791900	0.476500
H201	H20	0.093000	0.714000	0.447200
H211	H21	0.204100	0.401900	0.169300
H221	H22	0.929900	0.303600	0.116400
H231	H23	0.159800	0.188200	0.426600
H241	H24	0.215300	0.056300	0.250500
H251	H25	0.177700	0.430200	0.853400
H261	H26	0.993600	0.256900	0.836700
H271	H27	0.248300	0.380700	0.040100
H281	H28	0.361800	0.283700	0.033700
H291	H29	0.476900	0.308700	0.042300
H301	H30	0.407300	0.338800	0.101400
H311	H31	0.484900	0.367300	0.940300
H321	H32	0.459300	0.445800	0.965600
H331	H33	0.534600	0.412800	0.012400
H341	H34	0.258900	0.654300	0.156900
H351	H35	0.374500	0.699300	0.293100
H361	H36	0.280200	0.650900	0.302900
H371	H37	0.388800	0.631800	0.323600
H381	H38	0.323100	0.509800	0.230200
H391	H39	0.432200	0.523500	0.208100
H401	H40	0.407000	0.552800	0.286000
H411	H41	0.704100	0.169300	0.401900
H421	H42	0.429900	0.116400	0.303600
H431	H43	0.659800	0.426600	0.188200
H441	H44	0.715300	0.250500	0.056300
H451	H45	0.677700	0.853400	0.430200
H461	H46	0.493600	0.836700	0.256900
H471	H47	0.748300	0.040100	0.380700
H481	H48	0.861800	0.033700	0.283700
H491	H49	0.976900	0.042300	0.308700
H501	H50	0.907300	0.101400	0.338800
H511	H51	0.984900	0.940300	0.367300
H521	H52	0.959300	0.965600	0.445800
H531	H53	0.034600	0.012400	0.412800
H541	H54	0.758900	0.156900	0.654300
H551	H55	0.874500	0.293100	0.699300
H561	H56	0.780200	0.302900	0.650900
H571	H57	0.888800	0.323600	0.631800
H581	H58	0.823100	0.230200	0.509800
H591	H59	0.932200	0.208100	0.523500
H601	H60	0.907000	0.286000	0.552800
H611	H61	0.795900	0.598100	0.830700
H621	H62	0.070100	0.696400	0.883600
H631	H63	0.840200	0.811800	0.573400
H641	H64	0.784700	0.943700	0.749500
H651	H65	0.822300	0.569800	0.146600
H661	H66	0.006400	0.743100	0.163300
H671	H67	0.751700	0.619300	0.959900
H681	H68	0.638200	0.716300	0.966300
H691	H69	0.523100	0.691300	0.957700
H701	H70	0.592700	0.661200	0.898600
H711	H71	0.515100	0.632700	0.059700
H721	H72	0.540700	0.554200	0.034400
H731	H73	0.465400	0.587200	0.987600
H741	H74	0.741100	0.345700	0.843100
H751	H75	0.625500	0.300700	0.706900
H761	H76	0.719800	0.349100	0.697100
H771	H77	0.611200	0.368200	0.676400
H781	H78	0.676900	0.490200	0.769800
H791	H79	0.567800	0.476500	0.791900
H801	H80	0.593000	0.447200	0.714000
C11	C1	0.458100	0.908800	0.585200
C21	C2	0.437500	0.861900	0.636700
C31	C3	0.344400	0.826400	0.633200
C41	C4	0.320400	0.785500	0.678900
C51	C5	0.388600	0.776800	0.732800
C61	C6	0.480400	0.814600	0.737200
C71	C7	0.507400	0.858300	0.690700
C81	C8	0.364800	0.733500	0.787100
C91	C9	0.367800	0.660900	0.775700
C101	C10	0.337500	0.622100	0.822100
C111	C11	0.303000	0.655500	0.884100
C121	C12	0.303800	0.726600	0.900200
C131	C13	0.333200	0.765600	0.851800
C141	C14	0.262600	0.612000	0.934400
C151	C15	0.495400	0.098900	0.608500
C161	C16	0.420500	0.141800	0.650600
C171	C17	0.335700	0.160800	0.618600
C181	C18	0.269400	0.201300	0.658300
C191	C19	0.284800	0.223100	0.730700
C201	C20	0.376000	0.207900	0.762300
C211	C21	0.444200	0.169800	0.722000
C221	C22	0.205400	0.982700	0.596100
C231	C23	0.089000	0.948600	0.677000
C241	C24	0.025000	0.019300	0.596700
C251	C25	0.211000	0.841800	0.387200
C261	C26	0.151000	0.709000	0.349000
C271	C27	0.119000	0.762800	0.457000
C281	C28	0.041900	0.414800	0.091200
C291	C29	0.062500	0.363300	0.138100
C301	C30	0.155600	0.366800	0.173600
C311	C31	0.179600	0.321100	0.214500
C321	C32	0.111400	0.267200	0.223200
C331	C33	0.019600	0.262800	0.185400
C341	C34	0.992600	0.309300	0.141700
C351	C35	0.135200	0.212900	0.266500
C361	C36	0.132200	0.224300	0.339100
C371	C37	0.162500	0.177900	0.377900
C381	C38	0.197000	0.115900	0.344500
C391	C39	0.196200	0.099800	0.273400
C401	C40	0.166800	0.148200	0.234400
C411	C41	0.237400	0.065600	0.388000
C421	C42	0.004600	0.391500	0.901100
C431	C43	0.079500	0.349400	0.858200
C441	C44	0.164300	0.381400	0.839200
C451	C45	0.230600	0.341700	0.798700
C461	C46	0.215200	0.269300	0.776900
C471	C47	0.124000	0.237700	0.792100
C481	C48	0.055800	0.278000	0.830200
C491	C49	0.294600	0.403900	0.017300
C501	C50	0.411000	0.323000	0.051400
C511	C51	0.475000	0.403300	0.980700
C521	C52	0.289000	0.612800	0.158200
C531	C53	0.349000	0.651000	0.291000
C541	C54	0.381000	0.543000	0.237200
C551	C55	0.541900	0.091200	0.414800
C561	C56	0.562500	0.138100	0.363300
C571	C57	0.655600	0.173600	0.366800
C581	C58	0.679600	0.214500	0.321100
C591	C59	0.611400	0.223200	0.267200
C601	C60	0.519600	0.185400	0.262800
C611	C61	0.492600	0.141700	0.309300
C621	C62	0.635200	0.266500	0.212900
C631	C63	0.632200	0.339100	0.224300
C641	C64	0.662500	0.377900	0.177900
C651	C65	0.697000	0.344500	0.115900
C661	C66	0.696200	0.273400	0.099800
C671	C67	0.666800	0.234400	0.148200
C681	C68	0.737400	0.388000	0.065600
C691	C69	0.504600	0.901100	0.391500
C701	C70	0.579500	0.858200	0.349400
C711	C71	0.664300	0.839200	0.381400
C721	C72	0.730600	0.798700	0.341700
C731	C73	0.715200	0.776900	0.269300
C741	C74	0.624000	0.792100	0.237700
C751	C75	0.555800	0.830200	0.278000
C761	C76	0.794600	0.017300	0.403900
C771	C77	0.911000	0.051400	0.323000
C781	C78	0.975000	0.980700	0.403300
C791	C79	0.789000	0.158200	0.612800
C801	C80	0.849000	0.291000	0.651000
C811	C81	0.881000	0.237200	0.543000
C821	C82	0.958100	0.585200	0.908800
C831	C83	0.937500	0.636700	0.861900
C841	C84	0.844400	0.633200	0.826400
C851	C85	0.820400	0.678900	0.785500
C861	C86	0.888600	0.732800	0.776800
C871	C87	0.980400	0.737200	0.814600
C881	C88	0.007400	0.690700	0.858300
C891	C89	0.864800	0.787100	0.733500
C901	C90	0.867800	0.775700	0.660900
C911	C91	0.837500	0.822100	0.622100
C921	C92	0.803000	0.884100	0.655500
C931	C93	0.803800	0.900200	0.726600
C941	C94	0.833200	0.851800	0.765600
C951	C95	0.762600	0.934400	0.612000
C961	C96	0.995400	0.608500	0.098900
C971	C97	0.920500	0.650600	0.141800
C981	C98	0.835700	0.618600	0.160800
C991	C99	0.769400	0.658300	0.201300
C1001	C100	0.784800	0.730700	0.223100
C1011	C101	0.876000	0.762300	0.207900
C1021	C102	0.944200	0.722000	0.169800
C1031	C103	0.705400	0.596100	0.982700
C1041	C104	0.589000	0.677000	0.948600
C1051	C105	0.525000	0.596700	0.019300
C1061	C106	0.711000	0.387200	0.841800
C1071	C107	0.651000	0.349000	0.709000
C1081	C108	0.619000	0.457000	0.762800
N11	N1	0.220500	0.752100	0.671900
N21	N2	0.557300	0.814500	0.795900
N31	N3	0.407100	0.622800	0.710000
N41	N4	0.328400	0.841400	0.870400
N51	N5	0.183700	0.219800	0.622600
N61	N6	0.399700	0.228900	0.836900
N71	N7	0.109500	0.983000	0.620600
N81	N8	0.146700	0.782000	0.391000
N91	N9	0.279500	0.328100	0.247900
N101	N10	0.942700	0.204100	0.185500
N111	N11	0.092900	0.290000	0.377200
N121	N12	0.171600	0.129600	0.158600
N131	N13	0.316300	0.377400	0.780200
N141	N14	0.100300	0.163100	0.771100
N151	N15	0.390500	0.379400	0.017000
N161	N16	0.353300	0.609000	0.218000
N171	N17	0.779500	0.247900	0.328100
N181	N18	0.442700	0.185500	0.204100
N191	N19	0.592900	0.377200	0.290000
N201	N20	0.671600	0.158600	0.129600
N211	N21	0.816300	0.780200	0.377400
N221	N22	0.600300	0.771100	0.163100
N231	N23	0.890500	0.017000	0.379400
N241	N24	0.853300	0.218000	0.609000
N251	N25	0.720500	0.671900	0.752100
N261	N26	0.057300	0.795900	0.814500
N271	N27	0.907100	0.710000	0.622800
N281	N28	0.828400	0.870400	0.841400
N291	N29	0.683700	0.622600	0.219800
N301	N30	0.899700	0.836900	0.228900
N311	N31	0.609500	0.620600	0.983000
N321	N32	0.646700	0.391000	0.782000
O11	O1	0.391600	0.910300	0.538900
O21	O2	0.544500	0.943200	0.597600
O31	O3	0.238800	0.547500	0.909700
O41	O4	0.248800	0.641800	0.995600
O51	O5	0.157100	0.768000	0.633800
O61	O6	0.196200	0.711100	0.706300
O71	O7	0.619200	0.870600	0.814200
O81	O8	0.555400	0.774600	0.830600
O91	O9	0.437600	0.655500	0.668900
O101	O10	0.420400	0.562900	0.706900
O111	O11	0.314500	0.874400	0.824200
O121	O12	0.331700	0.870200	0.934200
O131	O13	0.459700	0.059700	0.550900
O141	O14	0.582200	0.102500	0.632500
O151	O15	0.110000	0.236200	0.649000
O161	O16	0.159000	0.199100	0.560900
O171	O17	0.338200	0.239300	0.877900
O181	O18	0.489900	0.239400	0.856400
O191	O19	0.235600	0.006900	0.550700
O201	O20	0.227500	0.890300	0.436700
O211	O21	0.108400	0.461100	0.089700
O221	O22	0.955500	0.402400	0.056800
O231	O23	0.261200	0.090300	0.452500
O241	O24	0.251200	0.004400	0.358200
O251	O25	0.342900	0.366200	0.232000
O261	O26	0.303800	0.293700	0.288900
O271	O27	0.880800	0.185800	0.129400
O281	O28	0.944600	0.169400	0.225400
O291	O29	0.062400	0.331100	0.344500
O301	O30	0.079600	0.293100	0.437100
O311	O31	0.185500	0.175800	0.125600
O321	O32	0.168300	0.065800	0.129800
O331	O33	0.040300	0.449100	0.940300
O341	O34	0.917800	0.367500	0.897500
O351	O35	0.390000	0.351000	0.763800
O361	O36	0.341000	0.439100	0.800900
O371	O37	0.161800	0.122100	0.760700
O381	O38	0.010100	0.143600	0.760600
O391	O39	0.264400	0.449300	0.993100
O401	O40	0.272500	0.563300	0.109700
O411	O41	0.608400	0.089700	0.461100
O421	O42	0.455500	0.056800	0.402400
O431	O43	0.761200	0.452500	0.090300
O441	O44	0.751200	0.358200	0.004400
O451	O45	0.842900	0.232000	0.366200
O461	O46	0.803800	0.288900	0.293700
O471	O47	0.380800	0.129400	0.185800
O481	O48	0.444600	0.225400	0.169400
O491	O49	0.562400	0.344500	0.331100
O501	O50	0.579600	0.437100	0.293100
O511	O51	0.685500	0.125600	0.175800
O521	O52	0.668300	0.129800	0.065800
O531	O53	0.540300	0.940300	0.449100
O541	O54	0.417800	0.897500	0.367500
O551	O55	0.890000	0.763800	0.351000
O561	O56	0.841000	0.800900	0.439100
O571	O57	0.661800	0.760700	0.122100
O581	O58	0.510100	0.760600	0.143600
O591	O59	0.764400	0.993100	0.449300
O601	O60	0.772500	0.109700	0.563300
O611	O61	0.891600	0.538900	0.910300
O621	O62	0.044500	0.597600	0.943200
O631	O63	0.738800	0.909700	0.547500
O641	O64	0.748800	0.995600	0.641800
O651	O65	0.657100	0.633800	0.768000
O661	O66	0.696200	0.706300	0.711100
O671	O67	0.119200	0.814200	0.870600
O681	O68	0.055400	0.830600	0.774600
O691	O69	0.937600	0.668900	0.655500
O701	O70	0.920400	0.706900	0.562900
O711	O71	0.814500	0.824200	0.874400
O721	O72	0.831700	0.934200	0.870200
O731	O73	0.959700	0.550900	0.059700
O741	O74	0.082200	0.632500	0.102500
O751	O75	0.610000	0.649000	0.236200
O761	O76	0.659000	0.560900	0.199100
O771	O77	0.838200	0.877900	0.239300
O781	O78	0.989900	0.856400	0.239400
O791	O79	0.735600	0.550700	0.006900
O801	O80	0.727500	0.436700	0.890300
