data_XEGKUR_freeONLY_PM
_symmetry_space_group_name_H-M	'P1'
_cell_length_a	15.309000
_cell_length_b	18.775300
_cell_length_c	18.775300
_cell_angle_alpha	107.984000
_cell_angle_beta	95.822100
_cell_angle_gamma	95.822100
_symmetry_Int_Tables_number 1

loop_
_symmetry_equiv_pos_as_xyz
'x,y,z'

loop_
_atom_site_label
_atom_site_type_symbol
_atom_site_fract_x
_atom_site_fract_y
_atom_site_fract_z
Gd11	Gd1	0.617390	0.566680	0.015340
Gd21	Gd2	0.882610	0.984660	0.433320
Gd31	Gd3	0.382610	0.433320	0.984660
Gd41	Gd4	0.117390	0.015340	0.566680
H11	H1	0.508500	0.301600	0.110600
H21	H2	0.741200	0.438200	0.158800
H31	H3	0.755800	0.204700	0.401900
H41	H4	0.813600	0.068300	0.205100
H51	H5	0.470500	0.754700	0.183700
H61	H6	0.341700	0.551600	0.156600
H71	H7	0.840900	0.544300	0.986100
H81	H8	0.855300	0.367400	0.010400
H91	H9	0.906300	0.412800	0.091000
H101	H10	0.807900	0.423500	0.069300
H111	H11	0.012200	0.444200	0.044200
H121	H12	0.005700	0.527200	0.093600
H131	H13	0.797200	0.566000	0.140400
H141	H14	0.929100	0.761900	0.281100
H151	H15	0.828200	0.762200	0.256600
H161	H16	0.857000	0.715400	0.309000
H171	H17	0.004700	0.681100	0.202100
H181	H18	0.971700	0.612000	0.227400
H191	H19	0.958200	0.605300	0.141500
H201	H20	0.991500	0.889400	0.698400
H211	H21	0.758800	0.841200	0.561800
H221	H22	0.744200	0.598100	0.795300
H231	H23	0.686400	0.794900	0.931700
H241	H24	0.029500	0.816300	0.245300
H251	H25	0.158300	0.843400	0.448400
H261	H26	0.659100	0.013900	0.455700
H271	H27	0.644700	0.989600	0.632600
H281	H28	0.593700	0.909000	0.587200
H291	H29	0.692100	0.930700	0.576500
H301	H30	0.487800	0.955800	0.555800
H311	H31	0.494300	0.906400	0.472800
H321	H32	0.702800	0.859600	0.434000
H331	H33	0.570900	0.718900	0.238100
H341	H34	0.671800	0.743400	0.237800
H351	H35	0.643000	0.691000	0.284600
H361	H36	0.495300	0.797900	0.318900
H371	H37	0.528300	0.772600	0.388000
H381	H38	0.541800	0.858500	0.394700
H391	H39	0.491500	0.698400	0.889400
H401	H40	0.258800	0.561800	0.841200
H411	H41	0.244200	0.795300	0.598100
H421	H42	0.186400	0.931700	0.794900
H431	H43	0.529500	0.245300	0.816300
H441	H44	0.658300	0.448400	0.843400
H451	H45	0.159100	0.455700	0.013900
H461	H46	0.144700	0.632600	0.989600
H471	H47	0.093700	0.587200	0.909000
H481	H48	0.192100	0.576500	0.930700
H491	H49	0.987800	0.555800	0.955800
H501	H50	0.994300	0.472800	0.906400
H511	H51	0.202800	0.434000	0.859600
H521	H52	0.070900	0.238100	0.718900
H531	H53	0.171800	0.237800	0.743400
H541	H54	0.143000	0.284600	0.691000
H551	H55	0.995300	0.318900	0.797900
H561	H56	0.028300	0.388000	0.772600
H571	H57	0.041800	0.394700	0.858500
H581	H58	0.008500	0.110600	0.301600
H591	H59	0.241200	0.158800	0.438200
H601	H60	0.255800	0.401900	0.204700
H611	H61	0.313600	0.205100	0.068300
H621	H62	0.970500	0.183700	0.754700
H631	H63	0.841700	0.156600	0.551600
H641	H64	0.340900	0.986100	0.544300
H651	H65	0.355300	0.010400	0.367400
H661	H66	0.406300	0.091000	0.412800
H671	H67	0.307900	0.069300	0.423500
H681	H68	0.512200	0.044200	0.444200
H691	H69	0.505700	0.093600	0.527200
H701	H70	0.297200	0.140400	0.566000
H711	H71	0.429100	0.281100	0.761900
H721	H72	0.328200	0.256600	0.762200
H731	H73	0.357000	0.309000	0.715400
H741	H74	0.504700	0.202100	0.681100
H751	H75	0.471700	0.227400	0.612000
H761	H76	0.458200	0.141500	0.605300
C11	C1	0.577900	0.423800	0.086000
C21	C2	0.620600	0.378100	0.127300
C31	C3	0.568300	0.312800	0.130400
C41	C4	0.609000	0.265700	0.163900
C51	C5	0.698300	0.279100	0.195700
C61	C6	0.744500	0.344200	0.192200
C71	C7	0.706900	0.394500	0.158900
C81	C8	0.733600	0.230300	0.236900
C91	C9	0.729900	0.241900	0.311100
C101	C10	0.757900	0.193000	0.350200
C111	C11	0.789200	0.125900	0.309700
C121	C12	0.793400	0.112000	0.233000
C131	C13	0.768600	0.161600	0.199200
C141	C14	0.818000	0.075400	0.350000
C151	C15	0.482900	0.613700	0.111500
C161	C16	0.418300	0.648800	0.163000
C171	C17	0.423000	0.724700	0.192100
C181	C18	0.361200	0.759900	0.233500
C191	C19	0.286200	0.716100	0.245500
C201	C20	0.281800	0.638100	0.218900
C211	C21	0.346700	0.604100	0.176100
C221	C22	0.819900	0.502500	0.999300
C231	C23	0.863400	0.414900	0.051100
C241	C24	0.991100	0.490300	0.043700
C251	C25	0.798000	0.617200	0.146800
C261	C26	0.872000	0.732000	0.268000
C271	C27	0.959000	0.638000	0.192000
C281	C28	0.922100	0.914000	0.576200
C291	C29	0.879400	0.872700	0.621900
C301	C30	0.931700	0.869600	0.687200
C311	C31	0.891000	0.836100	0.734300
C321	C32	0.801700	0.804300	0.720900
C331	C33	0.755500	0.807800	0.655800
C341	C34	0.793100	0.841100	0.605500
C351	C35	0.766400	0.763100	0.769700
C361	C36	0.770100	0.688900	0.758100
C371	C37	0.742100	0.649800	0.807000
C381	C38	0.710800	0.690300	0.874100
C391	C39	0.706600	0.767000	0.888000
C401	C40	0.731400	0.800800	0.838400
C411	C41	0.682000	0.650000	0.924600
C421	C42	0.017100	0.888500	0.386300
C431	C43	0.081700	0.837000	0.351200
C441	C44	0.077000	0.807900	0.275300
C451	C45	0.138800	0.766500	0.240100
C461	C46	0.213800	0.754500	0.283900
C471	C47	0.218200	0.781100	0.361900
C481	C48	0.153300	0.823900	0.395900
C491	C49	0.680100	0.000700	0.497500
C501	C50	0.636600	0.948900	0.585100
C511	C51	0.508900	0.956300	0.509700
C521	C52	0.702000	0.853200	0.382800
C531	C53	0.628000	0.732000	0.268000
C541	C54	0.541000	0.808000	0.362000
C551	C55	0.422100	0.576200	0.914000
C561	C56	0.379400	0.621900	0.872700
C571	C57	0.431700	0.687200	0.869600
C581	C58	0.391000	0.734300	0.836100
C591	C59	0.301700	0.720900	0.804300
C601	C60	0.255500	0.655800	0.807800
C611	C61	0.293100	0.605500	0.841100
C621	C62	0.266400	0.769700	0.763100
C631	C63	0.270100	0.758100	0.688900
C641	C64	0.242100	0.807000	0.649800
C651	C65	0.210800	0.874100	0.690300
C661	C66	0.206600	0.888000	0.767000
C671	C67	0.231400	0.838400	0.800800
C681	C68	0.182000	0.924600	0.650000
C691	C69	0.517100	0.386300	0.888500
C701	C70	0.581700	0.351200	0.837000
C711	C71	0.577000	0.275300	0.807900
C721	C72	0.638800	0.240100	0.766500
C731	C73	0.713800	0.283900	0.754500
C741	C74	0.718200	0.361900	0.781100
C751	C75	0.653300	0.395900	0.823900
C761	C76	0.180100	0.497500	0.000700
C771	C77	0.136600	0.585100	0.948900
C781	C78	0.008900	0.509700	0.956300
C791	C79	0.202000	0.382800	0.853200
C801	C80	0.128000	0.268000	0.732000
C811	C81	0.041000	0.362000	0.808000
C821	C82	0.077900	0.086000	0.423800
C831	C83	0.120600	0.127300	0.378100
C841	C84	0.068300	0.130400	0.312800
C851	C85	0.109000	0.163900	0.265700
C861	C86	0.198300	0.195700	0.279100
C871	C87	0.244500	0.192200	0.344200
C881	C88	0.206900	0.158900	0.394500
C891	C89	0.233600	0.236900	0.230300
C901	C90	0.229900	0.311100	0.241900
C911	C91	0.257900	0.350200	0.193000
C921	C92	0.289200	0.309700	0.125900
C931	C93	0.293400	0.233000	0.112000
C941	C94	0.268600	0.199200	0.161600
C951	C95	0.318000	0.350000	0.075400
C961	C96	0.982900	0.111500	0.613700
C971	C97	0.918300	0.163000	0.648800
C981	C98	0.923000	0.192100	0.724700
C991	C99	0.861200	0.233500	0.759900
C1001	C100	0.786200	0.245500	0.716100
C1011	C101	0.781800	0.218900	0.638100
C1021	C102	0.846700	0.176100	0.604100
C1031	C103	0.319900	0.999300	0.502500
C1041	C104	0.363400	0.051100	0.414900
C1051	C105	0.491100	0.043700	0.490300
C1061	C106	0.298000	0.146800	0.617200
C1071	C107	0.372000	0.268000	0.732000
C1081	C108	0.459000	0.192000	0.638000
N11	N1	0.549500	0.198000	0.162600
N21	N2	0.837900	0.364700	0.226900
N31	N3	0.690900	0.307800	0.357200
N41	N4	0.776600	0.142500	0.118100
N51	N5	0.376600	0.844600	0.264600
N61	N6	0.205300	0.600600	0.237600
N71	N7	0.895400	0.476900	0.022500
N81	N8	0.872000	0.666000	0.200000
N91	N9	0.950500	0.837400	0.802000
N101	N10	0.662100	0.773100	0.635300
N111	N11	0.809100	0.642800	0.692200
N121	N12	0.723400	0.881900	0.857500
N131	N13	0.123400	0.735400	0.155400
N141	N14	0.294700	0.762400	0.399400
N151	N15	0.604600	0.977500	0.523100
N161	N16	0.628000	0.800000	0.334000
N171	N17	0.450500	0.802000	0.837400
N181	N18	0.162100	0.635300	0.773100
N191	N19	0.309100	0.692200	0.642800
N201	N20	0.223400	0.857500	0.881900
N211	N21	0.623400	0.155400	0.735400
N221	N22	0.794700	0.399400	0.762400
N231	N23	0.104600	0.523100	0.977500
N241	N24	0.128000	0.334000	0.800000
N251	N25	0.049500	0.162600	0.198000
N261	N26	0.337900	0.226900	0.364700
N271	N27	0.190900	0.357200	0.307800
N281	N28	0.276600	0.118100	0.142500
N291	N29	0.876600	0.264600	0.844600
N301	N30	0.705300	0.237600	0.600600
N311	N31	0.395400	0.022500	0.476900
N321	N32	0.372000	0.200000	0.666000
O11	O1	0.624900	0.484600	0.091200
O21	O2	0.501800	0.400100	0.052500
O31	O3	0.828900	0.099900	0.422700
O41	O4	0.830500	0.010700	0.312900
O51	O5	0.474300	0.199800	0.164800
O61	O6	0.584700	0.136900	0.143700
O71	O7	0.866400	0.428700	0.243900
O81	O8	0.879500	0.319400	0.240400
O91	O9	0.650000	0.300600	0.408400
O101	O10	0.714800	0.369700	0.344700
O111	O11	0.781200	0.193700	0.091300
O121	O12	0.780100	0.078200	0.084000
O131	O13	0.461800	0.546500	0.067700
O141	O14	0.553300	0.652700	0.114500
O151	O15	0.444900	0.877500	0.259500
O161	O16	0.351000	0.873900	0.324900
O171	O17	0.130300	0.610200	0.230200
O181	O18	0.214000	0.535000	0.226400
O191	O19	0.742600	0.498100	0.987900
O201	O20	0.737200	0.631400	0.109000
O211	O21	0.875100	0.908800	0.515400
O221	O22	0.998200	0.947500	0.599900
O231	O23	0.671100	0.577300	0.900100
O241	O24	0.669500	0.687100	0.989300
O251	O25	0.025700	0.835200	0.800200
O261	O26	0.915300	0.856300	0.863100
O271	O27	0.633600	0.756100	0.571300
O281	O28	0.620500	0.759600	0.680600
O291	O29	0.850000	0.591600	0.699400
O301	O30	0.785200	0.655300	0.630300
O311	O31	0.718800	0.908700	0.806300
O321	O32	0.719900	0.916000	0.921800
O331	O33	0.038200	0.932300	0.453500
O341	O34	0.946700	0.885500	0.347300
O351	O35	0.055100	0.740500	0.122500
O361	O36	0.149000	0.675100	0.126100
O371	O37	0.369700	0.769800	0.389800
O381	O38	0.286000	0.773600	0.465000
O391	O39	0.757400	0.012100	0.501900
O401	O40	0.762800	0.891000	0.368600
O411	O41	0.375100	0.515400	0.908800
O421	O42	0.498200	0.599900	0.947500
O431	O43	0.171100	0.900100	0.577300
O441	O44	0.169500	0.989300	0.687100
O451	O45	0.525700	0.800200	0.835200
O461	O46	0.415300	0.863100	0.856300
O471	O47	0.133600	0.571300	0.756100
O481	O48	0.120500	0.680600	0.759600
O491	O49	0.350000	0.699400	0.591600
O501	O50	0.285200	0.630300	0.655300
O511	O51	0.218800	0.806300	0.908700
O521	O52	0.219900	0.921800	0.916000
O531	O53	0.538200	0.453500	0.932300
O541	O54	0.446700	0.347300	0.885500
O551	O55	0.555100	0.122500	0.740500
O561	O56	0.649000	0.126100	0.675100
O571	O57	0.869700	0.389800	0.769800
O581	O58	0.786000	0.465000	0.773600
O591	O59	0.257400	0.501900	0.012100
O601	O60	0.262800	0.368600	0.891000
O611	O61	0.124900	0.091200	0.484600
O621	O62	0.001800	0.052500	0.400100
O631	O63	0.328900	0.422700	0.099900
O641	O64	0.330500	0.312900	0.010700
O651	O65	0.974300	0.164800	0.199800
O661	O66	0.084700	0.143700	0.136900
O671	O67	0.366400	0.243900	0.428700
O681	O68	0.379500	0.240400	0.319400
O691	O69	0.150000	0.408400	0.300600
O701	O70	0.214800	0.344700	0.369700
O711	O71	0.281200	0.091300	0.193700
O721	O72	0.280100	0.084000	0.078200
O731	O73	0.961800	0.067700	0.546500
O741	O74	0.053300	0.114500	0.652700
O751	O75	0.944900	0.259500	0.877500
O761	O76	0.851000	0.324900	0.873900
O771	O77	0.630300	0.230200	0.610200
O781	O78	0.714000	0.226400	0.535000
O791	O79	0.242600	0.987900	0.498100
O801	O80	0.237200	0.109000	0.631400
