data_XEGKIF_freeONLY_PM
_symmetry_space_group_name_H-M	'P1'
_cell_length_a	14.392000
_cell_length_b	16.669000
_cell_length_c	19.637000
_cell_angle_alpha	105.471000
_cell_angle_beta	96.286000
_cell_angle_gamma	95.100000
_symmetry_Int_Tables_number 1

loop_
_symmetry_equiv_pos_as_xyz
'x,y,z'

loop_
_atom_site_label
_atom_site_type_symbol
_atom_site_fract_x
_atom_site_fract_y
_atom_site_fract_z
Gd11	Gd1	0.873280	0.953280	0.942550
Gd21	Gd2	0.361700	0.458870	0.490400
Gd31	Gd3	0.126720	0.046720	0.057450
Gd41	Gd4	0.638300	0.541130	0.509600
H11	H1	0.924300	0.130800	0.815500
H21	H2	0.156500	0.245800	0.949300
H31	H3	0.245200	0.244600	0.597200
H41	H4	0.148000	0.463600	0.674800
H51	H5	0.786400	0.102800	0.073900
H61	H6	0.925600	0.082200	0.256200
H71	H7	0.650700	0.391600	0.371600
H81	H8	0.454000	0.196900	0.338100
H91	H9	0.705200	0.429400	0.678700
H101	H10	0.433300	0.352600	0.679100
H111	H11	0.701500	0.036400	0.754600
H121	H12	0.693700	0.195000	0.945700
H131	H13	0.630000	0.900000	0.964400
H141	H14	0.512800	0.833700	0.076200
H151	H15	0.515900	0.931300	0.092100
H161	H16	0.502000	0.874700	0.013000
H171	H17	0.753800	0.916000	0.126600
H181	H18	0.665100	0.929700	0.166100
H191	H19	0.689500	0.838700	0.133900
H201	H20	0.718000	0.839600	0.797100
H211	H21	0.660500	0.712300	0.719400
H221	H22	0.708200	0.592300	0.742400
H231	H23	0.879900	0.742000	0.911600
H241	H24	0.896300	0.595200	0.880300
H251	H25	0.193400	0.298800	0.391600
H261	H26	0.012700	0.428600	0.350600
H271	H27	0.030400	0.390300	0.271800
H281	H28	0.109600	0.452200	0.326800
H291	H29	0.030400	0.245800	0.256600
H301	H30	0.981900	0.253500	0.325300
H311	H31	0.075700	0.212700	0.318500
H321	H32	0.371900	0.669400	0.476100
H331	H33	0.285100	0.774300	0.461300
H341	H34	0.125000	0.756800	0.462100
H351	H35	0.148900	0.535000	0.501300
H361	H36	0.988400	0.697700	0.490100
H371	H37	0.075700	0.869200	0.184500
H381	H38	0.843500	0.754200	0.050700
H391	H39	0.754800	0.755400	0.402800
H401	H40	0.852000	0.536400	0.325200
H411	H41	0.213600	0.897200	0.926100
H421	H42	0.074400	0.917800	0.743800
H431	H43	0.349300	0.608400	0.628400
H441	H44	0.546000	0.803100	0.661900
H451	H45	0.294800	0.570600	0.321300
H461	H46	0.566700	0.647400	0.320900
H471	H47	0.298500	0.963600	0.245400
H481	H48	0.306300	0.805000	0.054300
H491	H49	0.370000	0.100000	0.035600
H501	H50	0.487200	0.166300	0.923800
H511	H51	0.484100	0.068700	0.907900
H521	H52	0.498000	0.125300	0.987000
H531	H53	0.246200	0.084000	0.873400
H541	H54	0.334900	0.070300	0.833900
H551	H55	0.310500	0.161300	0.866100
H561	H56	0.282000	0.160400	0.202900
H571	H57	0.339500	0.287700	0.280600
H581	H58	0.291800	0.407700	0.257600
H591	H59	0.120100	0.258000	0.088400
H601	H60	0.103700	0.404800	0.119700
H611	H61	0.806600	0.701200	0.608400
H621	H62	0.987300	0.571400	0.649400
H631	H63	0.969600	0.609700	0.728200
H641	H64	0.890400	0.547800	0.673200
H651	H65	0.969600	0.754200	0.743400
H661	H66	0.018100	0.746500	0.674700
H671	H67	0.924300	0.787300	0.681500
H681	H68	0.628100	0.330600	0.523900
H691	H69	0.714900	0.225700	0.538700
H701	H70	0.875000	0.243200	0.537900
H711	H71	0.851100	0.465000	0.498700
H721	H72	0.011600	0.302300	0.509900
C11	C1	0.012000	0.130000	0.940000
C21	C2	0.037000	0.180000	0.890000
C31	C3	0.980000	0.167000	0.826000
C41	C4	0.006000	0.208000	0.777000
C51	C5	0.090000	0.262000	0.789000
C61	C6	0.145000	0.273000	0.855000
C71	C7	0.119000	0.235000	0.905000
C81	C8	0.126000	0.297000	0.732000
C91	C9	0.175000	0.248000	0.681000
C101	C10	0.213000	0.279000	0.630000
C111	C11	0.204000	0.359000	0.628000
C121	C12	0.155000	0.409000	0.677000
C131	C13	0.117000	0.378000	0.728000
C141	C14	0.249000	0.393000	0.574000
C151	C15	0.955000	0.072000	0.123000
C161	C16	0.869000	0.091000	0.159000
C171	C17	0.791000	0.109000	0.123000
C181	C18	0.717000	0.138000	0.162000
C191	C19	0.719000	0.149000	0.231000
C201	C20	0.798000	0.120000	0.266000
C211	C21	0.873000	0.096000	0.232000
C221	C22	0.655000	0.199000	0.276000
C231	C23	0.681000	0.281000	0.307000
C241	C24	0.629000	0.335000	0.352000
C251	C25	0.545000	0.300000	0.364000
C261	C26	0.513000	0.219000	0.332000
C271	C27	0.568000	0.169000	0.289000
C281	C28	0.487000	0.354000	0.413000
C291	C29	0.537000	0.452000	0.622000
C301	C30	0.564000	0.401000	0.672000
C311	C31	0.659000	0.397000	0.693000
C321	C32	0.684000	0.345000	0.734000
C331	C33	0.618000	0.292000	0.754000
C341	C34	0.525000	0.299000	0.732000
C351	C35	0.497000	0.351000	0.692000
C361	C36	0.646000	0.227000	0.790000
C371	C37	0.664000	0.148000	0.751000
C381	C38	0.692000	0.089000	0.783000
C391	C39	0.705000	0.105000	0.855000
C401	C40	0.686000	0.183000	0.896000
C411	C41	0.658000	0.240000	0.863000
C421	C42	0.745000	0.044000	0.890000
C431	C43	0.671000	0.902000	0.005000
C441	C44	0.533000	0.882000	0.061000
C451	C45	0.690000	0.894000	0.127000
C461	C46	0.740000	0.792000	0.806000
C471	C47	0.704000	0.716000	0.759000
C481	C48	0.733000	0.645000	0.771000
C491	C49	0.801000	0.656000	0.829000
C501	C50	0.834000	0.736000	0.873000
C511	C51	0.845000	0.585000	0.845000
C521	C52	0.173000	0.346000	0.382000
C531	C53	0.059000	0.408000	0.321000
C541	C54	0.041000	0.255000	0.307000
C551	C55	0.307000	0.662000	0.477000
C561	C56	0.256000	0.726000	0.469000
C571	C57	0.162000	0.716000	0.471000
C581	C58	0.123000	0.649000	0.485000
C591	C59	0.179000	0.583000	0.493000
C601	C60	0.020000	0.652000	0.491000
C611	C61	0.988000	0.870000	0.060000
C621	C62	0.963000	0.820000	0.110000
C631	C63	0.020000	0.833000	0.174000
C641	C64	0.994000	0.792000	0.223000
C651	C65	0.910000	0.738000	0.211000
C661	C66	0.855000	0.727000	0.145000
C671	C67	0.881000	0.765000	0.095000
C681	C68	0.874000	0.703000	0.268000
C691	C69	0.825000	0.752000	0.319000
C701	C70	0.787000	0.721000	0.370000
C711	C71	0.796000	0.641000	0.372000
C721	C72	0.845000	0.591000	0.323000
C731	C73	0.883000	0.622000	0.272000
C741	C74	0.751000	0.607000	0.426000
C751	C75	0.045000	0.928000	0.877000
C761	C76	0.131000	0.909000	0.841000
C771	C77	0.209000	0.891000	0.877000
C781	C78	0.283000	0.862000	0.838000
C791	C79	0.281000	0.851000	0.769000
C801	C80	0.202000	0.880000	0.734000
C811	C81	0.127000	0.904000	0.768000
C821	C82	0.345000	0.801000	0.724000
C831	C83	0.319000	0.719000	0.693000
C841	C84	0.371000	0.665000	0.648000
C851	C85	0.455000	0.700000	0.636000
C861	C86	0.487000	0.781000	0.668000
C871	C87	0.432000	0.831000	0.711000
C881	C88	0.513000	0.646000	0.587000
C891	C89	0.463000	0.548000	0.378000
C901	C90	0.436000	0.599000	0.328000
C911	C91	0.341000	0.603000	0.307000
C921	C92	0.316000	0.655000	0.266000
C931	C93	0.382000	0.708000	0.246000
C941	C94	0.475000	0.701000	0.268000
C951	C95	0.503000	0.649000	0.308000
C961	C96	0.354000	0.773000	0.210000
C971	C97	0.336000	0.852000	0.249000
C981	C98	0.308000	0.911000	0.217000
C991	C99	0.295000	0.895000	0.145000
C1001	C100	0.314000	0.817000	0.104000
C1011	C101	0.342000	0.760000	0.137000
C1021	C102	0.255000	0.956000	0.110000
C1031	C103	0.329000	0.098000	0.995000
C1041	C104	0.467000	0.118000	0.939000
C1051	C105	0.310000	0.106000	0.873000
C1061	C106	0.260000	0.208000	0.194000
C1071	C107	0.296000	0.284000	0.241000
C1081	C108	0.267000	0.355000	0.229000
C1091	C109	0.199000	0.344000	0.171000
C1101	C110	0.166000	0.264000	0.127000
C1111	C111	0.155000	0.415000	0.155000
C1121	C112	0.827000	0.654000	0.618000
C1131	C113	0.941000	0.592000	0.679000
C1141	C114	0.959000	0.745000	0.693000
C1151	C115	0.693000	0.338000	0.523000
C1161	C116	0.744000	0.274000	0.531000
C1171	C117	0.838000	0.284000	0.529000
C1181	C118	0.877000	0.351000	0.515000
C1191	C119	0.821000	0.417000	0.507000
C1201	C120	0.980000	0.348000	0.509000
N11	N1	0.943000	0.190000	0.709000
N21	N2	0.232000	0.331000	0.875000
N31	N3	0.187000	0.161000	0.679000
N41	N4	0.064000	0.432000	0.776000
N51	N5	0.638000	0.159000	0.121000
N61	N6	0.806000	0.128000	0.343000
N71	N7	0.774000	0.323000	0.298000
N81	N8	0.533000	0.079000	0.257000
N91	N9	0.785000	0.339000	0.750000
N101	N10	0.448000	0.249000	0.753000
N111	N11	0.652000	0.123000	0.671000
N121	N12	0.636000	0.321000	0.911000
N131	N13	0.634000	0.889000	0.061000
N141	N14	0.803000	0.803000	0.863000
N151	N15	0.096000	0.338000	0.340000
N161	N16	0.270000	0.587000	0.488000
N171	N17	0.057000	0.810000	0.291000
N181	N18	0.768000	0.669000	0.125000
N191	N19	0.813000	0.839000	0.321000
N201	N20	0.936000	0.568000	0.224000
N211	N21	0.362000	0.841000	0.879000
N221	N22	0.194000	0.872000	0.657000
N231	N23	0.226000	0.677000	0.702000
N241	N24	0.467000	0.921000	0.743000
N251	N25	0.215000	0.661000	0.250000
N261	N26	0.552000	0.751000	0.247000
N271	N27	0.348000	0.877000	0.329000
N281	N28	0.364000	0.679000	0.089000
N291	N29	0.366000	0.111000	0.939000
N301	N30	0.197000	0.197000	0.137000
N311	N31	0.904000	0.662000	0.660000
N321	N32	0.730000	0.413000	0.512000
O11	O1	0.939000	0.078000	0.919600
O21	O2	0.068000	0.141000	0.997400
O31	O3	0.282000	0.342000	0.525000
O41	O4	0.257000	0.470000	0.579400
O51	O5	0.863000	0.160000	0.707000
O61	O6	0.975000	0.200000	0.656000
O71	O7	0.296000	0.316000	0.914000
O81	O8	0.241000	0.393000	0.854000
O91	O9	0.191000	0.139000	0.734000
O101	O10	0.190000	0.113000	0.621000
O111	O11	0.031000	0.409000	0.823000
O121	O12	0.057000	0.500000	0.770000
O131	O13	0.942000	0.040000	0.055000
O141	O14	0.034000	0.091000	0.158000
O151	O15	0.528000	0.419000	0.459400
O161	O16	0.401000	0.332000	0.410100
O171	O17	0.657000	0.194000	0.075000
O181	O18	0.560000	0.146000	0.135000
O191	O19	0.883000	0.143000	0.377000
O201	O20	0.735000	0.118000	0.369000
O211	O21	0.794000	0.306000	0.236000
O221	O22	0.825000	0.361000	0.346000
O231	O23	0.577000	0.029000	0.236000
O241	O24	0.452000	0.061000	0.248000
O251	O25	0.602000	0.497000	0.610100
O261	O26	0.451000	0.440000	0.594000
O271	O27	0.759000	0.062000	0.956200
O281	O28	0.767000	0.977000	0.850200
O291	O29	0.837000	0.354000	0.708000
O301	O30	0.812000	0.320000	0.804000
O311	O31	0.461000	0.204000	0.783000
O321	O32	0.373000	0.273000	0.753000
O331	O33	0.649000	0.176000	0.640000
O341	O34	0.655000	0.049000	0.641000
O351	O35	0.636000	0.382000	0.890000
O361	O36	0.620000	0.321000	0.970000
O371	O37	0.753000	0.915000	0.005000
O381	O38	0.815000	0.512000	0.811000
O391	O39	0.222000	0.416000	0.409900
O401	O40	0.990000	0.597000	0.498000
O411	O41	0.061000	0.922000	0.080400
O421	O42	0.932000	0.859000	0.002600
O431	O43	0.718000	0.658000	0.475000
O441	O44	0.743000	0.530000	0.420600
O451	O45	0.137000	0.840000	0.293000
O461	O46	0.025000	0.800000	0.344000
O471	O47	0.704000	0.684000	0.086000
O481	O48	0.759000	0.607000	0.146000
O491	O49	0.809000	0.861000	0.266000
O501	O50	0.810000	0.887000	0.379000
O511	O51	0.969000	0.591000	0.177000
O521	O52	0.943000	0.500000	0.230000
O531	O53	0.058000	0.960000	0.945000
O541	O54	0.966000	0.909000	0.842000
O551	O55	0.472000	0.581000	0.540600
O561	O56	0.599000	0.668000	0.589900
O571	O57	0.343000	0.806000	0.925000
O581	O58	0.440000	0.854000	0.865000
O591	O59	0.117000	0.857000	0.623000
O601	O60	0.265000	0.882000	0.631000
O611	O61	0.206000	0.694000	0.764000
O621	O62	0.175000	0.639000	0.654000
O631	O63	0.423000	0.971000	0.764000
O641	O64	0.548000	0.939000	0.752000
O651	O65	0.398000	0.503000	0.389900
O661	O66	0.549000	0.560000	0.406000
O671	O67	0.241000	0.938000	0.043800
O681	O68	0.233000	0.023000	0.149800
O691	O69	0.163000	0.646000	0.292000
O701	O70	0.188000	0.680000	0.196000
O711	O71	0.539000	0.796000	0.217000
O721	O72	0.627000	0.727000	0.247000
O731	O73	0.351000	0.824000	0.360000
O741	O74	0.345000	0.951000	0.359000
O751	O75	0.364000	0.618000	0.110000
O761	O76	0.380000	0.679000	0.030000
O771	O77	0.247000	0.085000	0.995000
O781	O78	0.185000	0.488000	0.189000
O791	O79	0.778000	0.584000	0.590100
O801	O80	0.010000	0.403000	0.502000
