data_XEHSUZ_freeONLY_PM
_symmetry_space_group_name_H-M	'P1'
_cell_length_a	9.904700
_cell_length_b	11.400700
_cell_length_c	14.535700
_cell_angle_alpha	91.317000
_cell_angle_beta	90.000000
_cell_angle_gamma	90.000000
_symmetry_Int_Tables_number 1

loop_
_symmetry_equiv_pos_as_xyz
'x,y,z'

loop_
_atom_site_label
_atom_site_type_symbol
_atom_site_fract_x
_atom_site_fract_y
_atom_site_fract_z
Mg11	Mg1	0.579200	0.744720	0.365090
Mg21	Mg2	0.387630	0.761270	0.190410
Mg31	Mg3	0.079200	0.755280	0.134910
Mg41	Mg4	0.887630	0.738730	0.309590
Mg51	Mg5	0.420800	0.255280	0.634910
Mg61	Mg6	0.612370	0.238730	0.809590
Mg71	Mg7	0.920800	0.244720	0.865090
Mg81	Mg8	0.112370	0.261270	0.690410
Mg91	Mg9	0.500000	0.000000	0.500000
Mg101	Mg10	0.000000	0.500000	0.000000
Mg111	Mg11	0.500000	0.500000	0.500000
Mg121	Mg12	0.000000	0.000000	0.000000
H11	H1	0.463000	0.022400	0.237600
H21	H2	0.877500	0.937700	0.458100
H31	H3	0.786900	0.494800	0.471500
H41	H4	0.739700	0.655400	0.127200
H51	H5	0.347800	0.802300	0.572300
H61	H6	0.291700	0.533500	0.278500
H71	H7	0.963000	0.477600	0.262400
H81	H8	0.377500	0.562300	0.041900
H91	H9	0.286900	0.005200	0.028500
H101	H10	0.239700	0.844600	0.372800
H111	H11	0.847800	0.697700	0.927700
H121	H12	0.791700	0.966500	0.221500
H131	H13	0.537000	0.977600	0.762400
H141	H14	0.122500	0.062300	0.541900
H151	H15	0.213100	0.505200	0.528500
H161	H16	0.260300	0.344600	0.872800
H171	H17	0.652200	0.197700	0.427700
H181	H18	0.708300	0.466500	0.721500
H191	H19	0.037000	0.522400	0.737600
H201	H20	0.622500	0.437700	0.958100
H211	H21	0.713100	0.994800	0.971500
H221	H22	0.760300	0.155400	0.627200
H231	H23	0.152200	0.302300	0.072300
H241	H24	0.208300	0.033500	0.778500
C11	C1	0.482880	0.980740	0.290110
C21	C2	0.786490	0.920430	0.449980
C31	C3	0.771260	0.560760	0.436520
C41	C4	0.670570	0.680660	0.166170
C51	C5	0.404100	0.759200	0.533050
C61	C6	0.358960	0.557150	0.319540
C71	C7	0.982880	0.519260	0.209890
C81	C8	0.286490	0.579570	0.050020
C91	C9	0.271260	0.939240	0.063480
C101	C10	0.170570	0.819340	0.333830
C111	C11	0.904100	0.740800	0.966950
C121	C12	0.858960	0.942850	0.180460
C131	C13	0.517120	0.019260	0.709890
C141	C14	0.213510	0.079570	0.550020
C151	C15	0.228740	0.439240	0.563480
C161	C16	0.329430	0.319340	0.833830
C171	C17	0.595900	0.240800	0.466950
C181	C18	0.641040	0.442850	0.680460
C191	C19	0.017120	0.480740	0.790110
C201	C20	0.713510	0.420430	0.949980
C211	C21	0.728740	0.060760	0.936520
C221	C22	0.829430	0.180660	0.666170
C231	C23	0.095900	0.259200	0.033050
C241	C24	0.141040	0.057150	0.819540
O11	O1	0.493250	0.869790	0.280840
O21	O2	0.496900	0.037900	0.362590
O31	O3	0.756520	0.840160	0.389990
O41	O4	0.705130	0.976530	0.497700
O51	O5	0.649810	0.597840	0.432710
O61	O6	0.870290	0.604320	0.398040
O71	O7	0.699720	0.696000	0.251210
O81	O8	0.558140	0.696480	0.131010
O91	O9	0.475240	0.816310	0.475500
O101	O10	0.404420	0.651660	0.540470
O111	O11	0.420250	0.652670	0.302800
O121	O12	0.380760	0.493300	0.385210
O131	O13	0.993250	0.630210	0.219160
O141	O14	0.996900	0.462100	0.137410
O151	O15	0.256520	0.659840	0.110010
O161	O16	0.205130	0.523470	0.002300
O171	O17	0.149810	0.902160	0.067290
O181	O18	0.370290	0.895680	0.101960
O191	O19	0.199720	0.804000	0.248790
O201	O20	0.058140	0.803520	0.368990
O211	O21	0.975240	0.683690	0.024500
O221	O22	0.904420	0.848340	0.959530
O231	O23	0.920250	0.847330	0.197200
O241	O24	0.880760	0.006700	0.114790
O251	O25	0.506750	0.130210	0.719160
O261	O26	0.503100	0.962100	0.637410
O271	O27	0.243480	0.159840	0.610010
O281	O28	0.294870	0.023470	0.502300
O291	O29	0.350190	0.402160	0.567290
O301	O30	0.129710	0.395680	0.601960
O311	O31	0.300280	0.304000	0.748790
O321	O32	0.441860	0.303520	0.868990
O331	O33	0.524760	0.183690	0.524500
O341	O34	0.595580	0.348340	0.459530
O351	O35	0.579750	0.347330	0.697200
O361	O36	0.619240	0.506700	0.614790
O371	O37	0.006750	0.369790	0.780840
O381	O38	0.003100	0.537900	0.862590
O391	O39	0.743480	0.340160	0.889990
O401	O40	0.794870	0.476530	0.997700
O411	O41	0.850190	0.097840	0.932710
O421	O42	0.629710	0.104320	0.898040
O431	O43	0.800280	0.196000	0.751210
O441	O44	0.941860	0.196480	0.631010
O451	O45	0.024760	0.316310	0.975500
O461	O46	0.095580	0.151660	0.040470
O471	O47	0.079750	0.152670	0.802800
O481	O48	0.119240	0.993300	0.885210
