data_XENMIO_SL_PM
_symmetry_space_group_name_H-M	'P1'
_cell_length_a	6.310800
_cell_length_b	12.639000
_cell_length_c	15.631000
_cell_angle_alpha	95.723000
_cell_angle_beta	99.878000
_cell_angle_gamma	97.860000
_symmetry_Int_Tables_number 1

loop_
_symmetry_equiv_pos_as_xyz
'x,y,z'

loop_
_atom_site_label
_atom_site_type_symbol
_atom_site_fract_x
_atom_site_fract_y
_atom_site_fract_z
Zn11	Zn1	0.479960	0.045820	0.899450
Zn21	Zn2	0.941430	0.038060	0.813730
Zn31	Zn3	0.520040	0.954180	0.100550
Zn41	Zn4	0.058570	0.961940	0.186270
Zn51	Zn5	0.000000	0.000000	0.000000
H61	H6	0.816300	0.269900	0.644200
H71	H7	0.422900	0.486800	0.588800
H81	H8	0.356100	0.317100	0.788200
H91	H9	0.532300	0.576600	0.795800
H101	H10	0.544300	0.729000	0.891900
H111	H11	0.894600	0.693900	0.841900
H121	H12	0.881200	0.542000	0.745100
H131	H13	0.450700	0.252800	0.457700
H141	H14	0.477800	0.128500	0.343900
H151	H15	0.103900	0.254500	0.364500
H161	H16	0.067500	0.383900	0.473300
H171	H17	0.183700	0.730100	0.355800
H181	H18	0.577100	0.513200	0.411200
H191	H19	0.643900	0.682900	0.211800
H201	H20	0.467700	0.423400	0.204200
H211	H21	0.455700	0.271000	0.108100
H221	H22	0.105400	0.306100	0.158100
H231	H23	0.118800	0.458000	0.254900
H241	H24	0.549300	0.747200	0.542300
H251	H25	0.522200	0.871500	0.656100
H261	H26	0.896100	0.745500	0.635500
H271	H27	0.932500	0.616100	0.526700
C281	C28	0.669400	0.195680	0.779990
C291	C29	0.597800	0.279780	0.724330
C301	C30	0.701600	0.304470	0.655880
C311	C31	0.632800	0.380640	0.605600
C321	C32	0.466100	0.434280	0.622600
C331	C33	0.364900	0.408700	0.690370
C341	C34	0.426300	0.332920	0.742250
C351	C35	0.206300	0.544580	0.761050
C361	C36	0.403800	0.600270	0.804830
C371	C37	0.410400	0.691540	0.862340
C381	C38	0.220500	0.728150	0.876720
C391	C39	0.023400	0.670750	0.832530
C401	C40	0.014900	0.579700	0.774760
C411	C41	0.225100	0.827230	0.936640
C421	C42	0.755900	0.329480	0.475620
C431	C43	0.581700	0.253700	0.437950
C441	C44	0.598800	0.178500	0.370870
C451	C45	0.795600	0.176650	0.342990
C461	C46	0.970800	0.254300	0.382410
C471	C47	0.949900	0.331100	0.447940
C481	C48	0.817500	0.093680	0.271580
C491	C49	0.330600	0.804320	0.220010
C501	C50	0.402200	0.720220	0.275670
C511	C51	0.298400	0.695530	0.344120
C521	C52	0.367200	0.619360	0.394400
C531	C53	0.533900	0.565720	0.377400
C541	C54	0.635100	0.591300	0.309630
C551	C55	0.573700	0.667080	0.257750
C561	C56	0.793700	0.455420	0.238950
C571	C57	0.596200	0.399730	0.195170
C581	C58	0.589600	0.308460	0.137660
C591	C59	0.779500	0.271850	0.123280
C601	C60	0.976600	0.329250	0.167470
C611	C61	0.985100	0.420300	0.225240
C621	C62	0.774900	0.172770	0.063360
C631	C63	0.244100	0.670520	0.524380
C641	C64	0.418300	0.746300	0.562050
C651	C65	0.401200	0.821500	0.629130
C661	C66	0.204400	0.823350	0.657010
C671	C67	0.029200	0.745700	0.617590
C681	C68	0.050100	0.668900	0.552060
C691	C69	0.182500	0.906320	0.728420
O701	O70	0.749900	0.981240	0.892170
O711	O71	0.186100	0.082090	0.913910
O721	O72	0.579700	0.180610	0.843670
O731	O73	0.817400	0.148190	0.757340
O741	O74	0.181900	0.454290	0.702660
O751	O75	0.048200	0.849410	0.952370
O761	O76	0.409000	0.885020	0.967880
O771	O77	0.739700	0.410920	0.539030
O781	O78	0.647200	0.045940	0.222780
O791	O79	0.007200	0.077900	0.265380
O801	O80	0.250100	0.018760	0.107830
O811	O81	0.813900	0.917910	0.086090
O821	O82	0.420300	0.819390	0.156330
O831	O83	0.182600	0.851810	0.242660
O841	O84	0.818100	0.545710	0.297340
O851	O85	0.951800	0.150590	0.047630
O861	O86	0.591000	0.114980	0.032120
O871	O87	0.260300	0.589080	0.460970
O881	O88	0.352800	0.954060	0.777220
O891	O89	0.992800	0.922100	0.734620
H901	H90	0.186100	0.161610	0.920320
H911	H91	0.250100	0.098280	0.114240
H921	H92	0.813900	0.838390	0.079680
H931	H93	0.749900	0.901720	0.885760
