data_XENMOU_SL_PM
_symmetry_space_group_name_H-M	'P1'
_cell_length_a	6.330300
_cell_length_b	12.681900
_cell_length_c	15.687700
_cell_angle_alpha	95.711000
_cell_angle_beta	99.773000
_cell_angle_gamma	97.973000
_symmetry_Int_Tables_number 1

loop_
_symmetry_equiv_pos_as_xyz
'x,y,z'

loop_
_atom_site_label
_atom_site_type_symbol
_atom_site_fract_x
_atom_site_fract_y
_atom_site_fract_z
Zn11	Zn1	0.519970	0.953830	0.100460
Zn21	Zn2	0.058600	0.961810	0.186120
H31	H3	0.188200	0.732100	0.356500
H41	H4	0.579100	0.514100	0.412000
H51	H5	0.640500	0.683500	0.211300
H61	H6	0.118000	0.459700	0.253100
H71	H7	0.104400	0.307200	0.158300
H81	H8	0.455900	0.270300	0.108300
H91	H9	0.469000	0.424000	0.203700
H101	H10	0.932500	0.615700	0.527800
H111	H11	0.897300	0.746000	0.636100
H121	H12	0.520200	0.874000	0.656100
H131	H13	0.551500	0.747300	0.543200
H141	H14	0.711000	0.913500	0.876000
C151	C15	0.329800	0.803200	0.220100
C161	C16	0.401900	0.720100	0.275100
C171	C17	0.300400	0.696500	0.344300
C181	C18	0.367000	0.619800	0.394800
C191	C19	0.535100	0.566000	0.378100
C201	C20	0.635800	0.592100	0.309100
C211	C21	0.571500	0.667700	0.257300
C221	C22	0.793900	0.456000	0.238300
C231	C23	0.984700	0.421500	0.224300
C241	C24	0.976000	0.330400	0.167400
C251	C25	0.778800	0.272700	0.123400
C261	C26	0.589300	0.308200	0.137400
C271	C27	0.597000	0.400200	0.194700
C281	C28	0.774900	0.173000	0.063600
C291	C29	0.244300	0.670800	0.524600
C301	C30	0.049700	0.668700	0.552600
C311	C31	0.029900	0.745900	0.618100
C321	C32	0.205200	0.823000	0.657100
C331	C33	0.401000	0.823000	0.629600
C341	C34	0.420300	0.746800	0.562400
C351	C35	0.185200	0.906600	0.728900
O361	O36	0.749700	0.980400	0.892200
O371	O37	0.187000	0.082100	0.913000
O381	O38	0.420100	0.818400	0.155800
O391	O39	0.181600	0.851500	0.243000
O401	O40	0.819100	0.546200	0.297400
O411	O41	0.952800	0.151200	0.047900
O421	O42	0.591100	0.115200	0.032500
O431	O43	0.261400	0.589000	0.461100
O441	O44	0.354000	0.954800	0.776900
O451	O45	0.992000	0.922300	0.734300
H461	H46	0.813000	0.838650	0.080630
Zn471	Zn47	0.480030	0.046170	0.899540
Zn481	Zn48	0.941400	0.038190	0.813880
H491	H49	0.811800	0.267900	0.643500
H501	H50	0.420900	0.485900	0.588000
H511	H51	0.359500	0.316500	0.788700
H521	H52	0.882000	0.540300	0.746900
H531	H53	0.895600	0.692800	0.841700
H541	H54	0.544100	0.729700	0.891700
H551	H55	0.531000	0.576000	0.796300
H561	H56	0.067500	0.384300	0.472200
H571	H57	0.102700	0.254000	0.363900
H581	H58	0.479800	0.126000	0.343900
H591	H59	0.448500	0.252700	0.456800
H601	H60	0.289000	0.086500	0.124000
C611	C61	0.670200	0.196800	0.779900
C621	C62	0.598100	0.279900	0.724900
C631	C63	0.699600	0.303500	0.655700
C641	C64	0.633000	0.380200	0.605200
C651	C65	0.464900	0.434000	0.621900
C661	C66	0.364200	0.407900	0.690900
C671	C67	0.428500	0.332300	0.742700
C681	C68	0.206100	0.544000	0.761700
C691	C69	0.015300	0.578500	0.775700
C701	C70	0.024000	0.669600	0.832600
C711	C71	0.221200	0.727300	0.876600
C721	C72	0.410700	0.691800	0.862600
C731	C73	0.403000	0.599800	0.805300
C741	C74	0.225100	0.827000	0.936400
C751	C75	0.755700	0.329200	0.475400
C761	C76	0.950300	0.331300	0.447400
C771	C77	0.970100	0.254100	0.381900
C781	C78	0.794800	0.177000	0.342900
C791	C79	0.599000	0.177000	0.370400
C801	C80	0.579700	0.253200	0.437600
C811	C81	0.814800	0.093400	0.271100
O821	O82	0.250300	0.019600	0.107800
O831	O83	0.813000	0.917900	0.087000
O841	O84	0.579900	0.181600	0.844200
O851	O85	0.818400	0.148500	0.757000
O861	O86	0.180900	0.453800	0.702600
O871	O87	0.047200	0.848800	0.952100
O881	O88	0.408900	0.884800	0.967500
O891	O89	0.738600	0.411000	0.538900
O901	O90	0.646000	0.045200	0.223100
O911	O91	0.008000	0.077700	0.265700
H921	H92	0.187000	0.161350	0.919370
Zn931	Zn93	0.000000	0.000000	0.000000
