data_XESKAJ_freeONLY_PM
_symmetry_space_group_name_H-M	'P1'
_cell_length_a	6.296620
_cell_length_b	16.361400
_cell_length_c	16.361400
_cell_angle_alpha	61.620100
_cell_angle_beta	82.629700
_cell_angle_gamma	97.370300
_symmetry_Int_Tables_number 1

loop_
_symmetry_equiv_pos_as_xyz
'x,y,z'

loop_
_atom_site_label
_atom_site_type_symbol
_atom_site_fract_x
_atom_site_fract_y
_atom_site_fract_z
Mg11	Mg1	0.455230	0.746860	0.580520
Mg21	Mg2	0.035750	0.580520	0.672620
Mg31	Mg3	0.708370	0.672620	0.746860
Mg41	Mg4	0.544770	0.253140	0.419480
Mg51	Mg5	0.964250	0.419480	0.327380
Mg61	Mg6	0.291630	0.327380	0.253140
P11	P1	0.008730	0.803870	0.535590
P21	P2	0.544320	0.535590	0.660540
P31	P3	0.204860	0.660540	0.803870
P41	P4	0.991270	0.196130	0.464410
P51	P5	0.455680	0.464410	0.339460
P61	P6	0.795140	0.339460	0.196130
H11	H1	0.123800	0.947100	0.532000
H21	H2	0.115500	0.861700	0.633200
H31	H3	0.412700	0.943600	0.400400
H41	H4	0.645300	0.959900	0.421500
H51	H5	0.666400	0.928100	0.586500
H61	H6	0.445500	0.893700	0.661300
H71	H7	0.728200	0.810600	0.424600
H81	H8	0.566700	0.768100	0.400700
H91	H9	0.655800	0.532000	0.520900
H101	H10	0.748700	0.633200	0.505100
H111	H11	0.813100	0.400400	0.656000
H121	H12	0.066800	0.421500	0.618600
H131	H13	0.252900	0.586500	0.485400
H141	H14	0.106800	0.661300	0.445000
H151	H15	0.152800	0.424600	0.764800
H161	H16	0.967400	0.400700	0.831200
H171	H17	0.176700	0.520900	0.947100
H181	H18	0.253800	0.505100	0.861700
H191	H19	0.469100	0.656000	0.943600
H201	H20	0.685400	0.618600	0.959900
H211	H21	0.738300	0.485400	0.928100
H221	H22	0.551800	0.445000	0.893700
H231	H23	0.917600	0.764800	0.810600
H241	H24	0.798600	0.831200	0.768100
H251	H25	0.876200	0.052900	0.468000
H261	H26	0.884500	0.138300	0.366800
H271	H27	0.587300	0.056400	0.599600
H281	H28	0.354700	0.040100	0.578500
H291	H29	0.333600	0.071900	0.413500
H301	H30	0.554500	0.106300	0.338700
H311	H31	0.271800	0.189400	0.575400
H321	H32	0.433300	0.231900	0.599300
H331	H33	0.344200	0.468000	0.479100
H341	H34	0.251300	0.366800	0.494900
H351	H35	0.186900	0.599600	0.344000
H361	H36	0.933200	0.578500	0.381400
H371	H37	0.747100	0.413500	0.514600
H381	H38	0.893200	0.338700	0.555000
H391	H39	0.847200	0.575400	0.235200
H401	H40	0.032600	0.599300	0.168800
H411	H41	0.823300	0.479100	0.052900
H421	H42	0.746200	0.494900	0.138300
H431	H43	0.530900	0.344000	0.056400
H441	H44	0.314600	0.381400	0.040100
H451	H45	0.261700	0.514600	0.071900
H461	H46	0.448200	0.555000	0.106300
H471	H47	0.082400	0.235200	0.189400
H481	H48	0.201400	0.168800	0.231900
C11	C1	0.160010	0.885270	0.565540
C21	C2	0.493970	0.963420	0.436810
C31	C3	0.514230	0.933200	0.594210
C41	C4	0.725550	0.565540	0.549190
C51	C5	0.930780	0.436810	0.599770
C61	C6	0.108440	0.594210	0.472590
C71	C7	0.274740	0.549190	0.885270
C81	C8	0.530550	0.599770	0.963420
C91	C9	0.581030	0.472590	0.933200
C101	C10	0.839990	0.114730	0.434460
C111	C11	0.506030	0.036580	0.563190
C121	C12	0.485770	0.066800	0.405790
C131	C13	0.274450	0.434460	0.450810
C141	C14	0.069220	0.563190	0.400230
C151	C15	0.891560	0.405790	0.527410
C161	C16	0.725260	0.450810	0.114730
C171	C17	0.469450	0.400230	0.036580
C181	C18	0.418970	0.527410	0.066800
N11	N1	0.403130	0.895880	0.539790
N21	N2	0.942920	0.539790	0.564330
N31	N3	0.507250	0.564330	0.895880
N41	N4	0.596870	0.104120	0.460210
N51	N5	0.057080	0.460210	0.435670
N61	N6	0.492750	0.435670	0.104120
O11	O1	0.005400	0.852590	0.431190
O21	O2	0.776750	0.768150	0.598600
O31	O3	0.132740	0.722960	0.566940
O41	O4	0.584410	0.782160	0.443530
O51	O5	0.436590	0.431190	0.716220
O61	O6	0.375350	0.598600	0.633250
O71	O7	0.699680	0.566940	0.710100
O81	O8	0.027940	0.443530	0.774310
O91	O9	0.152810	0.716220	0.852590
O101	O10	0.008600	0.633250	0.768150
O111	O11	0.409780	0.710100	0.722960
O121	O12	0.802250	0.774310	0.782160
O131	O13	0.994600	0.147410	0.568810
O141	O14	0.223250	0.231850	0.401400
O151	O15	0.867260	0.277040	0.433060
O161	O16	0.415590	0.217840	0.556470
O171	O17	0.563410	0.568810	0.283780
O181	O18	0.624650	0.401400	0.366750
O191	O19	0.300320	0.433060	0.289900
O201	O20	0.972060	0.556470	0.225690
O211	O21	0.847190	0.283780	0.147410
O221	O22	0.991400	0.366750	0.231850
O231	O23	0.590220	0.289900	0.277040
O241	O24	0.197750	0.225690	0.217840
