data_XEXLAP_freeONLY_PM
_symmetry_space_group_name_H-M	'P1'
_cell_length_a	5.016900
_cell_length_b	20.694900
_cell_length_c	24.985100
_cell_angle_alpha	90.000000
_cell_angle_beta	90.000000
_cell_angle_gamma	95.721000
_symmetry_Int_Tables_number 1

loop_
_symmetry_equiv_pos_as_xyz
'x,y,z'

loop_
_atom_site_label
_atom_site_type_symbol
_atom_site_fract_x
_atom_site_fract_y
_atom_site_fract_z
Mn11	Mn1	0.179340	0.061540	0.960450
Mn21	Mn2	0.320660	0.438460	0.460450
Mn31	Mn3	0.820660	0.938460	0.039550
Mn41	Mn4	0.679340	0.561540	0.539550
H11	H1	0.681600	0.341600	0.402400
H21	H2	0.691700	0.279200	0.324500
H31	H3	0.079900	0.369800	0.263200
H41	H4	0.069700	0.432200	0.341100
H51	H5	0.940000	0.312700	0.122600
H61	H6	0.998000	0.243800	0.051200
H71	H7	0.014600	0.043200	0.140700
H81	H8	0.935800	0.117700	0.206000
H91	H9	0.818400	0.158400	0.902400
H101	H10	0.808300	0.220800	0.824500
H111	H11	0.420100	0.130200	0.763200
H121	H12	0.430300	0.067800	0.841100
H131	H13	0.560000	0.187300	0.622600
H141	H14	0.502000	0.256200	0.551200
H151	H15	0.485400	0.456800	0.640700
H161	H16	0.564200	0.382300	0.706000
H171	H17	0.318400	0.658400	0.597600
H181	H18	0.308300	0.720800	0.675500
H191	H19	0.920100	0.630200	0.736800
H201	H20	0.930300	0.567800	0.658900
H211	H21	0.060000	0.687300	0.877400
H221	H22	0.002000	0.756200	0.948800
H231	H23	0.985400	0.956800	0.859300
H241	H24	0.064200	0.882300	0.794000
H251	H25	0.181600	0.841600	0.097600
H261	H26	0.191700	0.779200	0.175500
H271	H27	0.579900	0.869800	0.236800
H281	H28	0.569700	0.932200	0.158900
H291	H29	0.440000	0.812700	0.377400
H301	H30	0.498000	0.743800	0.448800
H311	H31	0.514600	0.543200	0.359300
H321	H32	0.435800	0.617700	0.294000
C11	C1	0.559400	0.347300	0.374200
C21	C2	0.565400	0.310200	0.327900
C31	C3	0.387000	0.318600	0.286500
C41	C4	0.202000	0.364000	0.291500
C51	C5	0.196000	0.401100	0.337800
C61	C6	0.589000	0.300300	0.201600
C71	C7	0.620000	0.257200	0.154700
C81	C8	0.452800	0.198500	0.149500
C91	C9	0.247000	0.184200	0.186900
C101	C10	0.200000	0.227800	0.231900
C111	C11	0.825000	0.273600	0.118500
C121	C12	0.859000	0.232100	0.076300
C131	C13	0.700000	0.174100	0.069100
C141	C14	0.499600	0.155500	0.106600
C151	C15	0.333500	0.095300	0.106200
C161	C16	0.126800	0.082900	0.142900
C171	C17	0.082000	0.126700	0.182000
C181	C18	0.393300	0.037200	0.072600
C191	C19	0.749300	0.139300	0.017500
C201	C20	0.940600	0.152700	0.874200
C211	C21	0.934600	0.189800	0.827900
C221	C22	0.113000	0.181400	0.786500
C231	C23	0.298000	0.136000	0.791500
C241	C24	0.304000	0.098900	0.837800
C251	C25	0.911000	0.199700	0.701600
C261	C26	0.880000	0.242800	0.654700
C271	C27	0.047200	0.301500	0.649500
C281	C28	0.253000	0.315800	0.686900
C291	C29	0.300000	0.272200	0.731900
C301	C30	0.675000	0.226400	0.618500
C311	C31	0.641000	0.267900	0.576300
C321	C32	0.800000	0.325900	0.569100
C331	C33	0.000400	0.344500	0.606600
C341	C34	0.166500	0.404700	0.606200
C351	C35	0.373200	0.417100	0.642900
C361	C36	0.418000	0.373300	0.682000
C371	C37	0.106700	0.462800	0.572600
C381	C38	0.750700	0.360700	0.517500
C391	C39	0.440600	0.652700	0.625800
C401	C40	0.434600	0.689800	0.672100
C411	C41	0.613000	0.681400	0.713500
C421	C42	0.798000	0.636000	0.708500
C431	C43	0.804000	0.598900	0.662200
C441	C44	0.411000	0.699700	0.798400
C451	C45	0.380000	0.742800	0.845300
C461	C46	0.547200	0.801500	0.850500
C471	C47	0.753000	0.815800	0.813100
C481	C48	0.800000	0.772200	0.768100
C491	C49	0.175000	0.726400	0.881500
C501	C50	0.141000	0.767900	0.923700
C511	C51	0.300000	0.825900	0.930900
C521	C52	0.500400	0.844500	0.893400
C531	C53	0.666500	0.904700	0.893800
C541	C54	0.873200	0.917100	0.857100
C551	C55	0.918000	0.873300	0.818000
C561	C56	0.606700	0.962800	0.927400
C571	C57	0.250700	0.860700	0.982500
C581	C58	0.059400	0.847300	0.125800
C591	C59	0.065400	0.810200	0.172100
C601	C60	0.887000	0.818600	0.213500
C611	C61	0.702000	0.864000	0.208500
C621	C62	0.696000	0.901100	0.162200
C631	C63	0.089000	0.800300	0.298400
C641	C64	0.120000	0.757200	0.345300
C651	C65	0.952800	0.698500	0.350500
C661	C66	0.747000	0.684200	0.313100
C671	C67	0.700000	0.727800	0.268100
C681	C68	0.325000	0.773600	0.381500
C691	C69	0.359000	0.732100	0.423700
C701	C70	0.200000	0.674100	0.430900
C711	C71	0.999600	0.655500	0.393400
C721	C72	0.833500	0.595300	0.393800
C731	C73	0.626800	0.582900	0.357100
C741	C74	0.582000	0.626700	0.318000
C751	C75	0.893300	0.537200	0.427400
C761	C76	0.249300	0.639300	0.482500
N11	N1	0.374700	0.392800	0.379100
N21	N2	0.394300	0.280800	0.237200
N31	N3	0.125300	0.107200	0.879100
N41	N4	0.105700	0.219200	0.737200
N51	N5	0.625300	0.607200	0.620900
N61	N6	0.605700	0.719200	0.762800
N71	N7	0.874700	0.892800	0.120900
N81	N8	0.894300	0.780800	0.262800
O11	O1	0.214300	0.009600	0.042000
O21	O2	0.620000	0.018700	0.079600
O31	O3	0.552500	0.121800	0.988700
O41	O4	0.985100	0.136300	0.006000
O51	O5	0.734900	0.351300	0.206900
O61	O6	0.016600	0.218000	0.263900
O71	O7	0.285700	0.490400	0.542000
O81	O8	0.880000	0.481300	0.579600
O91	O9	0.947500	0.378200	0.488700
O101	O10	0.514900	0.363700	0.506000
O111	O11	0.765100	0.148700	0.706900
O121	O12	0.483400	0.282000	0.763900
O131	O13	0.785700	0.990400	0.958000
O141	O14	0.380000	0.981300	0.920400
O151	O15	0.447500	0.878200	0.011300
O161	O16	0.014900	0.863700	0.994000
O171	O17	0.265100	0.648700	0.793100
O181	O18	0.983400	0.782000	0.736100
O191	O19	0.714300	0.509600	0.458000
O201	O20	0.120000	0.518700	0.420400
O211	O21	0.052500	0.621800	0.511300
O221	O22	0.485100	0.636300	0.494000
O231	O23	0.234900	0.851300	0.293100
O241	O24	0.516600	0.718000	0.236100
