data_XEXLOD_freeONLY_PM
_symmetry_space_group_name_H-M	'P1'
_cell_length_a	5.579700
_cell_length_b	16.793100
_cell_length_c	25.923100
_cell_angle_alpha	90.000000
_cell_angle_beta	90.000000
_cell_angle_gamma	98.575000
_symmetry_Int_Tables_number 1

loop_
_symmetry_equiv_pos_as_xyz
'x,y,z'

loop_
_atom_site_label
_atom_site_type_symbol
_atom_site_fract_x
_atom_site_fract_y
_atom_site_fract_z
Zn11	Zn1	0.119230	0.579620	0.520870
Zn21	Zn2	0.880770	0.920380	0.020870
Zn31	Zn3	0.880770	0.420380	0.479130
Zn41	Zn4	0.119230	0.079620	0.979130
H11	H1	0.447900	0.871900	0.088400
H21	H2	0.382100	0.798200	0.164700
H31	H3	0.956500	0.686900	0.128600
H41	H4	0.010000	0.764900	0.054300
H51	H5	0.116900	0.531200	0.249700
H61	H6	0.058600	0.479200	0.333800
H71	H7	0.063400	0.701100	0.404500
H81	H8	0.105200	0.754400	0.321400
H91	H9	0.552100	0.628100	0.588400
H101	H10	0.617900	0.701800	0.664700
H111	H11	0.043500	0.813100	0.628600
H121	H12	0.990000	0.735100	0.554300
H131	H13	0.883100	0.968800	0.749700
H141	H14	0.941400	0.020800	0.833800
H151	H15	0.936600	0.798900	0.904500
H161	H16	0.894800	0.745600	0.821400
H171	H17	0.552100	0.128100	0.911600
H181	H18	0.617900	0.201800	0.835300
H191	H19	0.043500	0.313100	0.871400
H201	H20	0.990000	0.235100	0.945700
H211	H21	0.883100	0.468800	0.750300
H221	H22	0.941400	0.520800	0.666200
H231	H23	0.936600	0.298900	0.595500
H241	H24	0.894800	0.245600	0.678600
H251	H25	0.447900	0.371900	0.411600
H261	H26	0.382100	0.298200	0.335300
H271	H27	0.956500	0.186900	0.371400
H281	H28	0.010000	0.264900	0.445700
H291	H29	0.116900	0.031200	0.250300
H301	H30	0.058600	0.979200	0.166200
H311	H31	0.063400	0.201100	0.095500
H321	H32	0.105200	0.254400	0.178600
C11	C1	0.554700	0.835100	0.097460
C21	C2	0.514400	0.791700	0.142810
C31	C3	0.672300	0.738900	0.155280
C41	C4	0.854400	0.726100	0.121600
C51	C5	0.883200	0.772200	0.077470
C61	C6	0.446100	0.642600	0.213410
C71	C7	0.424500	0.606900	0.265940
C81	C8	0.597600	0.632200	0.304210
C91	C9	0.802200	0.689200	0.292480
C101	C10	0.836400	0.724100	0.239980
C111	C11	0.228500	0.549900	0.276320
C121	C12	0.193800	0.519200	0.326720
C131	C13	0.351800	0.545900	0.365750
C141	C14	0.565600	0.600640	0.355350
C151	C15	0.750100	0.626800	0.392320
C161	C16	0.944300	0.683200	0.379210
C171	C17	0.970400	0.714900	0.329560
C181	C18	0.263900	0.523900	0.419710
C191	C19	0.773900	0.586000	0.443730
C201	C20	0.445300	0.664900	0.597460
C211	C21	0.485600	0.708300	0.642810
C221	C22	0.327700	0.761100	0.655280
C231	C23	0.145600	0.773900	0.621600
C241	C24	0.116800	0.727800	0.577470
C251	C25	0.553900	0.857400	0.713410
C261	C26	0.575500	0.893100	0.765940
C271	C27	0.402400	0.867800	0.804210
C281	C28	0.197800	0.810800	0.792480
C291	C29	0.163600	0.775900	0.739980
C301	C30	0.771500	0.950100	0.776320
C311	C31	0.806200	0.980800	0.826720
C321	C32	0.648200	0.954100	0.865750
C331	C33	0.434400	0.899360	0.855350
C341	C34	0.249900	0.873200	0.892320
C351	C35	0.055700	0.816800	0.879210
C361	C36	0.029600	0.785100	0.829560
C371	C37	0.736100	0.976100	0.919710
C381	C38	0.226100	0.914000	0.943730
C391	C39	0.445300	0.164900	0.902540
C401	C40	0.485600	0.208300	0.857190
C411	C41	0.327700	0.261100	0.844720
C421	C42	0.145600	0.273900	0.878400
C431	C43	0.116800	0.227800	0.922530
C441	C44	0.553900	0.357400	0.786590
C451	C45	0.575500	0.393100	0.734060
C461	C46	0.402400	0.367800	0.695790
C471	C47	0.197800	0.310800	0.707520
C481	C48	0.163600	0.275900	0.760020
C491	C49	0.771500	0.450100	0.723680
C501	C50	0.806200	0.480800	0.673280
C511	C51	0.648200	0.454100	0.634250
C521	C52	0.434400	0.399360	0.644650
C531	C53	0.249900	0.373200	0.607680
C541	C54	0.055700	0.316800	0.620790
C551	C55	0.029600	0.285100	0.670440
C561	C56	0.736100	0.476100	0.580290
C571	C57	0.226100	0.414000	0.556270
C581	C58	0.554700	0.335100	0.402540
C591	C59	0.514400	0.291700	0.357190
C601	C60	0.672300	0.238900	0.344720
C611	C61	0.854400	0.226100	0.378400
C621	C62	0.883200	0.272200	0.422530
C631	C63	0.446100	0.142600	0.286590
C641	C64	0.424500	0.106900	0.234060
C651	C65	0.597600	0.132200	0.195790
C661	C66	0.802200	0.189200	0.207520
C671	C67	0.836400	0.224100	0.260020
C681	C68	0.228500	0.049900	0.223680
C691	C69	0.193800	0.019200	0.173280
C701	C70	0.351800	0.045900	0.134250
C711	C71	0.565600	0.100640	0.144650
C721	C72	0.750100	0.126800	0.107680
C731	C73	0.944300	0.183200	0.120790
C741	C74	0.970400	0.214900	0.170440
C751	C75	0.263900	0.023900	0.080290
C761	C76	0.773900	0.086000	0.056270
N11	N1	0.739500	0.826870	0.065850
N21	N2	0.652100	0.699650	0.204580
N31	N3	0.260500	0.673130	0.565850
N41	N4	0.347900	0.800350	0.704580
N51	N5	0.260500	0.173130	0.934150
N61	N6	0.347900	0.300350	0.795420
N71	N7	0.739500	0.326870	0.434150
N81	N8	0.652100	0.199650	0.295420
O11	O1	0.289100	0.579930	0.452420
O21	O2	0.154800	0.454650	0.426250
O31	O3	0.727900	0.510540	0.444010
O41	O4	0.862400	0.630060	0.480110
O51	O5	0.299000	0.625870	0.179560
O61	O6	0.010800	0.773350	0.228330
O71	O7	0.710900	0.920070	0.952420
O81	O8	0.845200	0.045350	0.926250
O91	O9	0.272100	0.989460	0.944010
O101	O10	0.137600	0.869940	0.980110
O111	O11	0.701000	0.874130	0.679560
O121	O12	0.989200	0.726650	0.728330
O131	O13	0.710900	0.420070	0.547580
O141	O14	0.845200	0.545350	0.573750
O151	O15	0.272100	0.489460	0.555990
O161	O16	0.137600	0.369940	0.519890
O171	O17	0.701000	0.374130	0.820440
O181	O18	0.989200	0.226650	0.771670
O191	O19	0.289100	0.079930	0.047580
O201	O20	0.154800	0.954650	0.073750
O211	O21	0.727900	0.010540	0.055990
O221	O22	0.862400	0.130060	0.019890
O231	O23	0.299000	0.125870	0.320440
O241	O24	0.010800	0.273350	0.271670
