data_XICYAL_freeONLY_PM
_symmetry_space_group_name_H-M	'P1'
_cell_length_a	17.994600
_cell_length_b	20.490000
_cell_length_c	27.772000
_cell_angle_alpha	82.113000
_cell_angle_beta	72.543000
_cell_angle_gamma	84.884000
_symmetry_Int_Tables_number 1

loop_
_symmetry_equiv_pos_as_xyz
'x,y,z'

loop_
_atom_site_label
_atom_site_type_symbol
_atom_site_fract_x
_atom_site_fract_y
_atom_site_fract_z
Zn11	Zn1	0.074930	0.732420	0.769850
Zn21	Zn2	0.672100	0.070890	0.531610
Zn31	Zn3	0.610280	0.258560	0.274140
Zn41	Zn4	0.054520	0.210760	0.777530
Zn51	Zn5	0.374660	0.222750	0.930250
Zn61	Zn6	0.202310	0.599180	0.024500
Zn71	Zn7	0.912430	0.720830	0.428900
Zn81	Zn8	0.582280	0.738040	0.279600
Zn91	Zn9	0.925070	0.267580	0.230150
Zn101	Zn10	0.327900	0.929110	0.468390
Zn111	Zn11	0.389720	0.741440	0.725860
Zn121	Zn12	0.945480	0.789240	0.222470
Zn131	Zn13	0.625340	0.777250	0.069750
Zn141	Zn14	0.797690	0.400820	0.975500
Zn151	Zn15	0.087570	0.279170	0.571100
Zn161	Zn16	0.417720	0.261960	0.720400
H11	H1	0.895500	0.415800	0.119900
H21	H2	0.696900	0.509800	0.190300
H31	H3	0.888600	0.611900	0.123400
H41	H4	0.786600	0.344600	0.106400
H51	H5	0.713100	0.255600	0.160500
H61	H6	0.695900	0.395200	0.244200
H71	H7	0.992200	0.450900	0.030400
H81	H8	0.129200	0.491200	0.988800
H91	H9	0.021700	0.600200	0.095700
H101	H10	0.705300	0.777900	0.175200
H111	H11	0.799000	0.707300	0.123400
H121	H12	0.656500	0.598600	0.237200
H131	H13	0.142200	0.620300	0.222300
H141	H14	0.214100	0.674400	0.333700
H151	H15	0.364300	0.673200	0.192000
H161	H16	0.081700	0.721200	0.355800
H171	H17	0.928200	0.592000	0.369100
H181	H18	0.045800	0.563600	0.296100
H191	H19	0.166100	0.634200	0.136300
H201	H20	0.370400	0.603000	0.039900
H211	H21	0.393800	0.621300	0.119500
H221	H22	0.459900	0.690800	0.227700
H231	H23	0.295700	0.731300	0.354400
H241	H24	0.421400	0.757800	0.361000
H251	H25	0.761300	0.786700	0.866100
H261	H26	0.552600	0.740200	0.859400
H271	H27	0.740600	0.732900	0.737100
H281	H28	0.896500	0.728200	0.823600
H291	H29	0.851900	0.782000	0.690500
H301	H30	0.993500	0.786700	0.678800
H311	H31	0.494600	0.773500	0.786500
H321	H32	0.656300	0.641000	0.727300
H331	H33	0.544900	0.635900	0.694600
H341	H34	0.697200	0.749400	0.956000
H351	H35	0.517000	0.843400	0.911400
H361	H36	0.491200	0.828400	0.008100
H371	H37	0.166200	0.983200	0.687000
H381	H38	0.359600	0.084700	0.617000
H391	H39	0.364800	0.888900	0.616700
H401	H40	0.160100	0.867700	0.740800
H411	H41	0.262700	0.816300	0.603700
H421	H42	0.180800	0.728700	0.655800
H431	H43	0.133100	0.072300	0.736800
H441	H44	0.170000	0.250000	0.668900
H451	H45	0.264800	0.177900	0.618100
H461	H46	0.495100	0.065300	0.603800
H471	H47	0.475200	0.904600	0.546100
H481	H48	0.610000	0.935900	0.513100
H491	H49	0.679500	0.159500	0.840700
H501	H50	0.829500	0.145300	0.701900
H511	H51	0.604400	0.103000	0.731700
H521	H52	0.499000	0.053800	0.808300
H531	H53	0.382600	0.094000	0.871900
H541	H54	0.551100	0.206300	0.865500
H551	H55	0.629700	0.100900	0.647500
H561	H56	0.855100	0.105100	0.629400
H571	H57	0.831600	0.067700	0.553600
H581	H58	0.924000	0.165700	0.731500
H591	H59	0.897700	0.230300	0.862700
H601	H60	0.769800	0.200600	0.864400
H611	H61	0.723600	0.896700	0.212000
H621	H62	0.790700	0.991800	0.179900
H631	H63	0.738200	0.091100	0.205100
H641	H64	0.543500	0.005500	0.293400
H651	H65	0.582200	0.522500	0.406300
H661	H66	0.646200	0.466300	0.460300
H671	H67	0.738100	0.514700	0.482400
H681	H68	0.703900	0.681900	0.396300
H691	H69	0.423300	0.604500	0.859000
H701	H70	0.499600	0.549800	0.795700
H711	H71	0.506600	0.434400	0.806100
H721	H72	0.339500	0.437600	0.940900
H731	H73	0.039800	0.828100	0.038100
H741	H74	0.977200	0.905200	0.991100
H751	H75	0.985500	0.894000	0.908400
H761	H76	0.112500	0.723400	0.918600
H771	H77	0.913900	0.103000	0.387800
H781	H78	0.014600	0.063600	0.323700
H791	H79	0.035100	0.949600	0.324400
H801	H80	0.848900	0.916600	0.444900
H811	H81	0.526500	0.305200	0.556800
H821	H82	0.497800	0.403400	0.511000
H831	H83	0.528000	0.410400	0.422500
H841	H84	0.607700	0.223600	0.428500
H851	H85	0.189500	0.371300	0.712600
H861	H86	0.256300	0.467300	0.680300
H871	H87	0.202600	0.566300	0.705100
H881	H88	0.009600	0.479500	0.791700
H891	H89	0.178200	0.165800	0.892000
H901	H90	0.060800	0.002800	0.913300
H911	H91	0.113700	0.957100	0.975100
H921	H92	0.204500	0.014600	0.993200
H931	H93	0.104500	0.584200	0.880100
H941	H94	0.303100	0.490200	0.809700
H951	H95	0.111400	0.388100	0.876600
H961	H96	0.213400	0.655400	0.893600
H971	H97	0.286900	0.744400	0.839500
H981	H98	0.304100	0.604800	0.755800
H991	H99	0.007800	0.549100	0.969600
H1001	H100	0.870800	0.508800	0.011200
H1011	H101	0.978300	0.399800	0.904300
H1021	H102	0.294700	0.222100	0.824800
H1031	H103	0.201000	0.292700	0.876600
H1041	H104	0.343500	0.401400	0.762800
H1051	H105	0.857800	0.379700	0.777700
H1061	H106	0.785900	0.325600	0.666300
H1071	H107	0.635700	0.326800	0.808000
H1081	H108	0.918300	0.278800	0.644200
H1091	H109	0.071800	0.408000	0.630900
H1101	H110	0.954200	0.436400	0.703900
H1111	H111	0.833900	0.365800	0.863700
H1121	H112	0.629600	0.397000	0.960100
H1131	H113	0.606200	0.378700	0.880500
H1141	H114	0.540100	0.309200	0.772300
H1151	H115	0.704300	0.268700	0.645600
H1161	H116	0.578600	0.242200	0.639000
H1171	H117	0.238700	0.213300	0.133900
H1181	H118	0.447400	0.259800	0.140600
H1191	H119	0.259400	0.267100	0.262900
H1201	H120	0.103500	0.271800	0.176400
H1211	H121	0.148100	0.218000	0.309500
H1221	H122	0.006500	0.213300	0.321200
H1231	H123	0.505400	0.226500	0.213500
H1241	H124	0.343700	0.359000	0.272700
H1251	H125	0.455100	0.364100	0.305400
H1261	H126	0.302800	0.250600	0.044000
H1271	H127	0.483000	0.156600	0.088600
H1281	H128	0.508800	0.171600	0.991900
H1291	H129	0.833800	0.016800	0.313000
H1301	H130	0.640400	0.915300	0.383000
H1311	H131	0.635200	0.111100	0.383300
H1321	H132	0.839900	0.132300	0.259200
H1331	H133	0.737300	0.183700	0.396300
H1341	H134	0.819200	0.271300	0.344200
H1351	H135	0.866900	0.927700	0.263200
H1361	H136	0.830000	0.750000	0.331100
H1371	H137	0.735200	0.822100	0.381900
H1381	H138	0.504900	0.934700	0.396200
H1391	H139	0.524800	0.095400	0.453900
H1401	H140	0.390000	0.064100	0.486900
H1411	H141	0.320500	0.840500	0.159300
H1421	H142	0.170500	0.854700	0.298100
H1431	H143	0.395600	0.897000	0.268300
H1441	H144	0.501000	0.946200	0.191700
H1451	H145	0.617400	0.906000	0.128100
H1461	H146	0.448900	0.793700	0.134500
H1471	H147	0.370300	0.899100	0.352500
H1481	H148	0.144900	0.894900	0.370600
H1491	H149	0.168400	0.932300	0.446400
H1501	H150	0.076000	0.834300	0.268500
H1511	H151	0.102300	0.769700	0.137300
H1521	H152	0.230200	0.799400	0.135600
H1531	H153	0.276400	0.103300	0.788000
H1541	H154	0.209300	0.008200	0.820100
H1551	H155	0.261800	0.908900	0.794900
H1561	H156	0.456500	0.994500	0.706600
H1571	H157	0.417800	0.477500	0.593700
H1581	H158	0.353800	0.533700	0.539700
H1591	H159	0.261900	0.485300	0.517600
H1601	H160	0.296100	0.318100	0.603700
H1611	H161	0.576700	0.395500	0.141000
H1621	H162	0.500400	0.450200	0.204300
H1631	H163	0.493400	0.565600	0.193900
H1641	H164	0.660500	0.562400	0.059100
H1651	H165	0.960200	0.171900	0.961900
H1661	H166	0.022800	0.094800	0.008900
H1671	H167	0.014500	0.106000	0.091600
H1681	H168	0.887500	0.276600	0.081400
H1691	H169	0.086100	0.897000	0.612200
H1701	H170	0.985400	0.936400	0.676300
H1711	H171	0.964900	0.050400	0.675600
H1721	H172	0.151100	0.083400	0.555100
H1731	H173	0.473500	0.694800	0.443200
H1741	H174	0.502200	0.596600	0.489000
H1751	H175	0.472000	0.589600	0.577500
H1761	H176	0.392300	0.776400	0.571500
H1771	H177	0.810500	0.628700	0.287400
H1781	H178	0.743700	0.532700	0.319700
H1791	H179	0.797400	0.433700	0.294900
H1801	H180	0.990400	0.520500	0.208300
H1811	H181	0.821800	0.834200	0.108000
H1821	H182	0.939200	0.997200	0.086700
H1831	H183	0.886300	0.042900	0.024900
H1841	H184	0.795500	0.985400	0.006800
C11	C1	0.867500	0.454600	0.129700
C21	C2	0.790400	0.454000	0.156600
C31	C3	0.749300	0.510900	0.171800
C41	C4	0.785700	0.569500	0.159700
C51	C5	0.863900	0.572200	0.131900
C61	C6	0.903200	0.514600	0.117400
C71	C7	0.759700	0.344000	0.140700
C81	C8	0.719000	0.295600	0.170900
C91	C9	0.709700	0.371100	0.216500
C101	C10	0.019300	0.481200	0.041600
C111	C11	0.092100	0.501700	0.020000
C121	C12	0.035600	0.560200	0.082400
C131	C13	0.707700	0.732100	0.181300
C141	C14	0.759500	0.694200	0.152700
C151	C15	0.680400	0.634600	0.215800
C161	C16	0.181100	0.635400	0.233000
C171	C17	0.167500	0.650000	0.282100
C181	C18	0.224700	0.668500	0.299600
C191	C19	0.298600	0.678600	0.266400
C201	C20	0.315200	0.666500	0.215000
C211	C21	0.256400	0.644500	0.200300
C221	C22	0.057200	0.685700	0.350800
C231	C23	0.973600	0.615100	0.357300
C241	C24	0.039400	0.597300	0.316500
C251	C25	0.219800	0.627800	0.122700
C261	C26	0.331900	0.610700	0.069800
C271	C27	0.345500	0.621400	0.113800
C281	C28	0.434700	0.704400	0.259400
C291	C29	0.343600	0.726300	0.329900
C301	C30	0.413000	0.741800	0.333400
C311	C31	0.730700	0.773300	0.848000
C321	C32	0.651500	0.765500	0.871070
C331	C33	0.605600	0.745400	0.844000
C341	C34	0.639000	0.733200	0.793790
C351	C35	0.718200	0.741000	0.770720
C361	C36	0.764000	0.761100	0.797800
C371	C37	0.903100	0.748200	0.790600
C381	C38	0.877500	0.772700	0.715300
C391	C39	0.955700	0.774100	0.709100
C401	C40	0.520600	0.740500	0.766900
C411	C41	0.610400	0.667300	0.734900
C421	C42	0.548700	0.664900	0.716700
C431	C43	0.651400	0.777600	0.957000
C441	C44	0.550900	0.826100	0.931500
C451	C45	0.539800	0.819000	0.983300
C461	C46	0.218800	0.984300	0.668900
C471	C47	0.255300	0.042700	0.656600
C481	C48	0.334900	0.045000	0.627000
C491	C49	0.374400	0.985900	0.613600
C501	C50	0.337600	0.928000	0.626500
C511	C51	0.260900	0.927200	0.653900
C521	C52	0.174900	0.843600	0.713100
C531	C53	0.232000	0.816400	0.637200
C541	C54	0.186900	0.768400	0.666600
C551	C55	0.153700	0.107900	0.713500
C561	C56	0.174400	0.204400	0.676400
C571	C57	0.226500	0.165200	0.648100
C581	C58	0.507400	0.029300	0.585300
C591	C59	0.495800	0.940800	0.553500
C601	C60	0.570000	0.958000	0.535700
C611	C61	0.630300	0.131100	0.791500
C621	C62	0.689500	0.149700	0.807500
C631	C63	0.764400	0.154000	0.774200
C641	C64	0.779800	0.140700	0.724600
C651	C65	0.719400	0.120000	0.709000
C661	C66	0.644600	0.115900	0.742300
C671	C67	0.495000	0.089100	0.826900
C681	C68	0.431300	0.112000	0.862300
C691	C69	0.522900	0.174300	0.859100
C701	C70	0.683500	0.096600	0.633500
C711	C71	0.807300	0.098500	0.624800
C721	C72	0.793100	0.080000	0.582100
C731	C73	0.901600	0.178100	0.764000
C741	C74	0.886400	0.213400	0.836500
C751	C75	0.815600	0.197500	0.837900
C761	C76	0.578500	0.881200	0.275200
C771	C77	0.623800	0.942100	0.254800
C781	C78	0.700800	0.937400	0.221300
C791	C79	0.741200	0.994200	0.202900
C801	C80	0.709600	0.053700	0.218000
C811	C81	0.635000	0.059700	0.252600
C821	C82	0.601900	0.123400	0.271900
C831	C83	0.593100	0.002700	0.270500
C841	C84	0.601400	0.642600	0.354300
C851	C85	0.638600	0.608100	0.392300
C861	C86	0.620400	0.543000	0.414200
C871	C87	0.658300	0.509500	0.447000
C881	C88	0.712900	0.538400	0.460200
C891	C89	0.731500	0.602300	0.441300
C901	C90	0.693100	0.638000	0.408000
C911	C91	0.795400	0.635300	0.451900
C921	C92	0.323600	0.561200	0.947100
C931	C93	0.374400	0.527200	0.904800
C941	C94	0.422800	0.558800	0.862300
C951	C95	0.469300	0.526700	0.825200
C961	C96	0.472400	0.457300	0.831200
C971	C97	0.426100	0.423800	0.873000
C981	C98	0.373000	0.459500	0.912100
C991	C99	0.434000	0.350700	0.880300
C1001	C100	0.121000	0.715000	0.012100
C1011	C101	0.081700	0.768200	0.982200
C1021	C102	0.042000	0.822700	0.005000
C1031	C103	0.005300	0.869000	0.976300
C1041	C104	0.010000	0.862300	0.926600
C1051	C105	0.050300	0.809400	0.904200
C1061	C106	0.086200	0.760400	0.933100
C1071	C107	0.056000	0.800000	0.850800
C1081	C108	0.801200	0.047500	0.460200
C1091	C109	0.871200	0.013700	0.420500
C1101	C110	0.921900	0.057900	0.385500
C1111	C111	0.982200	0.035100	0.348500
C1121	C112	0.993700	0.966900	0.349200
C1131	C113	0.945100	0.923800	0.385700
C1141	C114	0.882500	0.945400	0.421300
C1151	C115	0.963400	0.852900	0.384000
C1161	C116	0.593100	0.192700	0.525000
C1171	C117	0.572200	0.255200	0.497000
C1181	C118	0.538200	0.308200	0.521600
C1191	C119	0.520700	0.367100	0.494200
C1201	C120	0.538100	0.371100	0.441100
C1211	C121	0.570000	0.317100	0.416600
C1221	C122	0.586200	0.260300	0.445100
C1231	C123	0.586400	0.318200	0.361700
C1241	C124	0.046300	0.353500	0.774900
C1251	C125	0.091300	0.414800	0.754000
C1261	C126	0.165900	0.411700	0.721900
C1271	C127	0.206500	0.469600	0.703100
C1281	C128	0.174700	0.528400	0.717400
C1291	C129	0.101300	0.532100	0.750100
C1301	C130	0.059300	0.476300	0.769000
C1311	C131	0.067900	0.598800	0.768700
C1321	C132	0.261100	0.133800	0.959400
C1331	C133	0.199100	0.097600	0.946200
C1341	C134	0.164800	0.124100	0.908800
C1351	C135	0.111600	0.091300	0.895700
C1361	C136	0.095500	0.026800	0.921900
C1371	C137	0.127100	0.998700	0.958200
C1381	C138	0.180100	0.034100	0.969200
C1391	C139	0.078400	0.116900	0.853500
C1401	C140	0.132500	0.545400	0.870300
C1411	C141	0.209600	0.546000	0.843400
C1421	C142	0.250700	0.489100	0.828200
C1431	C143	0.214300	0.430500	0.840300
C1441	C144	0.136100	0.427800	0.868100
C1451	C145	0.096800	0.485400	0.882600
C1461	C146	0.240300	0.656000	0.859300
C1471	C147	0.281000	0.704400	0.829100
C1481	C148	0.290300	0.628900	0.783500
C1491	C149	0.980700	0.518800	0.958400
C1501	C150	0.907900	0.498300	0.980000
C1511	C151	0.964400	0.439800	0.917600
C1521	C152	0.292300	0.267900	0.818700
C1531	C153	0.240500	0.305800	0.847300
C1541	C154	0.319600	0.365400	0.784200
C1551	C155	0.818900	0.364600	0.767000
C1561	C156	0.832500	0.350000	0.717900
C1571	C157	0.775300	0.331500	0.700400
C1581	C158	0.701400	0.321400	0.733600
C1591	C159	0.684800	0.333500	0.785000
C1601	C160	0.743600	0.355500	0.799700
C1611	C161	0.942800	0.314300	0.649200
C1621	C162	0.026400	0.384900	0.642700
C1631	C163	0.960600	0.402700	0.683500
C1641	C164	0.780200	0.372200	0.877300
C1651	C165	0.668100	0.389300	0.930200
C1661	C166	0.654500	0.378600	0.886200
C1671	C167	0.565300	0.295600	0.740600
C1681	C168	0.656400	0.273700	0.670100
C1691	C169	0.587000	0.258200	0.666600
C1701	C170	0.269300	0.226700	0.152000
C1711	C171	0.348500	0.234500	0.128930
C1721	C172	0.394400	0.254600	0.156000
C1731	C173	0.361000	0.266800	0.206210
C1741	C174	0.281800	0.259000	0.229280
C1751	C175	0.236000	0.238900	0.202200
C1761	C176	0.096900	0.251800	0.209400
C1771	C177	0.122500	0.227300	0.284700
C1781	C178	0.044300	0.225900	0.290900
C1791	C179	0.479400	0.259500	0.233100
C1801	C180	0.389600	0.332700	0.265100
C1811	C181	0.451300	0.335100	0.283300
C1821	C182	0.348600	0.222400	0.043000
C1831	C183	0.449100	0.173900	0.068500
C1841	C184	0.460200	0.181000	0.016700
C1851	C185	0.781200	0.015700	0.331100
C1861	C186	0.744700	0.957300	0.343400
C1871	C187	0.665100	0.955000	0.373000
C1881	C188	0.625600	0.014100	0.386400
C1891	C189	0.662400	0.072000	0.373500
C1901	C190	0.739100	0.072800	0.346100
C1911	C191	0.825100	0.156400	0.286900
C1921	C192	0.768000	0.183600	0.362800
C1931	C193	0.813100	0.231600	0.333400
C1941	C194	0.846300	0.892100	0.286500
C1951	C195	0.825600	0.795600	0.323600
C1961	C196	0.773500	0.834800	0.351900
C1971	C197	0.492600	0.970700	0.414700
C1981	C198	0.504200	0.059200	0.446500
C1991	C199	0.430000	0.042000	0.464300
C2001	C200	0.369700	0.868900	0.208500
C2011	C201	0.310500	0.850300	0.192500
C2021	C202	0.235600	0.846000	0.225800
C2031	C203	0.220200	0.859300	0.275400
C2041	C204	0.280600	0.880000	0.291000
C2051	C205	0.355400	0.884100	0.257700
C2061	C206	0.505000	0.910900	0.173100
C2071	C207	0.568700	0.888000	0.137700
C2081	C208	0.477100	0.825700	0.140900
C2091	C209	0.316500	0.903400	0.366500
C2101	C210	0.192700	0.901500	0.375200
C2111	C211	0.206900	0.920000	0.417900
C2121	C212	0.098400	0.821900	0.236000
C2131	C213	0.113600	0.786600	0.163500
C2141	C214	0.184400	0.802500	0.162100
C2151	C215	0.421500	0.118800	0.724800
C2161	C216	0.376200	0.057900	0.745200
C2171	C217	0.299200	0.062600	0.778700
C2181	C218	0.258800	0.005800	0.797100
C2191	C219	0.290400	0.946300	0.782000
C2201	C220	0.365000	0.940300	0.747400
C2211	C221	0.398100	0.876600	0.728100
C2221	C222	0.406900	0.997300	0.729500
C2231	C223	0.398600	0.357400	0.645700
C2241	C224	0.361400	0.391900	0.607700
C2251	C225	0.379600	0.457000	0.585800
C2261	C226	0.341700	0.490500	0.553000
C2271	C227	0.287100	0.461600	0.539800
C2281	C228	0.268500	0.397700	0.558700
C2291	C229	0.306900	0.362000	0.592000
C2301	C230	0.204600	0.364700	0.548100
C2311	C231	0.676400	0.438800	0.052900
C2321	C232	0.625600	0.472800	0.095200
C2331	C233	0.577200	0.441200	0.137700
C2341	C234	0.530700	0.473300	0.174800
C2351	C235	0.527600	0.542700	0.168800
C2361	C236	0.573900	0.576200	0.127000
C2371	C237	0.627000	0.540500	0.087900
C2381	C238	0.566000	0.649300	0.119700
C2391	C239	0.879000	0.285000	0.987900
C2401	C240	0.918300	0.231800	0.017800
C2411	C241	0.958000	0.177300	0.995000
C2421	C242	0.994700	0.131000	0.023700
C2431	C243	0.990000	0.137700	0.073400
C2441	C244	0.949700	0.190600	0.095800
C2451	C245	0.913800	0.239600	0.066900
C2461	C246	0.944000	0.200000	0.149200
C2471	C247	0.198800	0.952500	0.539800
C2481	C248	0.128800	0.986300	0.579500
C2491	C249	0.078100	0.942100	0.614500
C2501	C250	0.017800	0.964900	0.651500
C2511	C251	0.006300	0.033100	0.650800
C2521	C252	0.054900	0.076200	0.614300
C2531	C253	0.117500	0.054600	0.578700
C2541	C254	0.036600	0.147100	0.616000
C2551	C255	0.406900	0.807300	0.475000
C2561	C256	0.427800	0.744800	0.503000
C2571	C257	0.461800	0.691800	0.478400
C2581	C258	0.479300	0.632900	0.505800
C2591	C259	0.461900	0.628900	0.558900
C2601	C260	0.430000	0.682900	0.583400
C2611	C261	0.413800	0.739700	0.554900
C2621	C262	0.413600	0.681800	0.638300
C2631	C263	0.953700	0.646500	0.225100
C2641	C264	0.908700	0.585200	0.246000
C2651	C265	0.834100	0.588300	0.278100
C2661	C266	0.793500	0.530400	0.296900
C2671	C267	0.825300	0.471600	0.282600
C2681	C268	0.898700	0.467900	0.249900
C2691	C269	0.940700	0.523700	0.231000
C2701	C270	0.932100	0.401200	0.231300
C2711	C271	0.738900	0.866200	0.040600
C2721	C272	0.800900	0.902400	0.053800
C2731	C273	0.835200	0.875900	0.091200
C2741	C274	0.888400	0.908700	0.104300
C2751	C275	0.904500	0.973200	0.078100
C2761	C276	0.872900	0.001300	0.041800
C2771	C277	0.819900	0.965900	0.030800
C2781	C278	0.921600	0.883100	0.146500
N11	N1	0.656600	0.696400	0.221830
N21	N2	0.743400	0.629300	0.175300
N31	N3	0.753600	0.393300	0.171140
N41	N4	0.687400	0.311400	0.218600
N51	N5	0.986000	0.516900	0.088800
N61	N6	0.104900	0.545900	0.056800
N71	N7	0.253400	0.613200	0.076100
N81	N8	0.271600	0.632500	0.149050
N91	N9	0.984800	0.670400	0.377000
N101	N10	0.090800	0.643800	0.316000
N111	N11	0.468300	0.730000	0.289500
N121	N12	0.355300	0.702000	0.284500
N131	N13	0.971800	0.758300	0.758200
N141	N14	0.845200	0.768300	0.773000
N151	N15	0.592700	0.714700	0.765800
N161	N16	0.491800	0.712800	0.736500
N171	N17	0.607400	0.799700	0.996800
N181	N18	0.623300	0.797400	0.914700
N191	N19	0.151600	0.785300	0.714200
N201	N20	0.222300	0.865400	0.667880
N211	N21	0.213500	0.102800	0.671450
N221	N22	0.128000	0.169400	0.717760
N231	N23	0.456200	0.986600	0.584720
N241	N24	0.577400	0.014100	0.556500
N251	N25	0.715900	0.082600	0.587600
N261	N26	0.733300	0.104500	0.659190
N271	N27	0.824800	0.175300	0.791200
N281	N28	0.939100	0.202000	0.792490
N291	N29	0.552700	0.131300	0.825100
N301	N30	0.448000	0.165500	0.882300
N311	N31	0.343400	0.303600	0.778170
N321	N32	0.256600	0.370700	0.824700
N331	N33	0.246400	0.606700	0.828860
N341	N34	0.312600	0.688600	0.781400
N351	N35	0.014000	0.483100	0.911200
N361	N36	0.895100	0.454100	0.943200
N371	N37	0.746600	0.386800	0.923900
N381	N38	0.728400	0.367500	0.850950
N391	N39	0.015200	0.329600	0.623000
N401	N40	0.909200	0.356200	0.684000
N411	N41	0.531700	0.270000	0.710500
N421	N42	0.644700	0.298000	0.715500
N431	N43	0.028200	0.241700	0.241800
N441	N44	0.154800	0.231700	0.227000
N451	N45	0.407300	0.285300	0.234200
N461	N46	0.508200	0.287200	0.263500
N471	N47	0.392600	0.200300	0.003200
N481	N48	0.376700	0.202600	0.085300
N491	N49	0.848400	0.214700	0.285800
N501	N50	0.777700	0.134600	0.332120
N511	N51	0.786500	0.897200	0.328550
N521	N52	0.872000	0.830600	0.282240
N531	N53	0.543800	0.013400	0.415280
N541	N54	0.422600	0.985900	0.443500
N551	N55	0.284100	0.917400	0.412400
N561	N56	0.266700	0.895500	0.340810
N571	N57	0.175200	0.824700	0.208800
N581	N58	0.060900	0.798000	0.207510
N591	N59	0.447300	0.868700	0.174900
N601	N60	0.552000	0.834500	0.117700
O11	O1	0.633100	0.148400	0.495880
O21	O2	0.939100	0.703200	0.496000
O31	O3	0.575100	0.181600	0.570600
O41	O4	0.579800	0.369600	0.334400
O51	O5	0.605500	0.263600	0.343220
O61	O6	0.750300	0.012100	0.485600
O71	O7	0.806900	0.108900	0.465800
O81	O8	0.912600	0.815400	0.416900
O91	O9	0.025900	0.832200	0.356300
O101	O10	0.086800	0.179000	0.839440
O111	O11	0.047700	0.082100	0.834260
O121	O12	0.294200	0.105900	0.989400
O131	O13	0.273800	0.190400	0.934600
O141	O14	0.980800	0.357900	0.804500
O151	O15	0.082900	0.301600	0.758080
O161	O16	0.002400	0.603200	0.798200
O171	O17	0.113100	0.645490	0.752010
O181	O18	0.265500	0.535200	0.977700
O191	O19	0.342700	0.617300	0.952700
O201	O20	0.374400	0.318000	0.909700
O211	O21	0.494700	0.319200	0.859240
O221	O22	0.164500	0.672200	0.985430
O231	O23	0.106800	0.714000	0.057400
O241	O24	0.072800	0.740500	0.839340
O251	O25	0.044100	0.846100	0.820500
O261	O26	0.616500	0.827100	0.260840
O271	O27	0.510400	0.885300	0.302740
O281	O28	0.645500	0.171700	0.253180
O291	O29	0.537500	0.127100	0.301000
O301	O30	0.809400	0.694700	0.431600
O311	O31	0.834500	0.601600	0.477100
O321	O32	0.610800	0.704200	0.341570
O331	O33	0.567100	0.609200	0.333030
O341	O34	0.366900	0.851600	0.504120
O351	O35	0.060900	0.296800	0.504000
O361	O36	0.424900	0.818400	0.429400
O371	O37	0.420200	0.630400	0.665600
O381	O38	0.394500	0.736400	0.656780
O391	O39	0.249700	0.987900	0.514400
O401	O40	0.193100	0.891100	0.534200
O411	O41	0.087400	0.184600	0.583100
O421	O42	0.974100	0.167800	0.643700
O431	O43	0.913200	0.821000	0.160560
O441	O44	0.952300	0.917900	0.165740
O451	O45	0.705800	0.894100	0.010600
O461	O46	0.726200	0.809600	0.065400
O471	O47	0.019200	0.642100	0.195500
O481	O48	0.917100	0.698400	0.241920
O491	O49	0.997600	0.396800	0.201800
O501	O50	0.886900	0.354510	0.247990
O511	O51	0.734500	0.464800	0.022300
O521	O52	0.657300	0.382700	0.047300
O531	O53	0.625600	0.682000	0.090300
O541	O54	0.505300	0.680800	0.140760
O551	O55	0.835500	0.327800	0.014570
O561	O56	0.893200	0.286000	0.942600
O571	O57	0.927200	0.259500	0.160660
O581	O58	0.955900	0.153900	0.179500
O591	O59	0.383500	0.172900	0.739160
O601	O60	0.489600	0.114700	0.697260
O611	O61	0.354500	0.828300	0.746820
O621	O62	0.462500	0.872900	0.699000
O631	O63	0.190600	0.305300	0.568400
O641	O64	0.165500	0.398400	0.522900
O651	O65	0.389200	0.295800	0.658430
O661	O66	0.432900	0.390800	0.666970
