data_XIGHAX_freeONLY_PM
_symmetry_space_group_name_H-M	'P1'
_cell_length_a	14.809000
_cell_length_b	19.300800
_cell_length_c	31.842000
_cell_angle_alpha	101.760000
_cell_angle_beta	90.000000
_cell_angle_gamma	112.559000
_symmetry_Int_Tables_number 1

loop_
_symmetry_equiv_pos_as_xyz
'x,y,z'

loop_
_atom_site_label
_atom_site_type_symbol
_atom_site_fract_x
_atom_site_fract_y
_atom_site_fract_z
Zn11	Zn1	0.215900	0.252000	0.562840
Zn21	Zn2	0.707450	0.672940	0.731890
Zn31	Zn3	0.282500	0.820840	0.419340
Zn41	Zn4	0.036100	0.252000	0.062840
Zn51	Zn5	0.965490	0.672940	0.231890
Zn61	Zn6	0.538340	0.820840	0.919340
H11	H1	0.631900	0.971600	0.483600
H21	H2	0.593600	0.741000	0.603400
H31	H3	0.585800	0.671800	0.655700
H41	H4	0.348800	0.759600	0.486200
H51	H5	0.489200	0.779000	0.527900
H61	H6	0.876300	0.870400	0.646500
H71	H7	0.487300	0.947400	0.444500
H81	H8	0.511600	0.682800	0.844600
H91	H9	0.400200	0.607000	0.785600
H101	H10	0.333700	0.782000	0.888600
H111	H11	0.911500	0.735000	0.772800
H121	H12	0.314900	0.470400	0.694300
H131	H13	0.328900	0.370800	0.644000
H141	H14	0.072800	0.324800	0.584400
H151	H15	0.050200	0.707400	0.773100
H161	H16	0.773000	0.547800	0.683700
H171	H17	0.048900	0.420000	0.634700
H181	H18	0.218200	0.709400	0.831300
H191	H19	0.908400	0.517000	0.680500
H201	H20	0.894500	0.038000	0.496900
H211	H21	0.963000	0.048800	0.620700
H221	H22	0.101100	0.157400	0.620900
H231	H23	0.036700	0.147200	0.499800
H241	H24	0.859600	0.797200	0.697600
H251	H25	0.339700	0.971600	0.983600
H261	H26	0.147400	0.741000	0.103400
H271	H27	0.086000	0.671800	0.155700
H281	H28	0.410800	0.759600	0.986200
H291	H29	0.289800	0.779000	0.027900
H301	H30	0.994100	0.870400	0.146500
H311	H31	0.460100	0.947400	0.944500
H321	H32	0.171200	0.682800	0.344600
H331	H33	0.206800	0.607000	0.285600
H341	H34	0.448300	0.782000	0.388600
H351	H35	0.823500	0.735000	0.272800
H361	H36	0.155500	0.470400	0.194300
H371	H37	0.041900	0.370800	0.144000
H381	H38	0.252000	0.324800	0.084400
H391	H39	0.657200	0.707400	0.273100
H401	H40	0.774800	0.547800	0.183700
H411	H41	0.371100	0.420000	0.134700
H421	H42	0.491200	0.709400	0.331300
H431	H43	0.608600	0.517000	0.180500
H441	H44	0.143500	0.038000	0.996900
H451	H45	0.085800	0.048800	0.120700
H461	H46	0.056300	0.157400	0.120900
H471	H47	0.110500	0.147200	0.999800
H481	H48	0.937600	0.797200	0.197600
C11	C1	0.915210	0.030420	0.558010
C21	C2	0.667000	0.889800	0.536040
C31	C3	0.576350	0.876700	0.509850
C41	C4	0.739210	0.864020	0.589060
C51	C5	0.825290	0.961580	0.558100
C61	C6	0.734090	0.815580	0.620530
C71	C7	0.574600	0.927400	0.484680
C81	C8	0.649260	0.754720	0.622910
C91	C9	0.645550	0.713500	0.654110
C101	C10	0.407320	0.803040	0.485700
C111	C11	0.490960	0.814120	0.510590
C121	C12	0.814930	0.830460	0.648300
C131	C13	0.488380	0.912360	0.461350
C141	C14	0.451200	0.688600	0.841540
C151	C15	0.385060	0.643120	0.806320
C161	C16	0.347850	0.746300	0.867150
C171	C17	0.910800	0.689600	0.754060
C181	C18	0.263600	0.440600	0.672250
C191	C19	0.224980	0.608560	0.764290
C201	C20	0.167190	0.517380	0.703100
C211	C21	0.271830	0.381460	0.641920
C221	C22	0.179720	0.456040	0.670210
C231	C23	0.122120	0.354240	0.607370
C241	C24	0.993840	0.607880	0.727230
C251	C25	0.993610	0.673620	0.754410
C261	C26	0.081640	0.589080	0.728340
C271	C27	0.830410	0.580820	0.702050
C281	C28	0.297280	0.651160	0.801760
C291	C29	0.107480	0.411360	0.637010
C301	C30	0.278600	0.703200	0.833120
C311	C31	0.910380	0.561760	0.700250
C321	C32	0.936810	0.061020	0.522630
C331	C33	0.977300	0.067800	0.595180
C341	C34	0.059320	0.132240	0.595010
C351	C35	0.021690	0.126380	0.524710
C361	C36	0.804400	0.786200	0.678500
C371	C37	0.115210	0.030420	0.058010
C381	C38	0.222800	0.889800	0.036040
C391	C39	0.300350	0.876700	0.009850
C401	C40	0.124810	0.864020	0.089060
C411	C41	0.136290	0.961580	0.058100
C421	C42	0.081490	0.815580	0.120530
C431	C43	0.352800	0.927400	0.984680
C441	C44	0.105460	0.754720	0.122910
C451	C45	0.067950	0.713500	0.154110
C461	C46	0.395720	0.803040	0.985700
C471	C47	0.323160	0.814120	0.010590
C481	C48	0.015530	0.830460	0.148300
C491	C49	0.423980	0.912360	0.961350
C501	C50	0.237400	0.688600	0.341540
C511	C51	0.258060	0.643120	0.306320
C521	C52	0.398450	0.746300	0.367150
C531	C53	0.778800	0.689600	0.254060
C541	C54	0.177000	0.440600	0.172250
C551	C55	0.383580	0.608560	0.264290
C561	C56	0.350190	0.517380	0.203100
C571	C57	0.109630	0.381460	0.141920
C581	C58	0.276320	0.456040	0.170210
C591	C59	0.232120	0.354240	0.107370
C601	C60	0.614040	0.607880	0.227230
C611	C61	0.680010	0.673620	0.254410
C621	C62	0.507440	0.589080	0.228340
C631	C63	0.750410	0.580820	0.202050
C641	C64	0.353880	0.651160	0.301760
C651	C65	0.303880	0.411360	0.137010
C661	C66	0.424600	0.703200	0.333120
C671	C67	0.651380	0.561760	0.200250
C681	C68	0.124210	0.061020	0.022630
C691	C69	0.090500	0.067800	0.095180
C701	C70	0.072920	0.132240	0.095010
C711	C71	0.104690	0.126380	0.024710
C721	C72	0.981800	0.786200	0.178500
I11	I1	0.548220	0.553660	0.711150
I21	I2	0.336440	0.209960	0.597010
I31	I3	0.230510	0.291260	0.491030
I41	I4	0.134160	0.749720	0.456380
I51	I5	0.730880	0.768780	0.802850
I61	I6	0.311540	0.934320	0.384630
I71	I7	0.005440	0.553660	0.211150
I81	I8	0.873520	0.209960	0.097010
I91	I9	0.060750	0.291260	0.991030
I101	I10	0.615560	0.749720	0.956380
I111	I11	0.037900	0.768780	0.302850
I121	I12	0.622780	0.934320	0.884630
N11	N1	0.406330	0.851060	0.461220
N21	N2	0.750240	0.945880	0.529850
N31	N3	0.657170	0.847740	0.565210
N41	N4	0.824670	0.921740	0.588220
N51	N5	0.083180	0.161160	0.560330
N61	N6	0.721300	0.729200	0.681980
N71	N7	0.829330	0.643860	0.728450
N81	N8	0.088310	0.533420	0.697540
N91	N9	0.237330	0.552060	0.735830
N101	N10	0.201740	0.338280	0.609420
N111	N11	0.433410	0.740220	0.871320
N121	N12	0.148190	0.628780	0.761870
N131	N13	0.444730	0.851060	0.961220
N141	N14	0.195640	0.945880	0.029850
N151	N15	0.190570	0.847740	0.065210
N161	N16	0.097070	0.921740	0.088220
N171	N17	0.077980	0.161160	0.060330
N181	N18	0.007900	0.729200	0.181980
N191	N19	0.814530	0.643860	0.228450
N201	N20	0.445110	0.533420	0.197540
N211	N21	0.314730	0.552060	0.235830
N221	N22	0.136540	0.338280	0.109420
N231	N23	0.306810	0.740220	0.371320
N241	N24	0.480590	0.628780	0.261870
Zn71	Zn7	0.963900	0.748000	0.937160
Zn81	Zn8	0.034510	0.327060	0.768110
Zn91	Zn9	0.461660	0.179160	0.080660
Zn101	Zn10	0.784100	0.748000	0.437160
Zn111	Zn11	0.292550	0.327060	0.268110
Zn121	Zn12	0.717500	0.179160	0.580660
H491	H49	0.660300	0.028400	0.016400
H501	H50	0.852600	0.259000	0.896600
H511	H51	0.914000	0.328200	0.844300
H521	H52	0.589200	0.240400	0.013800
H531	H53	0.710200	0.221000	0.972100
H541	H54	0.005900	0.129600	0.853500
H551	H55	0.539900	0.052600	0.055500
H561	H56	0.828800	0.317200	0.655400
H571	H57	0.793200	0.393000	0.714400
H581	H58	0.551700	0.218000	0.611400
H591	H59	0.176500	0.265000	0.727200
H601	H60	0.844500	0.529600	0.805700
H611	H61	0.958100	0.629200	0.856000
H621	H62	0.748000	0.675200	0.915600
H631	H63	0.342800	0.292600	0.726900
H641	H64	0.225200	0.452200	0.816300
H651	H65	0.628900	0.580000	0.865300
H661	H66	0.508800	0.290600	0.668700
H671	H67	0.391400	0.483000	0.819500
H681	H68	0.856500	0.962000	0.003100
H691	H69	0.914200	0.951200	0.879300
H701	H70	0.943700	0.842600	0.879100
H711	H71	0.889500	0.852800	0.000200
H721	H72	0.062400	0.202800	0.802400
H731	H73	0.368100	0.028400	0.516400
H741	H74	0.406400	0.259000	0.396600
H751	H75	0.414200	0.328200	0.344300
H761	H76	0.651200	0.240400	0.513800
H771	H77	0.510800	0.221000	0.472100
H781	H78	0.123700	0.129600	0.353500
H791	H79	0.512700	0.052600	0.555500
H801	H80	0.488400	0.317200	0.155400
H811	H81	0.599800	0.393000	0.214400
H821	H82	0.666300	0.218000	0.111400
H831	H83	0.088500	0.265000	0.227200
H841	H84	0.685100	0.529600	0.305700
H851	H85	0.671100	0.629200	0.356000
H861	H86	0.927200	0.675200	0.415600
H871	H87	0.949800	0.292600	0.226900
H881	H88	0.227000	0.452200	0.316300
H891	H89	0.951100	0.580000	0.365300
H901	H90	0.781800	0.290600	0.168700
H911	H91	0.091600	0.483000	0.319500
H921	H92	0.105500	0.962000	0.503100
H931	H93	0.037000	0.951200	0.379300
H941	H94	0.898900	0.842600	0.379100
H951	H95	0.963300	0.852800	0.500200
H961	H96	0.140400	0.202800	0.302400
C731	C73	0.884790	0.969580	0.941990
C741	C74	0.777200	0.110200	0.963960
C751	C75	0.699650	0.123300	0.990150
C761	C76	0.875190	0.135980	0.910940
C771	C77	0.863710	0.038420	0.941900
C781	C78	0.918510	0.184420	0.879470
C791	C79	0.647200	0.072600	0.015320
C801	C80	0.894540	0.245280	0.877090
C811	C81	0.932050	0.286500	0.845890
C821	C82	0.604280	0.196960	0.014300
C831	C83	0.676840	0.185880	0.989410
C841	C84	0.984470	0.169540	0.851700
C851	C85	0.576020	0.087640	0.038650
C861	C86	0.762600	0.311400	0.658460
C871	C87	0.741940	0.356880	0.693680
C881	C88	0.601550	0.253700	0.632850
C891	C89	0.221200	0.310400	0.745940
C901	C90	0.823000	0.559400	0.827750
C911	C91	0.616420	0.391440	0.735710
C921	C92	0.649810	0.482620	0.796900
C931	C93	0.890370	0.618540	0.858080
C941	C94	0.723680	0.543960	0.829790
C951	C95	0.767880	0.645760	0.892630
C961	C96	0.385960	0.392120	0.772770
C971	C97	0.319990	0.326380	0.745590
C981	C98	0.492560	0.410920	0.771660
C991	C99	0.249590	0.419180	0.797950
C1001	C100	0.646120	0.348840	0.698240
C1011	C101	0.696120	0.588640	0.862990
C1021	C102	0.575400	0.296800	0.666880
C1031	C103	0.348620	0.438240	0.799750
C1041	C104	0.875790	0.938980	0.977370
C1051	C105	0.909500	0.932200	0.904820
C1061	C106	0.927080	0.867760	0.904990
C1071	C107	0.895310	0.873620	0.975290
C1081	C108	0.018200	0.213800	0.821500
C1091	C109	0.084790	0.969580	0.441990
C1101	C110	0.333000	0.110200	0.463960
C1111	C111	0.423650	0.123300	0.490150
C1121	C112	0.260790	0.135980	0.410940
C1131	C113	0.174710	0.038420	0.441900
C1141	C114	0.265910	0.184420	0.379470
C1151	C115	0.425400	0.072600	0.515320
C1161	C116	0.350740	0.245280	0.377090
C1171	C117	0.354450	0.286500	0.345890
C1181	C118	0.592680	0.196960	0.514300
C1191	C119	0.509040	0.185880	0.489410
C1201	C120	0.185070	0.169540	0.351700
C1211	C121	0.511620	0.087640	0.538650
C1221	C122	0.548800	0.311400	0.158460
C1231	C123	0.614940	0.356880	0.193680
C1241	C124	0.652150	0.253700	0.132850
C1251	C125	0.089200	0.310400	0.245940
C1261	C126	0.736400	0.559400	0.327750
C1271	C127	0.775020	0.391440	0.235710
C1281	C128	0.832810	0.482620	0.296900
C1291	C129	0.728170	0.618540	0.358080
C1301	C130	0.820280	0.543960	0.329790
C1311	C131	0.877880	0.645760	0.392630
C1321	C132	0.006160	0.392120	0.272770
C1331	C133	0.006390	0.326380	0.245590
C1341	C134	0.918360	0.410920	0.271660
C1351	C135	0.169590	0.419180	0.297950
C1361	C136	0.702720	0.348840	0.198240
C1371	C137	0.892520	0.588640	0.362990
C1381	C138	0.721400	0.296800	0.166880
C1391	C139	0.089620	0.438240	0.299750
C1401	C140	0.063190	0.938980	0.477370
C1411	C141	0.022700	0.932200	0.404820
C1421	C142	0.940680	0.867760	0.404990
C1431	C143	0.978310	0.873620	0.475290
C1441	C144	0.195600	0.213800	0.321500
I131	I13	0.994560	0.446340	0.788850
I141	I14	0.126480	0.790040	0.903000
I151	I15	0.939250	0.708740	0.008970
I161	I16	0.384440	0.250280	0.043620
I171	I17	0.962100	0.231220	0.697150
I181	I18	0.377220	0.065680	0.115370
I191	I19	0.451780	0.446340	0.288850
I201	I20	0.663560	0.790040	0.403000
I211	I21	0.769490	0.708740	0.508970
I221	I22	0.865840	0.250280	0.543620
I231	I23	0.269120	0.231220	0.197150
I241	I24	0.688460	0.065680	0.615370
N251	N25	0.555270	0.148940	0.038780
N261	N26	0.804360	0.054120	0.970150
N271	N27	0.809430	0.152260	0.934790
N281	N28	0.902930	0.078260	0.911780
N291	N29	0.922020	0.838840	0.939670
N301	N30	0.992100	0.270800	0.818020
N311	N31	0.185470	0.356140	0.771550
N321	N32	0.554890	0.466580	0.802460
N331	N33	0.685270	0.447940	0.764170
N341	N34	0.863460	0.661720	0.890580
N351	N35	0.693190	0.259780	0.628680
N361	N36	0.519410	0.371220	0.738130
N371	N37	0.593670	0.148940	0.538780
N381	N38	0.249760	0.054120	0.470150
N391	N39	0.342830	0.152260	0.434790
N401	N40	0.175330	0.078260	0.411780
N411	N41	0.916820	0.838840	0.439670
N421	N42	0.278700	0.270800	0.318020
N431	N43	0.170670	0.356140	0.271550
N441	N44	0.911690	0.466580	0.302460
N451	N45	0.762670	0.447940	0.264170
N461	N46	0.798260	0.661720	0.390580
N471	N47	0.566590	0.259780	0.128680
N481	N48	0.851810	0.371220	0.238130
