data_XOMJUE_freeONLY_PM
_symmetry_space_group_name_H-M	'P1'
_cell_length_a	12.776000
_cell_length_b	18.300100
_cell_length_c	24.724000
_cell_angle_alpha	90.000000
_cell_angle_beta	90.000000
_cell_angle_gamma	110.430000
_symmetry_Int_Tables_number 1

loop_
_symmetry_equiv_pos_as_xyz
'x,y,z'

loop_
_atom_site_label
_atom_site_type_symbol
_atom_site_fract_x
_atom_site_fract_y
_atom_site_fract_z
Er11	Er1	0.230210	0.769480	0.785650
Er21	Er2	0.769790	0.230520	0.285650
Er31	Er3	0.539270	0.769480	0.714350
Er41	Er4	0.460730	0.230520	0.214350
H11	H1	0.072900	0.888600	0.762100
H21	H2	0.030800	0.991400	0.799300
H31	H3	0.124400	0.054200	0.876000
H41	H4	0.260200	0.014200	0.915400
H51	H5	0.302200	0.911200	0.878300
H61	H6	0.071200	0.546200	0.902900
H71	H7	0.064700	0.796600	0.934800
H81	H8	0.918600	0.782200	0.079500
H91	H9	0.901900	0.653000	0.088100
H101	H10	0.987900	0.420200	0.907000
H111	H11	0.098900	0.429800	0.938800
H121	H12	0.992800	0.295800	0.928800
H131	H13	0.003100	0.317800	0.990400
H141	H14	0.892500	0.308400	0.959000
H151	H15	0.677700	0.366600	0.092000
H161	H16	0.918000	0.439800	0.241200
H171	H17	0.179900	0.620000	0.185800
H181	H18	0.093400	0.616600	0.105100
H191	H19	0.721200	0.340400	0.000900
H201	H20	0.615600	0.365400	0.995000
H211	H21	0.668800	0.334600	0.909000
H221	H22	0.683000	0.423200	0.910600
H231	H23	0.787700	0.397800	0.916500
H241	H24	0.403900	0.840000	0.909300
H251	H25	0.709400	0.977600	0.801800
H261	H26	0.910400	0.138800	0.900400
H271	H27	0.789000	0.092600	0.971700
H281	H28	0.275000	0.848200	0.980500
H291	H29	0.334700	0.787200	0.989800
H301	H30	0.203700	0.773600	0.055900
H311	H31	0.323000	0.801600	0.082000
H321	H32	0.261700	0.861200	0.072300
H331	H33	0.976700	0.658200	0.743600
H341	H34	0.868400	0.774000	0.639200
H351	H35	0.942300	0.817600	0.688100
H361	H36	0.042300	0.857200	0.607000
H371	H37	0.103300	0.814000	0.643200
H381	H38	0.029600	0.770600	0.594400
H391	H39	0.837800	0.591200	0.684300
H401	H40	0.770600	0.641600	0.661800
H411	H41	0.809200	0.570400	0.593100
H421	H42	0.869800	0.659600	0.581800
H431	H43	0.937500	0.609400	0.604300
H441	H44	0.927100	0.111400	0.262100
H451	H45	0.969200	0.008600	0.299300
H461	H46	0.875600	0.945800	0.376000
H471	H47	0.739800	0.985800	0.415400
H481	H48	0.697800	0.088800	0.378300
H491	H49	0.928800	0.453800	0.402900
H501	H50	0.935300	0.203400	0.434800
H511	H51	0.081400	0.217800	0.579500
H521	H52	0.098100	0.347000	0.588100
H531	H53	0.012100	0.579800	0.407000
H541	H54	0.901100	0.570200	0.438800
H551	H55	0.007200	0.704200	0.428800
H561	H56	0.996900	0.682200	0.490400
H571	H57	0.107500	0.691600	0.459000
H581	H58	0.322300	0.633400	0.592000
H591	H59	0.082000	0.560200	0.741200
H601	H60	0.820100	0.380000	0.685800
H611	H61	0.906600	0.383400	0.605100
H621	H62	0.278800	0.659600	0.500900
H631	H63	0.384400	0.634600	0.495000
H641	H64	0.331200	0.665400	0.409000
H651	H65	0.317000	0.576800	0.410600
H661	H66	0.212300	0.602200	0.416500
H671	H67	0.596100	0.160000	0.409300
H681	H68	0.290600	0.022400	0.301800
H691	H69	0.089600	0.861200	0.400400
H701	H70	0.211000	0.907400	0.471700
H711	H71	0.725000	0.151800	0.480500
H721	H72	0.665300	0.212800	0.489800
H731	H73	0.796300	0.226400	0.555900
H741	H74	0.677000	0.198400	0.582000
H751	H75	0.738300	0.138800	0.572300
H761	H76	0.023300	0.341800	0.243600
H771	H77	0.131600	0.226000	0.139200
H781	H78	0.057700	0.182400	0.188100
H791	H79	0.957700	0.142800	0.107000
H801	H80	0.896700	0.186000	0.143200
H811	H81	0.970400	0.229400	0.094400
H821	H82	0.162200	0.408800	0.184300
H831	H83	0.229400	0.358400	0.161800
H841	H84	0.190800	0.429600	0.093100
H851	H85	0.130200	0.340400	0.081800
H861	H86	0.062500	0.390600	0.104300
H871	H87	0.815700	0.888600	0.737900
H881	H88	0.960600	0.991400	0.700700
H891	H89	0.929800	0.054200	0.624000
H901	H90	0.754000	0.014200	0.584600
H911	H91	0.609000	0.911200	0.621700
H921	H92	0.475000	0.546200	0.597100
H931	H93	0.731900	0.796600	0.565200
H941	H94	0.863600	0.782200	0.420500
H951	H95	0.751100	0.653000	0.411900
H961	H96	0.432300	0.420200	0.593000
H971	H97	0.330900	0.429800	0.561200
H981	H98	0.303000	0.295800	0.571200
H991	H99	0.314700	0.317800	0.509600
H1001	H100	0.415900	0.308400	0.541000
H1011	H101	0.688900	0.366600	0.408000
H1021	H102	0.521800	0.439800	0.258800
H1031	H103	0.440100	0.620000	0.314200
H1041	H104	0.523200	0.616600	0.394900
H1051	H105	0.619200	0.340400	0.499100
H1061	H106	0.749800	0.365400	0.505000
H1071	H107	0.665800	0.334600	0.591000
H1081	H108	0.740200	0.423200	0.589400
H1091	H109	0.610100	0.397800	0.583500
H1101	H110	0.436100	0.840000	0.590700
H1111	H111	0.268200	0.977600	0.698200
H1121	H112	0.228400	0.138800	0.599600
H1131	H113	0.303600	0.092600	0.528300
H1141	H114	0.573200	0.848200	0.519500
H1151	H115	0.452500	0.787200	0.510200
H1161	H116	0.569900	0.773600	0.444100
H1171	H117	0.478600	0.801600	0.418000
H1181	H118	0.599500	0.861200	0.427700
H1191	H119	0.681500	0.658200	0.756400
H1201	H120	0.905600	0.774000	0.860800
H1211	H121	0.875300	0.817600	0.811900
H1221	H122	0.814900	0.857200	0.893000
H1231	H123	0.710700	0.814000	0.856800
H1241	H124	0.741000	0.770600	0.905600
H1251	H125	0.753400	0.591200	0.815700
H1261	H126	0.871000	0.641600	0.838200
H1271	H127	0.761200	0.570400	0.906900
H1281	H128	0.789800	0.659600	0.918200
H1291	H129	0.671900	0.609400	0.895700
H1301	H130	0.184300	0.111400	0.237900
H1311	H131	0.039400	0.008600	0.200700
H1321	H132	0.070200	0.945800	0.124000
H1331	H133	0.246000	0.985800	0.084600
H1341	H134	0.391000	0.088800	0.121700
H1351	H135	0.525000	0.453800	0.097100
H1361	H136	0.268100	0.203400	0.065200
H1371	H137	0.136400	0.217800	0.920500
H1381	H138	0.248900	0.347000	0.911900
H1391	H139	0.567700	0.579800	0.093000
H1401	H140	0.669100	0.570200	0.061200
H1411	H141	0.697000	0.704200	0.071200
H1421	H142	0.685300	0.682200	0.009600
H1431	H143	0.584100	0.691600	0.041000
H1441	H144	0.311100	0.633400	0.908000
H1451	H145	0.478200	0.560200	0.758800
H1461	H146	0.559900	0.380000	0.814200
H1471	H147	0.476800	0.383400	0.894900
H1481	H148	0.380800	0.659600	0.999100
H1491	H149	0.250200	0.634600	0.005000
H1501	H150	0.334200	0.665400	0.091000
H1511	H151	0.259800	0.576800	0.089400
H1521	H152	0.389900	0.602200	0.083500
H1531	H153	0.563900	0.160000	0.090700
H1541	H154	0.731800	0.022400	0.198200
H1551	H155	0.771600	0.861200	0.099600
H1561	H156	0.696400	0.907400	0.028300
H1571	H157	0.426800	0.151800	0.019500
H1581	H158	0.547500	0.212800	0.010200
H1591	H159	0.430100	0.226400	0.944100
H1601	H160	0.521400	0.198400	0.918000
H1611	H161	0.400500	0.138800	0.927700
H1621	H162	0.318500	0.341800	0.256400
H1631	H163	0.094400	0.226000	0.360800
H1641	H164	0.124700	0.182400	0.311900
H1651	H165	0.185100	0.142800	0.393000
H1661	H166	0.289300	0.186000	0.356800
H1671	H167	0.259000	0.229400	0.405600
H1681	H168	0.246600	0.408800	0.315700
H1691	H169	0.129000	0.358400	0.338200
H1701	H170	0.238800	0.429600	0.406900
H1711	H171	0.210200	0.340400	0.418200
H1721	H172	0.328100	0.390600	0.395700
C11	C1	0.110500	0.913800	0.792900
C21	C2	0.085200	0.975400	0.815100
C31	C3	0.141300	0.013000	0.861100
C41	C4	0.222600	0.989000	0.884700
C51	C5	0.247900	0.927400	0.862400
C61	C6	0.963200	0.564400	0.019300
C71	C7	0.000200	0.529400	0.977000
C81	C8	0.047900	0.571000	0.930800
C91	C9	0.060900	0.649800	0.926300
C101	C10	0.032300	0.767000	0.965000
C111	C11	0.992100	0.799600	0.005500
C121	C12	0.944100	0.758000	0.052000
C131	C13	0.934400	0.680800	0.057200
C141	C14	0.974260	0.643520	0.015200
C151	C15	0.025100	0.687600	0.968500
C161	C16	0.116900	0.693000	0.876200
C171	C17	0.018100	0.411600	0.941500
C181	C18	0.972400	0.325400	0.956300
C191	C19	0.905930	0.514260	0.066700
C201	C20	0.801800	0.457600	0.057400
C211	C21	0.747500	0.404000	0.098700
C221	C22	0.795790	0.406380	0.147700
C231	C23	0.953000	0.473000	0.213000
C241	C24	0.054400	0.530600	0.221000
C251	C25	0.109400	0.583000	0.179800
C261	C26	0.058900	0.579200	0.131100
C271	C27	0.954300	0.519800	0.118400
C281	C28	0.900860	0.464320	0.160200
C291	C29	0.735400	0.341800	0.188000
C301	C30	0.694100	0.379400	0.985900
C311	C31	0.709800	0.384200	0.924900
C321	C32	0.593500	0.979600	0.973400
C331	C33	0.496600	0.918200	0.965000
C341	C34	0.470600	0.881600	0.914100
C351	C35	0.544400	0.907600	0.871300
C361	C36	0.724300	0.999200	0.836300
C371	C37	0.819800	0.060000	0.846100
C381	C38	0.844800	0.096400	0.895600
C391	C39	0.771400	0.069200	0.937900
C401	C40	0.668400	0.005400	0.930900
C411	C41	0.647800	0.968600	0.878600
C421	C42	0.503500	0.866000	0.818900
C431	C43	0.324000	0.833200	0.004600
C441	C44	0.273800	0.816000	0.058300
C451	C45	0.987800	0.705800	0.726900
C461	C46	0.935400	0.779600	0.659700
C471	C47	0.037100	0.808000	0.622700
C481	C48	0.842800	0.635200	0.661300
C491	C49	0.866900	0.617000	0.605200
C501	C50	0.889500	0.086200	0.292900
C511	C51	0.914800	0.024600	0.315100
C521	C52	0.858700	0.987000	0.361100
C531	C53	0.777400	0.011000	0.384700
C541	C54	0.752100	0.072600	0.362400
C551	C55	0.036800	0.435600	0.519300
C561	C56	0.999800	0.470600	0.477000
C571	C57	0.952100	0.429000	0.430800
C581	C58	0.939100	0.350200	0.426300
C591	C59	0.967700	0.233000	0.465000
C601	C60	0.007900	0.200400	0.505500
C611	C61	0.055900	0.242000	0.552000
C621	C62	0.065600	0.319200	0.557200
C631	C63	0.025740	0.356480	0.515200
C641	C64	0.974900	0.312400	0.468500
C651	C65	0.883100	0.307000	0.376200
C661	C66	0.981900	0.588400	0.441500
C671	C67	0.027600	0.674600	0.456300
C681	C68	0.094070	0.485740	0.566700
C691	C69	0.198200	0.542400	0.557400
C701	C70	0.252500	0.596000	0.598700
C711	C71	0.204210	0.593620	0.647700
C721	C72	0.047000	0.527000	0.713000
C731	C73	0.945600	0.469400	0.721000
C741	C74	0.890600	0.417000	0.679800
C751	C75	0.941100	0.420800	0.631100
C761	C76	0.045700	0.480200	0.618400
C771	C77	0.099140	0.535680	0.660200
C781	C78	0.264600	0.658200	0.688000
C791	C79	0.305900	0.620600	0.485900
C801	C80	0.290200	0.615800	0.424900
C811	C81	0.406500	0.020400	0.473400
C821	C82	0.503400	0.081800	0.465000
C831	C83	0.529400	0.118400	0.414100
C841	C84	0.455600	0.092400	0.371300
C851	C85	0.275700	0.000800	0.336300
C861	C86	0.180200	0.940000	0.346100
C871	C87	0.155200	0.903600	0.395600
C881	C88	0.228600	0.930800	0.437900
C891	C89	0.331600	0.994600	0.430900
C901	C90	0.352200	0.031400	0.378600
C911	C91	0.496500	0.134000	0.318900
C921	C92	0.676000	0.166800	0.504600
C931	C93	0.726200	0.184000	0.558300
C941	C94	0.012200	0.294200	0.226900
C951	C95	0.064600	0.220400	0.159700
C961	C96	0.962900	0.192000	0.122700
C971	C97	0.157200	0.364800	0.161300
C981	C98	0.133100	0.383000	0.105200
C991	C99	0.803300	0.913800	0.707100
C1001	C100	0.890200	0.975400	0.684900
C1011	C101	0.871700	0.013000	0.638900
C1021	C102	0.766400	0.989000	0.615300
C1031	C103	0.679500	0.927400	0.637600
C1041	C104	0.601200	0.564400	0.480700
C1051	C105	0.529200	0.529400	0.523000
C1061	C106	0.523100	0.571000	0.569200
C1071	C107	0.588900	0.649800	0.573700
C1081	C108	0.734700	0.767000	0.535000
C1091	C109	0.807500	0.799600	0.494500
C1101	C110	0.813900	0.758000	0.448000
C1111	C111	0.746400	0.680800	0.442800
C1121	C112	0.669260	0.643520	0.484800
C1131	C113	0.662500	0.687600	0.531500
C1141	C114	0.576100	0.693000	0.623800
C1151	C115	0.393500	0.411600	0.558500
C1161	C116	0.353000	0.325400	0.543700
C1171	C117	0.608330	0.514260	0.433300
C1181	C118	0.655800	0.457600	0.442600
C1191	C119	0.656500	0.404000	0.401300
C1201	C120	0.610590	0.406380	0.352300
C1211	C121	0.520000	0.473000	0.287000
C1221	C122	0.476200	0.530600	0.279000
C1231	C123	0.473600	0.583000	0.320200
C1241	C124	0.520300	0.579200	0.368900
C1251	C125	0.565500	0.519800	0.381600
C1261	C126	0.563460	0.464320	0.339800
C1271	C127	0.606400	0.341800	0.312000
C1281	C128	0.685300	0.379400	0.514100
C1291	C129	0.674400	0.384200	0.575100
C1301	C130	0.386100	0.979600	0.526600
C1311	C131	0.421600	0.918200	0.535000
C1321	C132	0.411000	0.881600	0.585900
C1331	C133	0.363200	0.907600	0.628700
C1341	C134	0.274900	0.999200	0.663700
C1351	C135	0.240200	0.060000	0.653900
C1361	C136	0.251600	0.096400	0.604400
C1371	C137	0.297800	0.069200	0.562100
C1381	C138	0.337000	0.005400	0.569100
C1391	C139	0.320800	0.968600	0.621400
C1401	C140	0.362500	0.866000	0.681100
C1411	C141	0.509200	0.833200	0.495400
C1421	C142	0.542200	0.816000	0.441700
C1431	C143	0.718000	0.705800	0.773100
C1441	C144	0.844200	0.779600	0.840300
C1451	C145	0.770900	0.808000	0.877300
C1461	C146	0.792400	0.635200	0.838700
C1471	C147	0.750100	0.617000	0.894800
C1481	C148	0.196700	0.086200	0.207100
C1491	C149	0.109800	0.024600	0.184900
C1501	C150	0.128300	0.987000	0.138900
C1511	C151	0.233600	0.011000	0.115300
C1521	C152	0.320500	0.072600	0.137600
C1531	C153	0.398800	0.435600	0.980700
C1541	C154	0.470800	0.470600	0.023000
C1551	C155	0.476900	0.429000	0.069200
C1561	C156	0.411100	0.350200	0.073700
C1571	C157	0.265300	0.233000	0.035000
C1581	C158	0.192500	0.200400	0.994500
C1591	C159	0.186100	0.242000	0.948000
C1601	C160	0.253600	0.319200	0.942800
C1611	C161	0.330740	0.356480	0.984800
C1621	C162	0.337500	0.312400	0.031500
C1631	C163	0.423900	0.307000	0.123800
C1641	C164	0.606500	0.588400	0.058500
C1651	C165	0.647000	0.674600	0.043700
C1661	C166	0.391670	0.485740	0.933300
C1671	C167	0.344200	0.542400	0.942600
C1681	C168	0.343500	0.596000	0.901300
C1691	C169	0.389410	0.593620	0.852300
C1701	C170	0.480000	0.527000	0.787000
C1711	C171	0.523800	0.469400	0.779000
C1721	C172	0.526400	0.417000	0.820200
C1731	C173	0.479700	0.420800	0.868900
C1741	C174	0.434500	0.480200	0.881600
C1751	C175	0.436540	0.535680	0.839800
C1761	C176	0.393600	0.658200	0.812000
C1771	C177	0.314700	0.620600	0.014100
C1781	C178	0.325600	0.615800	0.075100
C1791	C179	0.613900	0.020400	0.026600
C1801	C180	0.578400	0.081800	0.035000
C1811	C181	0.589000	0.118400	0.085900
C1821	C182	0.636800	0.092400	0.128700
C1831	C183	0.725100	0.000800	0.163700
C1841	C184	0.759800	0.940000	0.153900
C1851	C185	0.748400	0.903600	0.104400
C1861	C186	0.702200	0.930800	0.062100
C1871	C187	0.663000	0.994600	0.069100
C1881	C188	0.679200	0.031400	0.121400
C1891	C189	0.637500	0.134000	0.181100
C1901	C190	0.490800	0.166800	0.995400
C1911	C191	0.457800	0.184000	0.941700
C1921	C192	0.282000	0.294200	0.273100
C1931	C193	0.155800	0.220400	0.340300
C1941	C194	0.229100	0.192000	0.377300
C1951	C195	0.207600	0.364800	0.338700
C1961	C196	0.249900	0.383000	0.394800
N11	N1	0.191760	0.889720	0.816500
N21	N2	0.926600	0.705400	0.683500
N31	N3	0.808240	0.110280	0.316500
N41	N4	0.073400	0.294600	0.183500
N51	N5	0.697960	0.889720	0.683500
N61	N6	0.778800	0.705400	0.816500
N71	N7	0.302040	0.110280	0.183500
N81	N8	0.221200	0.294600	0.316500
Cl11	Cl1	0.997380	0.896360	0.000270
Cl21	Cl2	0.118300	0.538200	0.284850
Cl31	Cl3	0.916340	0.098280	0.793270
Cl41	Cl4	0.002620	0.103640	0.500270
Cl51	Cl5	0.881700	0.461800	0.784850
Cl61	Cl6	0.083660	0.901720	0.293270
Cl71	Cl7	0.898980	0.896360	0.499730
Cl81	Cl8	0.419900	0.538200	0.215150
Cl91	Cl9	0.181940	0.098280	0.706730
Cl101	Cl10	0.101020	0.103640	0.999730
Cl111	Cl11	0.580100	0.461800	0.715150
Cl121	Cl12	0.818060	0.901720	0.206730
O11	O1	0.193850	0.756900	0.880330
O21	O2	0.084910	0.662820	0.830620
O31	O3	0.984170	0.451740	0.983800
O41	O4	0.631850	0.319300	0.187300
O51	O5	0.794950	0.314500	0.215800
O61	O6	0.757180	0.455360	0.007000
O71	O7	0.402500	0.844000	0.810000
O81	O8	0.575230	0.855460	0.787900
O91	O9	0.426000	0.893600	0.009000
O101	O10	0.056670	0.762740	0.746430
O111	O11	0.806150	0.243100	0.380330
O121	O12	0.915090	0.337180	0.330620
O131	O13	0.015830	0.548260	0.483800
O141	O14	0.368150	0.680700	0.687300
O151	O15	0.205050	0.685500	0.715800
O161	O16	0.242820	0.544640	0.507000
O171	O17	0.597500	0.156000	0.310000
O181	O18	0.424770	0.144540	0.287900
O191	O19	0.574000	0.106400	0.509000
O201	O20	0.943330	0.237260	0.246430
O211	O21	0.563050	0.756900	0.619670
O221	O22	0.577910	0.662820	0.669380
O231	O23	0.467570	0.451740	0.516200
O241	O24	0.687450	0.319300	0.312700
O251	O25	0.519550	0.314500	0.284200
O261	O26	0.698180	0.455360	0.493000
O271	O27	0.441500	0.844000	0.690000
O281	O28	0.280230	0.855460	0.712100
O291	O29	0.467600	0.893600	0.491000
O301	O30	0.706070	0.762740	0.753570
O311	O31	0.436950	0.243100	0.119670
O321	O32	0.422090	0.337180	0.169380
O331	O33	0.532430	0.548260	0.016200
O341	O34	0.312550	0.680700	0.812700
O351	O35	0.480450	0.685500	0.784200
O361	O36	0.301820	0.544640	0.993000
O371	O37	0.558500	0.156000	0.190000
O381	O38	0.719770	0.144540	0.212100
O391	O39	0.532400	0.106400	0.991000
O401	O40	0.293930	0.237260	0.253570
