data_XOTSIK_freeONLY_PM
_symmetry_space_group_name_H-M	'P1'
_cell_length_a	13.969000
_cell_length_b	42.439000
_cell_length_c	33.470000
_cell_angle_alpha	90.000000
_cell_angle_beta	90.000000
_cell_angle_gamma	90.000000
_symmetry_Int_Tables_number 1

loop_
_symmetry_equiv_pos_as_xyz
'x,y,z'

loop_
_atom_site_label
_atom_site_type_symbol
_atom_site_fract_x
_atom_site_fract_y
_atom_site_fract_z
Cd11	Cd1	0.923990	0.179170	0.996290
Cd21	Cd2	0.351190	0.635210	0.989030
Cd31	Cd3	0.576010	0.679170	0.996290
Cd41	Cd4	0.121240	0.671000	0.022630
Cd51	Cd5	0.148810	0.135210	0.989030
Cd61	Cd6	0.378760	0.171000	0.022630
Cd71	Cd7	0.878760	0.329000	0.522630
Cd81	Cd8	0.648810	0.364790	0.489030
Cd91	Cd9	0.076010	0.820830	0.496290
Cd101	Cd10	0.423990	0.320830	0.496290
Cd111	Cd11	0.621240	0.829000	0.522630
Cd121	Cd12	0.851190	0.864790	0.489030
H11	H1	0.583700	0.406700	0.040700
H21	H2	0.815600	0.920600	0.051400
H31	H3	0.595400	0.669300	0.857000
H41	H4	0.426000	0.575600	0.048800
H51	H5	0.616000	0.043000	0.719400
H61	H6	0.571200	0.153300	0.840200
H71	H7	0.058400	0.413600	0.065300
H81	H8	0.740800	0.002300	0.572800
H91	H9	0.557700	0.278700	0.051600
H101	H10	0.442300	0.721300	0.551600
H111	H11	0.024200	0.443100	0.239800
H121	H12	0.976400	0.762900	0.118900
H131	H13	0.439400	0.550800	0.728100
H141	H14	0.906200	0.942400	0.052100
H151	H15	0.493600	0.298900	0.937500
H161	H16	0.497100	0.965300	0.611000
H171	H17	0.037200	0.295900	0.025000
H181	H18	0.462800	0.795900	0.025000
H191	H19	0.532600	0.778500	0.464500
H201	H20	0.801700	0.094200	0.075700
H211	H21	0.259200	0.997700	0.072800
H221	H22	0.506400	0.701100	0.437500
H231	H23	0.217400	0.047200	0.048100
H241	H24	0.448200	0.732700	0.435200
H251	H25	0.611500	0.409900	0.320500
H261	H26	0.331300	0.911400	0.073600
H271	H27	0.022100	0.672500	0.697400
H281	H28	0.443400	0.526300	0.076800
H291	H29	0.636400	0.234400	0.023000
H301	H30	0.531200	0.804100	0.690600
H311	H31	0.477900	0.172500	0.697400
H321	H32	0.167000	0.608500	0.805000
H331	H33	0.380700	0.528600	0.699800
H341	H34	0.902500	0.745300	0.146300
H351	H35	0.522100	0.827500	0.197400
H361	H36	0.162200	0.709900	0.484900
H371	H37	0.388500	0.590100	0.820500
H381	H38	0.952200	0.828500	0.142700
H391	H39	0.710700	0.723600	0.479200
H401	H40	0.814300	0.600000	0.002100
H411	H41	0.782600	0.952800	0.548100
H421	H42	0.301700	0.405800	0.575700
H431	H43	0.404600	0.330700	0.357000
H441	H44	0.416100	0.599900	0.887600
H451	H45	0.948200	0.767300	0.935200
H461	H46	0.210700	0.776400	0.979200
H471	H47	0.168700	0.411400	0.073600
H481	H48	0.507400	0.261500	0.165300
H491	H49	0.597500	0.245300	0.146300
H501	H50	0.452200	0.671500	0.642700
H511	H51	0.516100	0.338700	0.185700
H521	H52	0.685700	0.100000	0.002100
H531	H53	0.263000	0.721700	0.082000
H541	H54	0.375200	0.666700	0.676200
H551	H55	0.970400	0.420500	0.574500
H561	H56	0.520500	0.780100	0.577400
H571	H57	0.095400	0.830700	0.357000
H581	H58	0.124800	0.166700	0.676200
H591	H59	0.994800	0.333900	0.399300
H601	H60	0.131200	0.694800	0.169300
H611	H61	0.384000	0.957000	0.219400
H621	H62	0.529600	0.920500	0.574500
H631	H63	0.479500	0.219900	0.077400
H641	H64	0.951200	0.327700	0.655200
H651	H65	0.539300	0.728000	0.408500
H661	H66	0.007400	0.238500	0.665300
H671	H67	0.833000	0.391500	0.305000
H681	H68	0.831300	0.588600	0.573600
H691	H69	0.416300	0.593300	0.540700
H701	H70	0.890500	0.677300	0.964500
H711	H71	0.333000	0.108500	0.805000
H721	H72	0.551800	0.267300	0.935200
H731	H73	0.111500	0.090100	0.820500
H741	H74	0.451200	0.172300	0.155200
H751	H75	0.467400	0.221500	0.964500
H761	H76	0.093800	0.057600	0.552100
H771	H77	0.007600	0.030200	0.696200
H781	H78	0.962800	0.704100	0.525000
H791	H79	0.119300	0.028600	0.699800
H801	H80	0.863600	0.734400	0.023000
H811	H81	0.282600	0.547200	0.048100
H821	H82	0.116700	0.383300	0.532400
H831	H83	0.668700	0.088600	0.573600
H841	H84	0.960700	0.228000	0.408500
H851	H85	0.139900	0.804400	0.971200
H861	H86	0.184400	0.079400	0.551400
H871	H87	0.977900	0.327500	0.197400
H881	H88	0.537200	0.204100	0.525000
H891	H89	0.574600	0.097500	0.996400
H901	H90	0.361700	0.286900	0.012400
H911	H91	0.574100	0.183200	0.677500
H921	H92	0.586800	0.653300	0.790000
H931	H93	0.983900	0.838700	0.185700
H941	H94	0.883300	0.616700	0.032400
H951	H95	0.002900	0.465300	0.611000
H961	H96	0.770100	0.333300	0.015800
H971	H97	0.861700	0.213100	0.512400
H981	H98	0.083700	0.093300	0.540700
H991	H99	0.032600	0.721500	0.964500
H1001	H100	0.553700	0.251000	0.494500
H1011	H101	0.441600	0.913600	0.065300
H1021	H102	0.926000	0.924400	0.548800
H1031	H103	0.074100	0.316800	0.177500
H1041	H104	0.916100	0.900100	0.387600
H1051	H105	0.446300	0.749000	0.994500
H1061	H106	0.890600	0.619400	0.566200
H1071	H107	0.363600	0.765600	0.523000
H1081	H108	0.428800	0.846700	0.340200
H1091	H109	0.047800	0.171500	0.642700
H1101	H110	0.083900	0.099900	0.887600
H1111	H111	0.492400	0.530200	0.696200
H1121	H112	0.494800	0.166100	0.899300
H1131	H113	0.698300	0.594200	0.075700
H1141	H114	0.136400	0.265600	0.523000
H1151	H115	0.475800	0.943100	0.239800
H1161	H116	0.109400	0.380600	0.066200
H1171	H117	0.086800	0.846700	0.290000
H1181	H118	0.925900	0.683200	0.677500
H1191	H119	0.556600	0.473700	0.576800
H1201	H120	0.619300	0.471400	0.199800
H1211	H121	0.315600	0.579400	0.551400
H1221	H122	0.560600	0.449200	0.228100
H1231	H123	0.242900	0.618300	0.868700
H1241	H124	0.993600	0.201100	0.437500
H1251	H125	0.946300	0.751000	0.494500
H1261	H126	0.460700	0.272000	0.908500
H1271	H127	0.837800	0.290100	0.984900
H1281	H128	0.020500	0.719900	0.077400
H1291	H129	0.483900	0.661300	0.685700
H1301	H130	0.609500	0.177300	0.964500
H1311	H131	0.888500	0.909900	0.320500
H1321	H132	0.074600	0.402500	0.496400
H1331	H133	0.014400	0.465100	0.202400
H1341	H134	0.717400	0.452800	0.548100
H1351	H135	0.737000	0.278300	0.582000
H1361	H136	0.056600	0.026300	0.076800
H1371	H137	0.257100	0.118300	0.868700
H1381	H138	0.574000	0.424400	0.548800
H1391	H139	0.548800	0.827700	0.655200
H1401	H140	0.060600	0.050800	0.728100
H1411	H141	0.939400	0.949200	0.228100
H1421	H142	0.884000	0.543000	0.719400
H1431	H143	0.074300	0.330100	0.221200
H1441	H144	0.860100	0.195600	0.471200
H1451	H145	0.016100	0.161300	0.685700
H1461	H146	0.425700	0.830100	0.221200
H1471	H147	0.029600	0.579500	0.074500
H1481	H148	0.574300	0.169900	0.721200
H1491	H149	0.039300	0.772000	0.908500
H1501	H150	0.763000	0.778300	0.582000
H1511	H151	0.782000	0.729800	0.610300
H1521	H152	0.928800	0.653300	0.840200
H1531	H153	0.757100	0.381700	0.368700
H1541	H154	0.390600	0.880600	0.066200
H1551	H155	0.360100	0.304400	0.971200
H1561	H156	0.337800	0.209900	0.484900
H1571	H157	0.684400	0.420600	0.051400
H1581	H158	0.402500	0.754700	0.646300
H1591	H159	0.282000	0.770200	0.110300
H1601	H160	0.925400	0.597500	0.996400
H1611	H161	0.368800	0.194800	0.169300
H1621	H162	0.742900	0.881700	0.368700
H1631	H163	0.583900	0.400100	0.387600
H1641	H164	0.289300	0.276400	0.979200
H1651	H165	0.051800	0.232700	0.435200
H1661	H166	0.383300	0.883300	0.532400
H1671	H167	0.507600	0.469800	0.196200
H1681	H168	0.925700	0.669900	0.721200
H1691	H169	0.868800	0.305200	0.669300
H1701	H170	0.979500	0.280100	0.577400
H1711	H171	0.425400	0.902500	0.496400
H1721	H172	0.943400	0.973700	0.576800
H1731	H173	0.524200	0.056900	0.739800
H1741	H174	0.185700	0.400000	0.502100
H1751	H175	0.638300	0.713100	0.512400
H1761	H176	0.218000	0.270200	0.110300
H1771	H177	0.005200	0.666100	0.899300
H1781	H178	0.270100	0.166700	0.515800
H1791	H179	0.031200	0.695900	0.190600
H1801	H180	0.558400	0.086400	0.565300
H1811	H181	0.505200	0.833900	0.399300
H1821	H182	0.913200	0.153300	0.790000
H1831	H183	0.023600	0.237100	0.618900
H1841	H184	0.074000	0.075600	0.048800
H1851	H185	0.789300	0.223600	0.479200
H1861	H186	0.492600	0.738500	0.665300
H1871	H187	0.468800	0.195900	0.190600
H1881	H188	0.048800	0.672300	0.155200
H1891	H189	0.967400	0.278500	0.464500
H1901	H190	0.880700	0.971400	0.199800
H1911	H191	0.547800	0.328500	0.142700
H1921	H192	0.476400	0.737100	0.618900
H1931	H193	0.502900	0.034700	0.111000
H1941	H194	0.470400	0.079500	0.074500
H1951	H195	0.593800	0.442400	0.052100
H1961	H196	0.514400	0.034900	0.702400
H1971	H197	0.240800	0.497700	0.072800
H1981	H198	0.997100	0.534700	0.111000
H1991	H199	0.941600	0.586400	0.565300
H2001	H200	0.985600	0.534900	0.702400
H2011	H201	0.097500	0.254700	0.646300
H2021	H202	0.662200	0.790100	0.984900
H2031	H203	0.942300	0.778700	0.051600
H2041	H204	0.413200	0.346700	0.290000
H2051	H205	0.639900	0.695600	0.471200
H2061	H206	0.992600	0.761500	0.165300
H2071	H207	0.616700	0.116700	0.032400
H2081	H208	0.053700	0.249000	0.994500
H2091	H209	0.116000	0.457000	0.219400
H2101	H210	0.071200	0.346700	0.340200
H2111	H211	0.057700	0.221300	0.551600
H2121	H212	0.975800	0.556900	0.739800
H2131	H213	0.729900	0.833300	0.015800
H2141	H214	0.425900	0.816800	0.177500
H2151	H215	0.667000	0.891500	0.305000
H2161	H216	0.229900	0.666700	0.515800
H2171	H217	0.390500	0.822700	0.464500
H2181	H218	0.904600	0.169300	0.857000
H2191	H219	0.875200	0.833300	0.176200
H2201	H220	0.237000	0.221700	0.082000
H2211	H221	0.759200	0.502300	0.572800
H2221	H222	0.523600	0.262900	0.118900
H2231	H223	0.314300	0.900000	0.502100
H2241	H224	0.138300	0.786900	0.012400
H2251	H225	0.406200	0.557600	0.552100
H2261	H226	0.631200	0.805200	0.669300
H2271	H227	0.624800	0.333300	0.176200
H2281	H228	0.485600	0.965100	0.202400
H2291	H229	0.609400	0.119400	0.566200
H2301	H230	0.198300	0.905800	0.575700
H2311	H231	0.109500	0.322700	0.464500
H2321	H232	0.006400	0.798900	0.937500
H2331	H233	0.992400	0.969800	0.196200
H2341	H234	0.718000	0.229800	0.610300
H2351	H235	0.916300	0.906700	0.040700
H2361	H236	0.968800	0.304100	0.690600
C11	C1	0.924700	0.876000	0.153400
C21	C2	0.447300	0.949100	0.214800
C31	C3	0.750600	0.757700	0.005100
C41	C4	0.117800	0.218800	0.540100
C51	C5	0.083100	0.424600	0.147200
C61	C6	0.352900	0.727300	0.036200
C71	C7	0.990900	0.646400	0.845200
C81	C8	0.716200	0.787200	0.000700
C91	C9	0.277300	0.043900	0.059500
C101	C10	0.047800	0.708000	0.097800
C111	C11	0.552700	0.050900	0.714800
C121	C12	0.916900	0.575400	0.647200
C131	C13	0.681200	0.874700	0.363200
C141	C14	0.850100	0.802500	0.516600
C151	C15	0.500200	0.878000	0.278700
C161	C16	0.935000	0.840700	0.165700
C171	C17	0.985100	0.931200	0.558300
C181	C18	0.432400	0.600400	0.682300
C191	C19	0.490900	0.853600	0.345200
C201	C20	0.818800	0.374700	0.363200
C211	C21	0.963300	0.346600	0.380800
C221	C22	0.005000	0.864300	0.379400
C231	C23	0.571200	0.765100	0.479500
C241	C24	0.330600	0.149200	0.929300
C251	C25	0.435000	0.659300	0.665700
C261	C26	0.669400	0.850800	0.429300
C271	C27	0.411800	0.616700	0.611600
C281	C28	0.418300	0.470700	0.588400
C291	C29	0.405600	0.840100	0.113700
C301	C30	0.283800	0.212800	0.500700
C311	C31	0.116000	0.510600	0.096300
C321	C32	0.489000	0.276500	0.934000
C331	C33	0.934500	0.087700	0.056300
C341	C34	0.541200	0.871400	0.317100
C351	C35	0.589900	0.470500	0.117200
C361	C36	0.059500	0.363600	0.179600
C371	C37	0.699100	0.985400	0.575900
C381	C38	0.403500	0.981700	0.117700
C391	C39	0.435600	0.542200	0.701700
C401	C40	0.036700	0.653400	0.880800
C411	C41	0.872100	0.357700	0.390300
C421	C42	0.918300	0.029300	0.088400
C431	C43	0.556600	0.652500	0.849700
C441	C44	0.681800	0.234700	0.587800
C451	C45	0.416900	0.924600	0.147200
C461	C46	0.627900	0.857700	0.390300
C471	C47	0.911800	0.883300	0.111600
C481	C48	0.054100	0.536100	0.096800
C491	C49	0.626900	0.336500	0.061700
C501	C50	0.588200	0.383300	0.111600
C511	C51	0.608000	0.098700	0.577800
C521	C52	0.318200	0.765300	0.087800
C531	C53	0.575300	0.376000	0.153400
C541	C54	0.483500	0.620600	0.800400
C551	C55	0.749400	0.257700	0.005100
C561	C56	0.940500	0.636400	0.679600
C571	C57	0.403400	0.837700	0.484000
C581	C58	0.425000	0.780400	0.036900
C591	C59	0.909700	0.938300	0.129300
C601	C60	0.382200	0.718800	0.540100
C611	C61	0.384000	0.010600	0.096300
C621	C62	0.073600	0.069100	0.671100
C631	C63	0.961200	0.884600	0.254300
C641	C64	0.830600	0.350800	0.429300
C651	C65	0.909900	0.544600	0.631100
C661	C66	0.654700	0.931300	0.560300
C671	C67	0.660600	0.310700	0.040300
C681	C68	0.923800	0.436100	0.576200
C691	C69	0.179500	0.598600	0.038100
C701	C70	0.820500	0.401400	0.538100
C711	C71	0.009100	0.353600	0.345200
C721	C72	0.440500	0.863600	0.179600
C731	C73	0.449700	0.607400	0.721400
C741	C74	0.320500	0.098600	0.038100
C751	C75	0.909100	0.997000	0.107000
C761	C76	0.536700	0.846600	0.380800
C771	C77	0.049300	0.856100	0.309600
C781	C78	0.852900	0.772700	0.536200
C791	C79	0.910100	0.970500	0.117200
C801	C80	0.550300	0.392600	0.221400
C811	C81	0.590100	0.044600	0.631100
C821	C82	0.722700	0.956100	0.559500
C831	C83	0.805200	0.764100	0.570300
C841	C84	0.935600	0.957800	0.201700
C851	C85	0.345300	0.068700	0.060300
C861	C86	0.088400	0.398800	0.122300
C871	C87	0.694800	0.264100	0.570300
C881	C88	0.133400	0.619200	0.824800
C891	C89	0.694400	0.729300	0.996800
C901	C90	0.585200	0.247300	0.518500
C911	C91	0.334600	0.745800	0.522300
C921	C92	0.391000	0.641800	0.585200
C931	C93	0.578600	0.132500	0.639400
C941	C94	0.941900	0.580000	0.687000
C951	C95	0.380100	0.787200	0.074100
C961	C96	0.194400	0.770700	0.496800
C971	C97	0.583100	0.075400	0.647200
C981	C98	0.839400	0.810700	0.040300
C991	C99	0.945900	0.463900	0.596800
C1001	C100	0.090300	0.061700	0.629300
C1011	C101	0.409900	0.955400	0.131100
C1021	C102	0.921400	0.632500	0.639400
C1031	C103	0.199100	0.514600	0.075900
C1041	C104	0.805600	0.229300	0.996800
C1051	C105	0.065500	0.912300	0.556300
C1061	C106	0.216200	0.712800	0.500700
C1071	C107	0.549300	0.643900	0.809600
C1081	C108	0.076200	0.563900	0.076200
C1091	C109	0.943400	0.152500	0.849700
C1101	C110	0.951700	0.610800	0.703500
C1111	C111	0.818200	0.734700	0.587800
C1121	C112	0.474800	0.885800	0.245600
C1131	C113	0.424700	0.624000	0.653400
C1141	C114	0.414800	0.752700	0.018500
C1151	C115	0.075000	0.280400	0.036900
C1161	C116	0.169400	0.649200	0.929300
C1171	C117	0.648400	0.579700	0.076200
C1181	C118	0.888900	0.683700	0.594300
C1191	C119	0.845300	0.431300	0.560300
C1201	C120	0.056600	0.847500	0.349700
C1211	C121	0.423800	0.063900	0.076200
C1221	C122	0.041200	0.628600	0.817100
C1231	C123	0.410100	0.529500	0.617200
C1241	C124	0.553000	0.388100	0.368200
C1251	C125	0.617200	0.421500	0.057200
C1261	C126	0.554100	0.963900	0.596800
C1271	C127	0.616000	0.989400	0.596300
C1281	C128	0.441900	0.920000	0.187000
C1291	C129	0.437000	0.192900	0.165500
C1301	C130	0.898500	0.913600	0.099600
C1311	C131	0.596600	0.162300	0.984000
C1321	C132	0.126000	0.389000	0.504900
C1331	C133	0.509100	0.146400	0.845200
C1341	C134	0.954800	0.668200	0.695300
C1351	C135	0.148400	0.920300	0.576200
C1361	C136	0.590300	0.438300	0.129300
C1371	C137	0.581700	0.529300	0.088400
C1381	C138	0.003700	0.039500	0.074800
C1391	C139	0.499800	0.122000	0.778700
C1401	C140	0.565500	0.587700	0.056300
C1411	C141	0.409100	0.503000	0.607000
C1421	C142	0.633400	0.880800	0.324800
C1431	C143	0.619900	0.212800	0.574100
C1441	C144	0.611100	0.183700	0.594300
C1451	C145	0.556500	0.622500	0.035500
C1461	C146	0.421400	0.867500	0.139400
C1471	C147	0.836600	0.052400	0.096500
C1481	C148	0.665400	0.254200	0.022300
C1491	C149	0.305600	0.270700	0.496800
C1501	C150	0.031000	0.249800	0.642500
C1511	C151	0.052700	0.449100	0.214800
C1521	C152	0.452200	0.208000	0.097800
C1531	C153	0.565000	0.340700	0.165700
C1541	C154	0.443500	0.377500	0.535500
C1551	C155	0.601500	0.413600	0.099600
C1561	C156	0.905600	0.659900	0.613700
C1571	C157	0.548300	0.110800	0.703500
C1581	C158	0.545200	0.168200	0.695300
C1591	C159	0.374000	0.889000	0.504900
C1601	C160	0.512800	0.644800	0.926800
C1611	C161	0.928800	0.265100	0.479500
C1621	C162	0.496300	0.539500	0.074800
C1631	C163	0.181800	0.265300	0.087800
C1641	C164	0.514900	0.431200	0.558300
C1651	C165	0.758300	0.813600	0.018700
C1661	C166	0.352600	0.284400	0.984200
C1671	C167	0.088200	0.116700	0.611600
C1681	C168	0.222700	0.543900	0.059500
C1691	C169	0.834600	0.754200	0.022300
C1701	C170	0.567000	0.394800	0.328100
C1711	C171	0.969000	0.750200	0.142500
C1721	C172	0.463300	0.153400	0.880800
C1731	C173	0.947300	0.550900	0.714800
C1741	C174	0.882800	0.921500	0.057200
C1751	C175	0.163400	0.947600	0.596500
C1761	C176	0.016500	0.120600	0.800400
C1771	C177	0.983500	0.879400	0.300400
C1781	C178	0.147100	0.227300	0.036200
C1791	C179	0.800900	0.485400	0.575900
C1801	C180	0.351600	0.420300	0.576200
C1811	C181	0.503700	0.460500	0.574800
C1821	C182	0.258300	0.686400	0.518700
C1831	C183	0.117200	0.078500	0.557200
C1841	C184	0.038800	0.115400	0.754300
C1851	C185	0.048300	0.389200	0.203500
C1861	C186	0.952200	0.292000	0.597800
C1871	C187	0.511000	0.723500	0.434000
C1881	C188	0.241700	0.186400	0.518700
C1891	C189	0.649900	0.302500	0.516600
C1901	C190	0.058100	0.420000	0.187000
C1911	C191	0.336600	0.447600	0.596500
C1921	C192	0.000200	0.622000	0.778700
C1931	C193	0.111100	0.316300	0.094300
C1941	C194	0.558100	0.080000	0.687000
C1951	C195	0.461200	0.615400	0.754300
C1961	C196	0.147400	0.784400	0.984200
C1971	C197	0.096600	0.337700	0.484000
C1981	C198	0.987200	0.144800	0.926800
C1991	C199	0.398500	0.586400	0.599600
C2001	C200	0.891000	0.858200	0.085200
C2011	C201	0.609000	0.358200	0.085200
C2021	C202	0.045200	0.331800	0.195300
C2031	C203	0.458800	0.128600	0.817100
C2041	C204	0.575000	0.219600	0.536900
C2051	C205	0.454800	0.831800	0.195300
C2061	C206	0.451700	0.889200	0.203500
C2071	C207	0.573600	0.430900	0.171100
C2081	C208	0.531000	0.250200	0.142500
C2091	C209	0.094400	0.340100	0.113700
C2101	C210	0.426400	0.569100	0.671100
C2111	C211	0.126900	0.163500	0.561700
C2121	C212	0.741700	0.313600	0.018700
C2131	C213	0.925000	0.719600	0.536900
C2141	C214	0.525200	0.114200	0.745600
C2151	C215	0.559500	0.136400	0.679600
C2161	C216	0.081700	0.970700	0.588400
C2171	C217	0.567600	0.399600	0.182300
C2181	C218	0.165400	0.245800	0.522300
C2191	C219	0.065000	0.159300	0.665700
C2201	C220	0.851600	0.079700	0.076200
C2211	C221	0.350100	0.697500	0.016600
C2221	C222	0.445900	0.036100	0.096800
C2231	C223	0.903500	0.518300	0.617700
C2241	C224	0.989000	0.223500	0.434000
C2251	C225	0.075300	0.124000	0.653400
C2261	C226	0.516500	0.379400	0.300400
C2271	C227	0.085200	0.252700	0.018500
C2281	C228	0.903400	0.662300	0.984000
C2291	C229	0.626000	0.111000	0.004900
C2301	C230	0.109000	0.141800	0.585200
C2311	C231	0.852600	0.215600	0.484200
C2321	C232	0.433000	0.605200	0.828100
C2331	C233	0.014900	0.068800	0.058300
C2341	C234	0.025200	0.385800	0.245600
C2351	C235	0.428800	0.234900	0.979500
C2361	C236	0.933000	0.894800	0.328100
C2371	C237	0.012800	0.855200	0.426800
C2381	C238	0.096500	0.481700	0.117700
C2391	C239	0.056500	0.877500	0.535500
C2401	C240	0.880100	0.712800	0.574100
C2411	C241	0.485100	0.568800	0.058300
C2421	C242	0.447000	0.611900	0.868200
C2431	C243	0.090900	0.003000	0.607000
C2441	C244	0.011000	0.776500	0.934000
C2451	C245	0.663400	0.552400	0.096500
C2461	C246	0.409700	0.561700	0.629300
C2471	C247	0.318800	0.125300	0.863200
C2481	C248	0.119900	0.287200	0.074100
C2491	C249	0.300900	0.014600	0.075900
C2501	C250	0.564400	0.457800	0.201700
C2511	C251	0.943500	0.122500	0.035500
C2521	C252	0.538800	0.384600	0.254300
C2531	C253	0.874000	0.611000	0.004900
C2541	C254	0.882200	0.781200	0.040100
C2551	C255	0.050300	0.107400	0.721400
C2561	C256	0.947000	0.888100	0.368200
C2571	C257	0.388900	0.816300	0.094300
C2581	C258	0.892000	0.598700	0.577800
C2591	C259	0.382800	0.578500	0.557200
C2601	C260	0.339400	0.689300	0.540300
C2611	C261	0.873100	0.836500	0.061700
C2621	C262	0.372100	0.142300	0.890300
C2631	C263	0.777300	0.456100	0.559500
C2641	C264	0.305200	0.735900	0.070300
C2651	C265	0.563000	0.807100	0.665500
C2661	C266	0.926400	0.930900	0.171100
C2671	C267	0.067000	0.105200	0.828100
C2681	C268	0.194800	0.235900	0.070300
C2691	C269	0.443400	0.347500	0.349700
C2701	C270	0.647100	0.272700	0.536200
C2711	C271	0.154700	0.568700	0.060300
C2721	C272	0.596500	0.018300	0.617700
C2731	C273	0.999800	0.378000	0.278700
C2741	C274	0.547800	0.792000	0.597800
C2751	C275	0.958800	0.371400	0.317100
C2761	C276	0.090100	0.455400	0.131100
C2771	C277	0.495000	0.364300	0.379400
C2781	C278	0.974800	0.614200	0.745600
C2791	C279	0.866600	0.380800	0.324800
C2801	C280	0.392000	0.901300	0.077800
C2811	C281	0.914800	0.747300	0.518500
C2821	C282	0.373100	0.663500	0.561700
C2831	C283	0.588400	0.101200	0.622300
C2841	C284	0.679500	0.901400	0.538100
C2851	C285	0.949700	0.892600	0.221400
C2861	C286	0.160600	0.189300	0.540300
C2871	C287	0.249400	0.242300	0.505100
C2881	C288	0.576200	0.936100	0.576200
C2891	C289	0.487200	0.355200	0.426800
C2901	C290	0.884000	0.489400	0.596300
C2911	C291	0.101500	0.086400	0.599600
C2921	C292	0.950700	0.143900	0.809600
C2931	C293	0.911600	0.601200	0.622300
C2941	C294	0.127900	0.642300	0.890300
C2951	C295	0.450700	0.356100	0.309600
C2961	C296	0.932400	0.899600	0.182300
C2971	C297	0.995000	0.135700	0.879400
C2981	C298	0.996300	0.960500	0.574800
C2991	C299	0.149900	0.197500	0.016600
C3001	C300	0.064400	0.042200	0.701700
C3011	C301	0.181200	0.625300	0.863200
C3021	C302	0.594400	0.159900	0.613700
C3031	C303	0.250600	0.742300	0.505100
C3041	C304	0.108000	0.401300	0.077800
C3051	C305	0.617800	0.281200	0.040100
C3061	C306	0.590900	0.497000	0.107000
C3071	C307	0.505000	0.635700	0.879400
C3081	C308	0.937000	0.307100	0.665500
C3091	C309	0.053000	0.111900	0.868200
C3101	C310	0.071200	0.734900	0.979500
C3111	C311	0.063000	0.692900	0.165500
C3121	C312	0.078600	0.367500	0.139400
C3131	C313	0.089900	0.029500	0.617200
C3141	C314	0.469000	0.749800	0.642500
C3151	C315	0.647400	0.715600	0.484200
C3161	C316	0.411600	0.898800	0.122300
C3171	C317	0.067600	0.100400	0.682300
C3181	C318	0.434500	0.412300	0.556300
C3191	C319	0.366600	0.119200	0.824800
C3201	C320	0.783800	0.287200	0.000700
N11	N1	0.872700	0.638000	0.981600
N21	N2	0.424200	0.261900	0.968400
N31	N3	0.969000	0.283300	0.637100
N41	N4	0.075800	0.761900	0.968400
N51	N5	0.531000	0.783300	0.637100
N61	N6	0.627300	0.138000	0.981600
N71	N7	0.469000	0.216700	0.137100
N81	N8	0.127300	0.362000	0.481600
N91	N9	0.575800	0.738100	0.468400
N101	N10	0.031000	0.716700	0.137100
N111	N11	0.372700	0.862000	0.481600
N121	N12	0.924200	0.238100	0.468400
O11	O1	0.252900	0.639400	0.935500
O21	O2	0.932600	0.164100	0.933300
O31	O3	0.567400	0.664100	0.933300
O41	O4	0.752900	0.860600	0.435500
O51	O5	0.370700	0.364500	0.525500
O61	O6	0.732300	0.701700	0.999200
O71	O7	0.629300	0.635500	0.025500
O81	O8	0.240700	0.099800	0.022300
O91	O9	0.129300	0.864500	0.525500
O101	O10	0.387500	0.222900	0.008800
O111	O11	0.619000	0.836200	0.455900
O121	O12	0.971300	0.873500	0.448000
O131	O13	0.459000	0.830700	0.515300
O141	O14	0.615100	0.733800	0.978800
O151	O15	0.112500	0.722900	0.008800
O161	O16	0.884900	0.233800	0.978800
O171	O17	0.591200	0.310550	0.491400
O181	O18	0.747100	0.360600	0.435500
O191	O19	0.624600	0.879400	0.541800
O201	O20	0.267700	0.298300	0.499200
O211	O21	0.474600	0.633800	0.034400
O221	O22	0.432600	0.335900	0.433300
O231	O23	0.612500	0.777100	0.508800
O241	O24	0.215100	0.177820	0.029200
O251	O25	0.908800	0.810550	0.491400
O261	O26	0.767700	0.201700	0.999200
O271	O27	0.881000	0.336200	0.455900
O281	O28	0.384900	0.266200	0.478800
O291	O29	0.875400	0.379400	0.541800
O301	O30	0.041000	0.330700	0.515300
O311	O31	0.025400	0.133800	0.034400
O321	O32	0.870700	0.135500	0.025500
O331	O33	0.715100	0.322180	0.529200
O341	O34	0.096700	0.685500	0.089200
O351	O35	0.541000	0.169300	0.015300
O361	O36	0.403300	0.185500	0.089200
O371	O37	0.247100	0.139400	0.935500
O381	O38	0.284900	0.677820	0.029200
O391	O39	0.067400	0.835900	0.433300
O401	O40	0.028700	0.126500	0.948000
O411	O41	0.124600	0.620600	0.041800
O421	O42	0.887500	0.277100	0.508800
O431	O43	0.259300	0.599800	0.022300
O441	O44	0.784900	0.822180	0.529200
O451	O45	0.115100	0.766200	0.478800
O461	O46	0.525400	0.366200	0.534400
O471	O47	0.759300	0.900200	0.522300
O481	O48	0.596700	0.814500	0.589200
O491	O49	0.740700	0.400200	0.522300
O501	O50	0.974600	0.866200	0.534400
O511	O51	0.471300	0.626500	0.948000
O521	O52	0.528700	0.373500	0.448000
O531	O53	0.119000	0.663800	0.955900
O541	O54	0.959000	0.669300	0.015300
O551	O55	0.381000	0.163800	0.955900
O561	O56	0.091200	0.189450	0.991400
O571	O57	0.903300	0.314500	0.589200
O581	O58	0.408800	0.689450	0.991400
O591	O59	0.375400	0.120600	0.041800
O601	O60	0.232300	0.798300	0.499200
Cd131	Cd13	0.464850	0.817230	0.805800
Cd141	Cd14	0.193990	0.637440	0.300340
Cd151	Cd15	0.964850	0.682770	0.305800
Cd161	Cd16	0.693990	0.862560	0.800340
Cd171	Cd17	0.535150	0.182770	0.305800
Cd181	Cd18	0.915830	0.838970	0.753340
Cd191	Cd19	0.306010	0.137440	0.300340
Cd201	Cd20	0.084170	0.161030	0.253340
Cd211	Cd21	0.584170	0.338970	0.753340
Cd221	Cd22	0.415830	0.661030	0.253340
Cd231	Cd23	0.806010	0.362560	0.800340
Cd241	Cd24	0.035150	0.317230	0.805800
H2371	H237	0.718900	0.249500	0.214100
H2381	H238	0.350200	0.364700	0.926300
H2391	H239	0.868500	0.241700	0.343400
H2401	H240	0.424200	0.458400	0.070600
H2411	H241	0.737200	0.059700	0.210700
H2421	H242	0.393000	0.437800	0.034000
H2431	H243	0.683600	0.904100	0.634500
H2441	H244	0.344800	0.036800	0.558900
H2451	H245	0.262800	0.940300	0.710700
H2461	H246	0.203000	0.650200	0.600100
H2471	H247	0.592000	0.851300	0.106700
H2481	H248	0.762800	0.559700	0.210700
H2491	H249	0.830800	0.609500	0.230900
H2501	H250	0.757000	0.924900	0.238000
H2511	H251	0.620900	0.295400	0.312600
H2521	H252	0.606600	0.353900	0.618300
H2531	H253	0.943300	0.717400	0.782500
H2541	H254	0.879100	0.795400	0.312600
H2551	H255	0.593000	0.776300	0.340800
H2561	H256	0.131500	0.758300	0.843400
H2571	H257	0.323800	0.326500	0.055700
H2581	H258	0.242200	0.652800	0.201100
H2591	H259	0.421200	0.248000	0.277100
H2601	H260	0.107000	0.937800	0.034000
H2611	H261	0.556600	0.704400	0.299900
H2621	H262	0.056600	0.795600	0.799900
H2631	H263	0.454300	0.208800	0.766700
H2641	H264	0.578800	0.752000	0.777100
H2651	H265	0.338500	0.100400	0.397600
H2661	H266	0.591300	0.922800	0.718600
H2671	H267	0.330800	0.890500	0.730900
H2681	H268	0.411100	0.017500	0.587600
H2691	H269	0.510900	0.169400	0.442900
H2701	H270	0.167400	0.813000	0.099100
H2711	H271	0.799800	0.487200	0.089200
H2721	H272	0.820300	0.863800	0.924500
H2731	H273	0.155200	0.536800	0.558900
H2741	H274	0.149800	0.864700	0.926300
H2751	H275	0.969100	0.470900	0.687800
H2761	H276	0.911100	0.482500	0.087600
H2771	H277	0.795400	0.292100	0.197200
H2781	H278	0.575200	0.677000	0.575600
H2791	H279	0.740900	0.513100	0.735700
H2801	H280	0.088900	0.517500	0.587600
H2811	H281	0.759100	0.013100	0.735700
H2821	H282	0.408000	0.148700	0.606700
H2831	H283	0.017900	0.267000	0.243300
H2841	H284	0.316400	0.095900	0.134500
H2851	H285	0.757800	0.347200	0.701100
H2861	H286	0.259100	0.486900	0.235700
H2871	H287	0.218900	0.250500	0.714100
H2881	H288	0.780400	0.467000	0.763500
H2891	H289	0.703000	0.849800	0.100100
H2901	H290	0.244800	0.913900	0.203600
H2911	H291	0.704600	0.792100	0.197200
H2921	H292	0.631500	0.741700	0.343400
H2931	H293	0.086200	0.031500	0.155800
H2941	H294	0.603200	0.628600	0.250400
H2951	H295	0.850200	0.135300	0.426300
H2961	H296	0.099300	0.847900	0.711700
H2971	H297	0.091300	0.577200	0.218600
H2981	H298	0.400700	0.347900	0.711700
H2991	H299	0.921200	0.252000	0.777100
H3001	H300	0.801300	0.839300	0.286700
H3011	H301	0.056700	0.282600	0.282500
H3021	H302	0.634300	0.589300	0.710500
H3031	H303	0.907000	0.276300	0.340800
H3041	H304	0.257800	0.152800	0.201100
H3051	H305	0.396800	0.371400	0.750400
H3061	H306	0.237200	0.440300	0.710700
H3071	H307	0.635700	0.389100	0.611000
H3081	H308	0.092000	0.648700	0.606700
H3091	H309	0.586200	0.468500	0.655800
H3101	H310	0.146500	0.570300	0.743500
H3111	H311	0.184100	0.956400	0.058600
H3121	H312	0.532000	0.848400	0.007100
H3131	H313	0.365700	0.410700	0.210500
H3141	H314	0.379100	0.704600	0.812600
H3151	H315	0.183600	0.595900	0.134500
H3161	H316	0.240900	0.986900	0.235700
H3171	H317	0.297000	0.150200	0.600100
H3181	H318	0.545700	0.791200	0.266700
H3191	H319	0.134300	0.910700	0.210500
H3201	H320	0.575800	0.541600	0.570600
H3211	H321	0.556700	0.217400	0.782500
H3221	H322	0.103500	0.131800	0.480800
H3231	H323	0.161500	0.600400	0.397600
H3241	H324	0.820000	0.418800	0.961200
H3251	H325	0.418600	0.296200	0.246000
H3261	H326	0.176200	0.826500	0.055700
H3271	H327	0.175800	0.734700	0.812400
H3281	H328	0.581400	0.703800	0.746000
H3291	H329	0.797000	0.349800	0.100100
H3301	H330	0.169200	0.390500	0.730900
H3311	H331	0.332600	0.313000	0.099100
H3321	H332	0.816400	0.404100	0.634500
H3331	H333	0.698700	0.339300	0.286700
H3341	H334	0.281100	0.750500	0.714100
H3351	H335	0.093000	0.723700	0.840800
H3361	H336	0.575500	0.644200	0.367900
H3371	H337	0.482100	0.767000	0.243300
H3381	H338	0.649800	0.635300	0.426300
H3391	H339	0.010900	0.330600	0.942900
H3401	H340	0.106600	0.146100	0.118300
H3411	H341	0.864300	0.889100	0.611000
H3421	H342	0.989100	0.669400	0.442900
H3431	H343	0.045700	0.708800	0.766700
H3441	H344	0.712000	0.958400	0.232400
H3451	H345	0.893400	0.853900	0.618300
H3461	H346	0.599300	0.652100	0.211700
H3471	H347	0.815900	0.043600	0.558600
H3481	H348	0.669200	0.109500	0.230900
H3491	H349	0.204600	0.707900	0.697200
H3501	H350	0.295400	0.207900	0.697200
H3511	H351	0.135700	0.110900	0.111000
H3521	H352	0.607000	0.562200	0.534000
H3531	H353	0.340500	0.158600	0.642000
H3541	H354	0.690700	0.362000	0.589000
H3551	H355	0.853500	0.429700	0.243500
H3561	H356	0.679700	0.363800	0.924500
H3571	H357	0.408700	0.077200	0.218600
H3581	H358	0.200200	0.512800	0.589200
H3591	H359	0.280400	0.033000	0.263500
H3601	H360	0.659500	0.841400	0.142000
H3611	H361	0.111800	0.077600	0.190800
H3621	H362	0.823800	0.173500	0.555700
H3631	H363	0.190700	0.138000	0.089000
H3641	H364	0.918600	0.203800	0.746000
H3651	H365	0.184800	0.267600	0.184200
H3661	H366	0.300000	0.380700	0.212400
H3671	H367	0.212000	0.541600	0.732400
H3681	H368	0.900700	0.152100	0.211700
H3691	H369	0.755200	0.086100	0.703600
H3701	H370	0.908700	0.422800	0.718600
H3711	H371	0.832600	0.187000	0.599100
H3721	H372	0.368500	0.258300	0.843400
H3731	H373	0.865200	0.371800	0.624200
H3741	H374	0.655200	0.963200	0.058900
H3751	H375	0.893000	0.062200	0.534000
H3761	H376	0.320000	0.081200	0.461200
H3771	H377	0.200000	0.880700	0.212400
H3781	H378	0.742200	0.847200	0.701100
H3791	H379	0.943400	0.204400	0.299900
H3801	H380	0.667400	0.687000	0.599100
H3811	H381	0.530900	0.970900	0.687800
H3821	H382	0.365200	0.128200	0.124200
H3831	H383	0.243000	0.075100	0.738000
H3841	H384	0.913800	0.968500	0.655800
H3851	H385	0.743000	0.424900	0.238000
H3861	H386	0.815300	0.777000	0.720200
H3871	H387	0.489100	0.830600	0.942900
H3881	H388	0.700000	0.619300	0.712400
H3891	H389	0.407000	0.223700	0.840800
H3901	H390	0.081400	0.796200	0.246000
H3911	H391	0.396500	0.631800	0.480800
H3921	H392	0.159500	0.658600	0.642000
H3931	H393	0.468000	0.151600	0.507100
H3941	H394	0.443400	0.295600	0.799900
H3951	H395	0.908000	0.351300	0.106700
H3961	H396	0.315300	0.723000	0.220200
H3971	H397	0.661500	0.899600	0.897600
H3981	H398	0.288000	0.041600	0.732400
H3991	H399	0.676200	0.673500	0.555700
H4001	H400	0.982100	0.733000	0.743300
H4011	H401	0.924800	0.177000	0.575600
H4021	H402	0.684700	0.277000	0.720200
H4031	H403	0.315900	0.456400	0.058600
H4041	H404	0.924200	0.041600	0.570600
H4051	H405	0.840500	0.341400	0.142000
H4061	H406	0.788000	0.458400	0.232400
H4071	H407	0.443300	0.782600	0.282500
H4081	H408	0.353500	0.070300	0.743500
H4091	H409	0.413800	0.531500	0.155800
H4101	H410	0.781100	0.749500	0.214100
H4111	H411	0.198700	0.160700	0.786700
H4121	H412	0.675800	0.765300	0.312400
H4131	H413	0.393400	0.646100	0.118300
H4141	H414	0.815200	0.732400	0.684200
H4151	H415	0.719600	0.967000	0.763500
H4161	H416	0.611800	0.422400	0.690800
H4171	H417	0.517900	0.233000	0.743300
H4181	H418	0.180000	0.581200	0.461200
H4191	H419	0.634800	0.871800	0.624200
H4201	H420	0.844800	0.463200	0.058900
H4211	H421	0.684100	0.543600	0.558600
H4221	H422	0.824200	0.265300	0.312400
H4231	H423	0.424800	0.323000	0.075600
H4241	H424	0.700200	0.987200	0.089200
H4251	H425	0.324200	0.234700	0.812400
H4261	H426	0.358400	0.117000	0.168800
H4271	H427	0.315200	0.767600	0.184200
H4281	H428	0.646500	0.929700	0.243500
H4291	H429	0.744800	0.586100	0.703600
H4301	H430	0.103200	0.871400	0.750400
H4311	H431	0.800000	0.119300	0.712400
H4321	H432	0.078800	0.748000	0.277100
H4331	H433	0.075500	0.855800	0.867900
H4341	H434	0.968000	0.348400	0.007100
H4351	H435	0.469100	0.029100	0.187800
H4361	H436	0.075800	0.958400	0.070600
H4371	H437	0.603500	0.368200	0.980800
H4381	H438	0.388200	0.577600	0.190800
H4391	H439	0.954300	0.291200	0.266700
H4401	H440	0.134800	0.628200	0.124200
H4411	H441	0.032000	0.651600	0.507100
H4421	H442	0.888200	0.922400	0.690800
H4431	H443	0.364300	0.610900	0.111000
H4441	H444	0.257000	0.575100	0.738000
H4451	H445	0.255200	0.413900	0.203600
H4461	H446	0.299800	0.012800	0.589200
H4471	H447	0.075200	0.823000	0.075600
H4481	H448	0.120900	0.204600	0.812600
H4491	H449	0.424500	0.355800	0.867900
H4501	H450	0.030900	0.529100	0.187800
H4511	H451	0.301300	0.660700	0.786700
H4521	H452	0.896500	0.868200	0.980800
H4531	H453	0.179700	0.136200	0.424500
H4541	H454	0.896800	0.128600	0.250400
H4551	H455	0.219600	0.533000	0.263500
H4561	H456	0.588900	0.982500	0.087600
H4571	H457	0.320300	0.636200	0.424500
H4581	H458	0.184700	0.223000	0.220200
H4591	H459	0.924500	0.144200	0.367900
H4601	H460	0.684800	0.232400	0.684200
H4611	H461	0.309300	0.638000	0.089000
H4621	H462	0.809300	0.862000	0.589000
H4631	H463	0.641600	0.883000	0.668800
H4641	H464	0.680000	0.918800	0.961200
H4651	H465	0.141600	0.617000	0.168800
H4661	H466	0.865700	0.089300	0.710500
H4671	H467	0.838500	0.399600	0.897600
H4681	H468	0.858400	0.383000	0.668800
C3211	C321	0.744800	0.792700	0.219300
C3221	C322	0.162300	0.609700	0.632000
C3231	C323	0.552200	0.859400	0.984600
C3241	C324	0.149700	0.527800	0.585100
C3251	C325	0.755200	0.292700	0.219300
C3261	C326	0.267200	0.737700	0.224400
C3271	C327	0.419400	0.375900	0.997500
C3281	C328	0.309700	0.559800	0.232400
C3291	C329	0.721300	0.494200	0.724400
C3301	C330	0.301600	0.231600	0.251700
C3311	C331	0.710200	0.349000	0.681800
C3321	C332	0.508100	0.874700	0.749800
C3331	C333	0.183500	0.603200	0.673600
C3341	C334	0.476000	0.280400	0.785200
C3351	C335	0.857000	0.400800	0.957300
C3361	C336	0.190300	0.059800	0.232400
C3371	C337	0.194400	0.700900	0.270900
C3381	C338	0.140600	0.487600	0.681400
C3391	C339	0.536000	0.097400	0.228600
C3401	C340	0.658000	0.985700	0.170600
C3411	C341	0.974300	0.425800	0.715800
C3421	C342	0.386800	0.637000	0.424800
C3431	C343	0.637700	0.583600	0.587900
C3441	C344	0.255200	0.207300	0.719300
C3451	C345	0.837700	0.390300	0.132000
C3461	C346	0.882100	0.258900	0.325700
C3471	C347	0.325100	0.395300	0.153800
C3481	C348	0.103800	0.613000	0.489500
C3491	C349	0.690300	0.440200	0.732400
C3501	C350	0.332400	0.475700	0.161300
C3511	C351	0.826500	0.382800	0.643400
C3521	C352	0.694400	0.799100	0.770900
C3531	C353	0.162300	0.951900	0.144500
C3541	C354	0.698400	0.768400	0.751700
C3551	C355	0.732100	0.235500	0.703300
C3561	C356	0.705200	0.411700	0.758100
C3571	C357	0.809700	0.940200	0.732400
C3581	C358	0.548400	0.851200	0.872400
C3591	C359	0.696800	0.873700	0.200000
C3601	C360	0.799600	0.820800	0.271800
C3611	C361	0.825100	0.104700	0.653800
C3621	C362	0.810000	0.099300	0.699400
C3631	C363	0.326300	0.506400	0.186700
C3641	C364	0.313300	0.070500	0.685200
C3651	C365	0.572200	0.863700	0.913500
C3661	C366	0.128300	0.407000	0.724500
C3671	C367	0.368800	0.110100	0.419000
C3681	C368	0.583200	0.635900	0.425700
C3691	C369	0.287200	0.732600	0.730000
C3701	C370	0.868800	0.389900	0.919000
C3711	C371	0.305600	0.200900	0.270900
C3721	C372	0.499300	0.774600	0.269300
C3731	C373	0.847000	0.794500	0.288300
C3741	C374	0.850300	0.472200	0.085100
C3751	C375	0.232800	0.237700	0.224400
C3761	C376	0.500700	0.225400	0.769300
C3771	C377	0.967200	0.131400	0.460300
C3781	C378	0.337700	0.451900	0.144500
C3791	C379	0.794800	0.911700	0.758100
C3801	C380	0.491900	0.125300	0.249800
C3811	C381	0.342400	0.734300	0.764600
C3821	C382	0.767900	0.735500	0.703300
C3831	C383	0.827700	0.136000	0.638500
C3841	C384	0.947800	0.359400	0.984600
C3851	C385	0.826300	0.993600	0.686700
C3861	C386	0.052200	0.640600	0.484600
C3871	C387	0.667600	0.524300	0.661300
C3881	C388	0.864800	0.406800	0.063400
C3891	C389	0.416800	0.364100	0.925700
C3901	C390	0.662300	0.890300	0.132000
C3911	C391	0.529600	0.847800	0.946500
C3921	C392	0.712800	0.267400	0.230000
C3931	C393	0.340800	0.632100	0.113300
C3941	C394	0.970400	0.347800	0.946500
C3951	C395	0.183700	0.839400	0.163800
C3961	C396	0.199400	0.787900	0.209400
C3971	C397	0.842400	0.765700	0.264600
C3981	C398	0.991900	0.374700	0.749800
C3991	C399	0.872800	0.247200	0.759000
C4001	C400	0.186700	0.570500	0.685200
C4011	C401	0.390800	0.648200	0.346700
C4021	C402	0.232100	0.264500	0.203300
C4031	C403	0.803200	0.373700	0.200000
C4041	C404	0.964000	0.597400	0.228600
C4051	C405	0.303200	0.126300	0.700000
C4061	C406	0.382100	0.241100	0.825700
C4071	C407	0.560000	0.357500	0.887300
C4081	C408	0.890800	0.539700	0.195500
C4091	C409	0.359400	0.987600	0.681400
C4101	C410	0.172300	0.864000	0.138500
C4111	C411	0.362300	0.416400	0.087900
C4121	C412	0.378600	0.101300	0.529900
C4131	C413	0.683500	0.896800	0.173600
C4141	C414	0.113200	0.137000	0.424800
C4151	C415	0.832100	0.451700	0.157900
C4161	C416	0.127200	0.752800	0.259000
C4171	C417	0.432000	0.633300	0.457400
C4181	C418	0.236400	0.032500	0.242600
C4191	C419	0.732800	0.262300	0.724400
C4201	C420	0.109200	0.148200	0.346700
C4211	C421	0.294800	0.588300	0.258100
C4221	C422	0.763600	0.967500	0.742600
C4231	C423	0.832400	0.024300	0.661300
C4241	C424	0.000700	0.274600	0.269300
C4251	C425	0.718800	0.850300	0.220900
C4261	C426	0.871700	0.593000	0.224500
C4271	C427	0.359600	0.559000	0.199700
C4281	C428	0.371700	0.907000	0.724500
C4291	C429	0.690000	0.599300	0.699400
C4301	C430	0.328600	0.937100	0.710100
C4311	C431	0.672300	0.636000	0.638500
C4321	C432	0.940000	0.857500	0.887300
C4331	C433	0.137700	0.916400	0.087900
C4341	C434	0.299600	0.679200	0.771800
C4351	C435	0.878600	0.398700	0.029900
C4361	C436	0.427800	0.136300	0.413500
C4371	C437	0.345100	0.421800	0.127100
C4381	C438	0.859400	0.512400	0.181400
C4391	C439	0.141400	0.827800	0.080300
C4401	C440	0.316300	0.339400	0.163800
C4411	C441	0.342600	0.054700	0.617200
C4421	C442	0.867000	0.113100	0.572300
C4431	C443	0.627200	0.747200	0.759000
C4441	C444	0.683700	0.660600	0.663800
C4451	C445	0.624900	0.555000	0.560100
C4461	C446	0.525700	0.925800	0.715800
C4471	C447	0.845100	0.078200	0.627100
C4481	C448	0.816300	0.160600	0.663800
C4491	C449	0.976000	0.219600	0.285200
C4501	C450	0.649900	0.639200	0.597100
C4511	C451	0.149900	0.860800	0.097100
C4521	C452	0.451600	0.148800	0.372400
C4531	C453	0.932000	0.866700	0.957400
C4541	C454	0.375100	0.445000	0.060100
C4551	C455	0.243900	0.178100	0.739700
C4561	C456	0.364800	0.093200	0.563400
C4571	C457	0.532800	0.631400	0.460300
C4581	C458	0.440000	0.642500	0.387300
C4591	C459	0.659200	0.367900	0.613300
C4601	C460	0.133000	0.886900	0.072300
C4611	C461	0.613200	0.363000	0.924800
C4621	C462	0.743900	0.321900	0.239700
C4631	C463	0.390800	0.960300	0.695500
C4641	C464	0.032800	0.868600	0.960300
C4651	C465	0.701900	0.936200	0.228700
C4661	C466	0.798100	0.436200	0.228700
C4671	C467	0.461400	0.358700	0.890700
C4681	C468	0.080600	0.875900	0.997500
C4691	C469	0.700400	0.320800	0.271800
C4701	C470	0.263600	0.532500	0.242600
C4711	C471	0.392200	0.380500	0.030300
C4721	C472	0.298100	0.063800	0.728700
C4731	C473	0.673700	0.493600	0.686700
C4741	C474	0.135200	0.593200	0.563400
C4751	C475	0.345000	0.086600	0.603800
C4761	C476	0.657600	0.265700	0.264600
C4771	C477	0.862300	0.083600	0.587900
C4781	C478	0.372700	0.281200	0.239700
C4791	C479	0.316500	0.103200	0.673600
C4801	C480	0.157400	0.554700	0.617200
C4811	C481	0.210200	0.151000	0.181800
C4821	C482	0.153000	0.205500	0.788300
C4831	C483	0.859600	0.941000	0.699700
C4841	C484	0.205200	0.088300	0.258100
C4851	C485	0.872100	0.968400	0.677400
C4861	C486	0.131200	0.610100	0.419000
C4871	C487	0.350100	0.360800	0.097100
C4881	C488	0.633000	0.613100	0.572300
C4891	C489	0.988800	0.544200	0.197500
C4901	C490	0.951600	0.351200	0.872400
C4911	C491	0.196800	0.626300	0.700000
C4921	C492	0.173500	0.617200	0.143400
C4931	C493	0.342000	0.014300	0.670600
C4941	C494	0.845000	0.413400	0.103800
C4951	C495	0.568000	0.366700	0.957400
C4961	C496	0.281200	0.149700	0.720900
C4971	C497	0.837700	0.048100	0.644500
C4981	C498	0.640400	0.441000	0.699700
C4991	C499	0.124900	0.945000	0.060100
C5001	C500	0.635200	0.906800	0.063400
C5011	C501	0.692900	0.684500	0.685900
C5021	C502	0.267900	0.764500	0.203300
C5031	C503	0.470400	0.152200	0.446500
C5041	C504	0.767200	0.762300	0.724400
C5051	C505	0.256100	0.678100	0.739700
C5061	C506	0.357000	0.099200	0.457300
C5071	C507	0.048400	0.648800	0.372400
C5081	C508	0.289800	0.651000	0.181800
C5091	C509	0.654900	0.578200	0.627100
C5101	C510	0.653300	0.854700	0.118900
C5111	C511	0.358600	0.327800	0.080300
C5121	C512	0.300600	0.287900	0.209400
C5131	C513	0.167600	0.975700	0.161300
C5141	C514	0.025700	0.574200	0.215800
C5151	C515	0.244800	0.707300	0.719300
C5161	C516	0.686700	0.929500	0.185200
C5171	C517	0.927800	0.363700	0.913500
C5181	C518	0.603800	0.887000	0.989500
C5191	C519	0.667900	0.951700	0.157900
C5201	C520	0.068000	0.133300	0.457400
C5211	C521	0.367000	0.386900	0.072300
C5221	C522	0.640600	0.012400	0.181400
C5231	C523	0.201900	0.563800	0.728700
C5241	C524	0.190000	0.900700	0.199400
C5251	C525	0.800600	0.212100	0.709400
C5261	C526	0.671400	0.062900	0.210100
C5271	C527	0.447800	0.140600	0.484600
C5281	C528	0.919400	0.124100	0.497500
C5291	C529	0.154900	0.921800	0.127100
C5301	C530	0.488800	0.955800	0.697500
C5311	C531	0.121400	0.601300	0.529900
C5321	C532	0.789800	0.849000	0.681800
C5331	C533	0.609200	0.351800	0.846700
C5341	C534	0.072200	0.636300	0.413500
C5351	C535	0.127300	0.781200	0.239700
C5361	C536	0.390100	0.763200	0.779200
C5371	C537	0.278700	0.505800	0.224400
C5381	C538	0.158000	0.514300	0.670600
C5391	C539	0.036000	0.402600	0.728600
C5401	C540	0.011200	0.455800	0.697500
C5411	C541	0.143000	0.599200	0.457300
C5421	C542	0.464000	0.902600	0.728600
C5431	C543	0.662300	0.548100	0.644500
C5441	C544	0.350300	0.027800	0.585100
C5451	C545	0.326500	0.117200	0.143400
C5461	C546	0.167900	0.548300	0.657900
C5471	C547	0.212800	0.232600	0.730000
C5481	C548	0.140400	0.059000	0.199700
C5491	C549	0.673500	0.882800	0.643400
C5501	C550	0.872700	0.218800	0.739700
C5511	C551	0.200400	0.179200	0.771800
C5521	C552	0.173700	0.006400	0.186700
C5531	C553	0.655000	0.913400	0.103800
C5541	C554	0.159200	0.132100	0.113300
C5551	C555	0.842000	0.485700	0.170600
C5561	C556	0.332100	0.048300	0.657900
C5571	C557	0.674900	0.604700	0.653800
C5581	C558	0.107800	0.880500	0.030300
C5591	C559	0.524000	0.719600	0.285200
C5601	C560	0.396200	0.113000	0.489500
C5611	C561	0.221300	0.005800	0.224400
C5621	C562	0.372800	0.252800	0.259000
C5631	C563	0.961400	0.141300	0.390700
C5641	C564	0.038600	0.858700	0.890700
C5651	C565	0.153300	0.645300	0.618900
C5661	C566	0.192900	0.815500	0.185900
C5671	C567	0.617900	0.758900	0.325700
C5681	C568	0.174900	0.895300	0.153800
C5691	C569	0.607800	0.619500	0.530300
C5701	C570	0.627900	0.468400	0.677400
C5711	C571	0.778700	0.994200	0.724400
C5721	C572	0.609200	0.039700	0.195500
C5731	C573	0.538600	0.641300	0.390700
C5741	C574	0.218800	0.649700	0.720900
C5751	C575	0.886800	0.863000	0.924800
C5761	C576	0.699400	0.712100	0.709400
C5771	C577	0.628300	0.093000	0.224500
C5781	C578	0.641400	0.672200	0.580300
C5791	C579	0.029600	0.652200	0.446500
C5801	C580	0.467200	0.368600	0.960300
C5811	C581	0.890100	0.736800	0.279200
C5821	C582	0.631200	0.889900	0.919000
C5831	C583	0.858600	0.172200	0.580300
C5841	C584	0.310000	0.400700	0.199400
C5851	C585	0.896200	0.387000	0.989500
C5861	C586	0.846700	0.354700	0.118900
C5871	C587	0.649700	0.972200	0.085100
C5881	C588	0.307100	0.315500	0.185900
C5891	C589	0.008100	0.625300	0.249800
C5901	C590	0.653000	0.294500	0.288300
C5911	C591	0.346700	0.145300	0.618900
C5921	C592	0.657400	0.945300	0.117200
C5931	C593	0.109900	0.263200	0.779200
C5941	C594	0.787200	0.767400	0.230000
C5951	C595	0.807100	0.184500	0.685900
C5961	C596	0.024000	0.780400	0.785200
C5971	C597	0.816500	0.396800	0.173600
C5981	C598	0.999300	0.725400	0.769300
C5991	C599	0.801600	0.268400	0.751700
C6001	C600	0.805600	0.299100	0.770900
C6011	C601	0.627300	0.718800	0.739700
C6021	C602	0.347000	0.705500	0.788300
C6031	C603	0.736400	0.467500	0.742600
C6041	C604	0.875100	0.055000	0.560100
C6051	C605	0.083200	0.864100	0.925700
C6061	C606	0.117900	0.741100	0.825700
C6071	C607	0.060000	0.142500	0.387300
C6081	C608	0.828600	0.562900	0.210100
C6091	C609	0.127900	0.031600	0.177400
C6101	C610	0.372100	0.531600	0.177400
C6111	C611	0.916800	0.135900	0.425700
C6121	C612	0.781200	0.350300	0.220900
C6131	C613	0.327700	0.364000	0.138500
C6141	C614	0.511200	0.044200	0.197500
C6151	C615	0.850100	0.139200	0.597100
C6161	C616	0.842600	0.445300	0.117200
C6171	C617	0.892200	0.119500	0.530300
C6181	C618	0.609900	0.236800	0.279200
C6191	C619	0.474300	0.074200	0.215800
C6201	C620	0.840800	0.867900	0.613300
C6211	C621	0.171400	0.437100	0.710100
C6221	C622	0.198400	0.731600	0.251700
C6231	C623	0.157600	0.234300	0.764600
C6241	C624	0.621400	0.898700	0.029900
C6251	C625	0.756100	0.821900	0.239700
C6261	C626	0.890800	0.851800	0.846700
C6271	C627	0.580600	0.624100	0.497500
C6281	C628	0.337700	0.109700	0.632000
C6291	C629	0.155000	0.586600	0.603800
C6301	C630	0.109200	0.460300	0.695500
C6311	C631	0.813300	0.429500	0.185200
C6321	C632	0.643000	0.900800	0.957300
N131	N13	0.229300	0.133900	0.147600
N141	N14	0.270700	0.633900	0.147600
N151	N15	0.729300	0.366100	0.647600
N161	N16	0.459100	0.251800	0.793300
N171	N17	0.959100	0.248200	0.293300
N181	N18	0.040900	0.751800	0.793300
N191	N19	0.770700	0.866100	0.647600
N201	N20	0.540900	0.748200	0.293300
O611	O61	0.941600	0.644000	0.268300
O621	O62	0.697900	0.353900	0.849100
O631	O63	0.602500	0.214400	0.254300
O641	O64	0.939900	0.847100	0.817800
O651	O65	0.560100	0.347100	0.817800
O661	O66	0.397500	0.785600	0.754300
O671	O67	0.061100	0.855200	0.736000
O681	O68	0.758400	0.819800	0.764800
O691	O69	0.127900	0.164800	0.188100
O701	O70	0.627900	0.335200	0.688100
O711	O71	0.561100	0.644800	0.236000
O721	O72	0.741600	0.319800	0.764800
O731	O73	0.058400	0.356000	0.768300
O741	O74	0.129900	0.693930	0.296900
O751	O75	0.925600	0.368200	0.843900
O761	O76	0.441600	0.856000	0.768300
O771	O77	0.592300	0.870200	0.748200
O781	O78	0.092300	0.629800	0.248200
O791	O79	0.438900	0.355200	0.736000
O801	O80	0.004400	0.674200	0.368600
O811	O81	0.971000	0.789200	0.760800
O821	O82	0.197900	0.146100	0.349100
O831	O83	0.372100	0.664800	0.188100
O841	O84	0.471000	0.710800	0.260800
O851	O85	0.439900	0.652900	0.317800
O861	O86	0.370100	0.193930	0.296900
O871	O87	0.495600	0.174200	0.368600
O881	O88	0.574400	0.868200	0.843900
O891	O89	0.241100	0.587600	0.286000
O901	O90	0.241600	0.180200	0.264800
O911	O91	0.425600	0.131800	0.343900
O921	O92	0.029000	0.210800	0.260800
O931	O93	0.656000	0.387900	0.745400
O941	O94	0.897500	0.714400	0.254300
O951	O95	0.424100	0.764550	0.814400
O961	O96	0.060100	0.152900	0.317800
O971	O97	0.844000	0.887900	0.745400
O981	O98	0.758900	0.412400	0.786000
O991	O99	0.907700	0.370200	0.748200
O1001	O100	0.258400	0.680200	0.264800
O1011	O101	0.156000	0.112100	0.245400
O1021	O102	0.102500	0.285600	0.754300
O1031	O103	0.407700	0.129800	0.248200
O1041	O104	0.802100	0.853900	0.849100
O1051	O105	0.344000	0.612100	0.245400
O1061	O106	0.870100	0.306070	0.796900
O1071	O107	0.558400	0.144000	0.268300
O1081	O108	0.529000	0.289200	0.760800
O1091	O109	0.575900	0.235450	0.314400
O1101	O110	0.302100	0.646100	0.349100
O1111	O111	0.872100	0.835200	0.688100
O1121	O112	0.074400	0.631800	0.343900
O1131	O113	0.258900	0.087600	0.286000
O1141	O114	0.075900	0.264550	0.814400
O1151	O115	0.938900	0.144800	0.236000
O1161	O116	0.629900	0.806070	0.796900
O1171	O117	0.741100	0.912400	0.786000
O1181	O118	0.995600	0.325800	0.868600
O1191	O119	0.504400	0.825800	0.868600
O1201	O120	0.924100	0.735450	0.314400
