data_XOTXUB_freeONLY_PM
_symmetry_space_group_name_H-M	'P1'
_cell_length_a	5.501000
_cell_length_b	22.297000
_cell_length_c	20.799000
_cell_angle_alpha	97.543000
_cell_angle_beta	90.000000
_cell_angle_gamma	90.000000
_symmetry_Int_Tables_number 1

loop_
_symmetry_equiv_pos_as_xyz
'x,y,z'

loop_
_atom_site_label
_atom_site_type_symbol
_atom_site_fract_x
_atom_site_fract_y
_atom_site_fract_z
Mn11	Mn1	0.311800	0.212150	0.299290
Mn21	Mn2	0.688200	0.787850	0.700710
Mn31	Mn3	0.811800	0.787850	0.200710
Mn41	Mn4	0.188200	0.212150	0.799290
H11	H1	0.058500	0.838300	0.116200
H21	H2	0.455500	0.492200	0.392300
H31	H3	0.726100	0.914600	0.472500
H41	H4	0.252700	0.703800	0.107600
H51	H5	0.262600	0.594900	0.571100
H61	H6	0.558500	0.161700	0.383800
H71	H7	0.020000	0.115000	0.675200
H81	H8	0.752700	0.296200	0.392400
H91	H9	0.202600	0.281400	0.542200
H101	H10	0.505900	0.977800	0.906300
H111	H11	0.272400	0.471000	0.850200
H121	H12	0.772400	0.529000	0.649800
H131	H13	0.359800	0.356300	0.830700
H141	H14	0.727600	0.529000	0.149800
H151	H15	0.452100	0.272200	0.727400
H161	H16	0.797400	0.718600	0.457800
H171	H17	0.428900	0.177500	0.065200
H181	H18	0.565800	0.350900	0.095800
H191	H19	0.520000	0.885000	0.824800
H201	H20	0.563000	0.687900	0.010600
H211	H21	0.164000	0.710700	0.851200
H221	H22	0.227600	0.471000	0.350200
H231	H23	0.866200	0.142800	0.522800
H241	H24	0.762600	0.405100	0.928900
H251	H25	0.207800	0.426700	0.007000
H261	H26	0.541100	0.543200	0.906100
H271	H27	0.133800	0.857200	0.477200
H281	H28	0.256200	0.825700	0.145600
H291	H29	0.121500	0.755700	0.758000
H301	H30	0.737400	0.405100	0.428900
H311	H31	0.870200	0.034300	0.382600
H321	H32	0.783400	0.323700	0.052900
H331	H33	0.297400	0.281400	0.042200
H341	H34	0.205500	0.817700	0.875500
H351	H35	0.716600	0.323700	0.552900
H361	H36	0.952100	0.727800	0.772600
H371	H37	0.366200	0.857200	0.977200
H381	H38	0.633800	0.142800	0.022800
H391	H39	0.454000	0.919400	0.556000
H401	H40	0.571100	0.822500	0.934800
H411	H41	0.994100	0.977800	0.406300
H421	H42	0.941500	0.161700	0.883800
H431	H43	0.434200	0.649100	0.904200
H441	H44	0.198600	0.771200	0.530100
H451	H45	0.216600	0.676300	0.947100
H461	H46	0.547900	0.727800	0.272600
H471	H47	0.041100	0.456800	0.593900
H481	H48	0.954000	0.080600	0.944000
H491	H49	0.629800	0.034300	0.882600
H501	H50	0.546000	0.080600	0.444000
H511	H51	0.446400	0.998100	0.305600
H521	H52	0.836000	0.289300	0.148800
H531	H53	0.091200	0.911100	0.721700
H541	H54	0.553600	0.001900	0.694400
H551	H55	0.794500	0.182300	0.124500
H561	H56	0.494100	0.022200	0.093700
H571	H57	0.937000	0.687900	0.510600
H581	H58	0.747300	0.296200	0.892400
H591	H59	0.955500	0.507800	0.107700
H601	H60	0.591200	0.088900	0.778300
H611	H61	0.336000	0.710700	0.351200
H621	H62	0.071100	0.177500	0.565200
H631	H63	0.063000	0.312100	0.489400
H641	H64	0.702600	0.718600	0.957800
H651	H65	0.980000	0.885000	0.324800
H661	H66	0.370200	0.965700	0.117400
H671	H67	0.928900	0.822500	0.434800
H681	H68	0.283400	0.676300	0.447100
H691	H69	0.908800	0.088900	0.278300
H701	H70	0.698600	0.228800	0.969900
H711	H71	0.441500	0.838300	0.616200
H721	H72	0.247300	0.703800	0.607600
H731	H73	0.074100	0.787700	0.930200
H741	H74	0.705500	0.182300	0.624500
H751	H75	0.743800	0.174300	0.854400
H761	H76	0.640200	0.643700	0.169300
H771	H77	0.958900	0.543200	0.406100
H781	H78	0.925900	0.212300	0.069800
H791	H79	0.801400	0.228800	0.469900
H801	H80	0.047900	0.272200	0.227400
H811	H81	0.756200	0.174300	0.354400
H821	H82	0.946400	0.001900	0.194400
H831	H83	0.878500	0.244300	0.242000
H841	H84	0.425900	0.787700	0.430200
H851	H85	0.408800	0.911100	0.221700
H861	H86	0.005900	0.022200	0.593700
H871	H87	0.773900	0.914600	0.972500
H881	H88	0.243800	0.825700	0.645600
H891	H89	0.294500	0.817700	0.375500
H901	H90	0.458900	0.456800	0.093900
H911	H91	0.237400	0.594900	0.071100
H921	H92	0.621500	0.244300	0.742000
H931	H93	0.273900	0.085400	0.527500
H941	H94	0.044500	0.492200	0.892300
H951	H95	0.140200	0.356300	0.330700
H961	H96	0.574100	0.212300	0.569800
H971	H97	0.792200	0.573300	0.993000
H981	H98	0.664000	0.289300	0.648800
H991	H99	0.226100	0.085400	0.027500
H1001	H100	0.129800	0.965700	0.617400
H1011	H101	0.480000	0.115000	0.175200
H1021	H102	0.053600	0.998100	0.805600
H1031	H103	0.437000	0.312100	0.989400
H1041	H104	0.292200	0.426700	0.507000
H1051	H105	0.046000	0.919400	0.056000
H1061	H106	0.707800	0.573300	0.493000
H1071	H107	0.065800	0.649100	0.404200
H1081	H108	0.378500	0.755700	0.258000
H1091	H109	0.934200	0.350900	0.595800
H1101	H110	0.859800	0.643700	0.669300
H1111	H111	0.301400	0.771200	0.030100
H1121	H112	0.544500	0.507800	0.607700
C11	C1	0.271900	0.790900	0.408210
C21	C2	0.471100	0.952600	0.533600
C31	C3	0.507200	0.732840	0.825640
C41	C4	0.635700	0.801900	0.061480
C51	C5	0.365100	0.050400	0.516800
C61	C6	0.470000	0.083400	0.746900
C71	C7	0.455200	0.285500	0.022360
C81	C8	0.476100	0.474270	0.055900
C91	C9	0.159400	0.006200	0.606800
C101	C10	0.183200	0.465100	0.889100
C111	C11	0.992800	0.732840	0.325640
C121	C12	0.771900	0.209100	0.091790
C131	C13	0.581000	0.182400	0.042910
C141	C14	0.365700	0.686400	0.926000
C151	C15	0.846800	0.517900	0.552300
C161	C16	0.380400	0.617700	0.595200
C171	C17	0.134300	0.686400	0.426000
C181	C18	0.041600	0.776550	0.509290
C191	C19	0.550000	0.964900	0.299400
C201	C20	0.683200	0.534900	0.610900
C211	C21	0.659400	0.993800	0.893200
C221	C22	0.709100	0.645500	0.649400
C231	C23	0.544800	0.714500	0.977640
C241	C24	0.119600	0.617700	0.095200
C251	C25	0.840600	0.993800	0.393200
C261	C26	0.874100	0.321900	0.884600
C271	C27	0.824700	0.543700	0.496100
C281	C28	0.790900	0.645500	0.149400
C291	C29	0.050000	0.035100	0.200600
C301	C30	0.290900	0.354500	0.350600
C311	C31	0.528900	0.047400	0.466400
C321	C32	0.619600	0.382300	0.404800
C331	C33	0.333700	0.002700	0.551500
C341	C34	0.450000	0.035100	0.700600
C351	C35	0.880400	0.382300	0.904800
C361	C36	0.007200	0.267160	0.674360
C371	C37	0.970000	0.916600	0.753100
C381	C38	0.955200	0.714500	0.477640
C391	C39	0.134900	0.050400	0.016800
C401	C40	0.209100	0.354500	0.850600
C411	C41	0.044800	0.285500	0.522360
C421	C42	0.541600	0.223450	0.990710
C431	C43	0.523900	0.525730	0.944100
C441	C44	0.950000	0.964900	0.799400
C451	C45	0.153200	0.482100	0.447700
C461	C46	0.816800	0.534900	0.110900
C471	C47	0.634300	0.313600	0.074000
C481	C48	0.865700	0.313600	0.574000
C491	C49	0.805600	0.271700	0.624610
C501	C50	0.694400	0.271700	0.124610
C511	C51	0.976100	0.525730	0.444100
C521	C52	0.194400	0.728300	0.375390
C531	C53	0.833700	0.997300	0.948500
C541	C54	0.666300	0.997300	0.448500
C551	C55	0.374100	0.678100	0.615400
C561	C56	0.023900	0.474270	0.555900
C571	C57	0.030000	0.083400	0.246900
C581	C58	0.458400	0.776550	0.009290
C591	C59	0.958400	0.223450	0.490710
C601	C60	0.865100	0.949600	0.983200
C611	C61	0.492800	0.267160	0.174360
C621	C62	0.228100	0.790900	0.908210
C631	C63	0.340600	0.006200	0.106800
C641	C64	0.081000	0.817600	0.457090
C651	C65	0.864300	0.801900	0.561480
C661	C66	0.419000	0.817600	0.957090
C671	C67	0.971100	0.047400	0.966400
C681	C68	0.341700	0.097700	0.190700
C691	C69	0.841700	0.902300	0.309300
C701	C70	0.919000	0.182400	0.542910
C711	C71	0.125900	0.678100	0.115400
C721	C72	0.364300	0.198100	0.938520
C731	C73	0.625900	0.321900	0.384600
C741	C74	0.175300	0.456300	0.503900
C751	C75	0.728100	0.209100	0.591790
C761	C76	0.028900	0.952600	0.033600
C771	C77	0.324700	0.456300	0.003900
C781	C78	0.166300	0.002700	0.051500
C791	C79	0.135700	0.198100	0.438520
C801	C80	0.675300	0.543700	0.996100
C811	C81	0.316800	0.465100	0.389100
C821	C82	0.653200	0.517900	0.052300
C831	C83	0.305600	0.728300	0.875390
C841	C84	0.158300	0.097700	0.690700
C851	C85	0.530000	0.916600	0.253100
C861	C86	0.346800	0.482100	0.947700
C871	C87	0.634900	0.949600	0.483200
C881	C88	0.658300	0.902300	0.809300
N11	N1	0.248900	0.044260	0.664560
N21	N2	0.417200	0.304170	0.350830
N31	N3	0.215200	0.123150	0.240490
N41	N4	0.251100	0.044260	0.164560
N51	N5	0.082800	0.304170	0.850830
N61	N6	0.405000	0.402690	0.382500
N71	N7	0.595000	0.597310	0.617500
N81	N8	0.582800	0.695830	0.649170
N91	N9	0.095000	0.402690	0.882500
N101	N10	0.917200	0.695830	0.149170
N111	N11	0.751100	0.955740	0.335440
N121	N12	0.748900	0.955740	0.835440
N131	N13	0.905000	0.597310	0.117500
N141	N14	0.715200	0.876850	0.259510
N151	N15	0.784800	0.876850	0.759510
N161	N16	0.284800	0.123150	0.740490
O11	O1	0.494200	0.259070	0.760680
O21	O2	0.339700	0.181310	0.455090
O31	O3	0.660300	0.818690	0.544910
O41	O4	0.571700	0.802250	0.120410
O51	O5	0.464200	0.768260	0.783310
O61	O6	0.071700	0.197750	0.379590
O71	O7	0.964200	0.231740	0.716690
O81	O8	0.535800	0.231740	0.216690
O91	O9	0.035800	0.768260	0.283310
O101	O10	0.928300	0.802250	0.620410
O111	O11	0.005800	0.259070	0.260680
O121	O12	0.505800	0.740930	0.239320
O131	O13	0.604400	0.167930	0.347730
O141	O14	0.395600	0.832070	0.652270
O151	O15	0.994200	0.740930	0.739320
O161	O16	0.197600	0.296590	0.672960
O171	O17	0.802400	0.703410	0.327040
O181	O18	0.428300	0.197750	0.879590
O191	O19	0.160300	0.181310	0.955090
O201	O20	0.697600	0.703410	0.827040
O211	O21	0.895600	0.167930	0.847730
O221	O22	0.839700	0.818690	0.044910
O231	O23	0.104400	0.832070	0.152270
O241	O24	0.302400	0.296590	0.172960
