data_XOVQEF_SL_PM
_symmetry_space_group_name_H-M	'P1'
_cell_length_a	28.833000
_cell_length_b	41.687000
_cell_length_c	30.561000
_cell_angle_alpha	90.000000
_cell_angle_beta	90.000000
_cell_angle_gamma	90.000000
_symmetry_Int_Tables_number 1

loop_
_symmetry_equiv_pos_as_xyz
'x,y,z'

loop_
_atom_site_label
_atom_site_type_symbol
_atom_site_fract_x
_atom_site_fract_y
_atom_site_fract_z
Zn11	Zn1	0.569340	0.854020	0.831020
Zn21	Zn2	0.481590	0.852050	0.889890
Zn31	Zn3	0.515540	0.636210	0.322860
Zn41	Zn4	0.503800	0.912410	0.831330
Zn51	Zn5	0.478530	0.592470	0.234390
Zn61	Zn6	0.469050	0.848150	0.786410
H71	H7	0.685600	0.902700	0.774100
H81	H8	0.738600	0.936300	0.739900
H91	H9	0.634100	0.981300	0.678300
H101	H10	0.581100	0.947800	0.712500
H111	H11	0.757700	0.999900	0.728400
H121	H12	0.744300	0.003400	0.437100
H131	H13	0.667500	0.007100	0.418600
H141	H14	0.607500	0.034400	0.384200
H151	H15	0.612600	0.102600	0.476900
H161	H16	0.672500	0.075400	0.511300
H171	H17	0.547500	0.647500	0.147600
H181	H18	0.595400	0.672300	0.096900
H191	H19	0.669600	0.711200	0.194800
H201	H20	0.621600	0.686400	0.245500
H211	H21	0.610800	0.728300	0.076000
H221	H22	0.417000	0.765500	0.915600
H231	H23	0.384300	0.715000	0.924000
H241	H24	0.338300	0.718200	0.800000
H251	H25	0.371000	0.768700	0.791600
H261	H26	0.274500	0.690100	0.839500
H271	H27	0.436200	0.531800	0.959600
H281	H28	0.817400	0.076400	0.660700
H291	H29	0.873900	0.105500	0.697500
H301	H30	0.895800	0.030600	0.777700
H311	H31	0.839300	0.001500	0.740900
H321	H32	0.854700	0.014000	0.441500
H331	H33	0.912400	0.989400	0.400500
H341	H34	0.856300	0.903200	0.426400
H351	H35	0.798700	0.927800	0.467400
H361	H36	0.974600	0.803400	0.164500
H371	H37	0.935400	0.775300	0.110400
H381	H38	0.837000	0.751000	0.197400
H391	H39	0.876200	0.779100	0.251500
H401	H40	0.914900	0.734300	0.076900
H411	H41	0.689200	0.760800	0.961300
H421	H42	0.648300	0.790700	0.910200
H431	H43	0.547300	0.805600	0.998500
H441	H44	0.588200	0.775700	0.049600
H451	H45	0.195400	0.678300	0.871500
H461	H46	0.119800	0.671000	0.847500
H471	H47	0.158900	0.591500	0.783000
H481	H48	0.234500	0.598800	0.807100
H491	H49	0.465300	0.497500	0.783700
H501	H50	0.436900	0.541900	0.820900
H511	H51	0.412400	0.486900	0.926300
H521	H52	0.440800	0.442500	0.889200
H531	H53	0.858000	0.721500	0.963300
H541	H54	0.906400	0.697600	0.912100
H551	H55	0.967100	0.646400	0.007700
H561	H56	0.918700	0.670300	0.058800
H571	H57	0.009500	0.620600	0.911500
H581	H58	0.365100	0.594100	0.044800
H591	H59	0.396400	0.590800	0.115600
H601	H60	0.520200	0.551700	0.075000
H611	H61	0.488700	0.560000	0.004700
H621	H62	0.531700	0.578000	0.174300
C631	C63	0.628100	0.921900	0.746700
C641	C64	0.675300	0.918500	0.754900
C651	C65	0.707000	0.938600	0.734400
C661	C66	0.691600	0.962200	0.705700
C671	C67	0.644400	0.965600	0.697500
C681	C68	0.612700	0.945500	0.718000
C691	C69	0.723000	0.981000	0.676900
C701	C70	0.720100	0.981200	0.631500
C711	C71	0.750000	0.000400	0.607200
C721	C72	0.782700	0.019400	0.628300
C731	C73	0.785600	0.019200	0.673700
C741	C74	0.755800	0.000000	0.698000
C751	C75	0.751200	0.001900	0.558300
C761	C76	0.784400	0.986000	0.533500
C771	C77	0.781800	0.986600	0.488100
C781	C78	0.746000	0.003000	0.467500
C791	C79	0.712800	0.018900	0.492300
C801	C80	0.715400	0.018400	0.537700
C811	C81	0.675900	0.038600	0.468400
C821	C82	0.656500	0.026290	0.430300
C831	C83	0.620600	0.042600	0.409700
C841	C84	0.604100	0.071200	0.427100
C851	C85	0.623600	0.083500	0.465200
C861	C86	0.659500	0.067200	0.485800
C871	C87	0.579800	0.664500	0.201600
C881	C88	0.571900	0.660200	0.157100
C891	C89	0.600700	0.675100	0.126700
C901	C90	0.637200	0.694200	0.140800
C911	C91	0.645100	0.698420	0.185300
C921	C92	0.616400	0.683500	0.215700
C931	C93	0.665900	0.711000	0.109300
C941	C94	0.643000	0.728400	0.077100
C951	C95	0.668300	0.746000	0.046700
C961	C96	0.716400	0.746100	0.048400
C971	C97	0.739400	0.728600	0.080500
C981	C98	0.714100	0.711100	0.111000
C991	C99	0.397200	0.772060	0.852800
C1001	C100	0.401200	0.756000	0.892400
C1011	C101	0.381700	0.725700	0.897500
C1021	C102	0.358100	0.711570	0.862800
C1031	C103	0.354100	0.727700	0.823200
C1041	C104	0.373600	0.757900	0.818100
C1051	C105	0.336700	0.678980	0.866000
C1061	C106	0.362200	0.654200	0.884700
C1071	C107	0.342400	0.624000	0.889500
C1081	C108	0.297200	0.618540	0.875500
C1091	C109	0.271800	0.643300	0.856800
C1101	C110	0.291500	0.673530	0.852000
C1111	C111	0.382000	0.599890	0.953900
C1121	C112	0.407100	0.574890	0.972400
C1131	C113	0.419400	0.548490	0.947200
C1141	C114	0.406500	0.547090	0.903400
C1151	C115	0.381400	0.572100	0.884900
C1161	C116	0.369100	0.598490	0.910100
C1171	C117	0.822800	0.036100	0.697200
C1181	C118	0.833100	0.067200	0.684100
C1191	C119	0.867000	0.084620	0.706200
C1201	C120	0.890400	0.070900	0.741200
C1211	C121	0.880100	0.039800	0.754200
C1221	C122	0.846200	0.022350	0.732200
C1231	C123	0.821000	0.973300	0.458500
C1241	C124	0.855000	0.991800	0.438500
C1251	C125	0.889600	0.977100	0.413900
C1261	C126	0.890100	0.943900	0.409400
C1271	C127	0.856000	0.925450	0.429400
C1281	C128	0.821500	0.940200	0.454000
C1291	C129	0.929300	0.794000	0.213300
C1301	C130	0.947000	0.792900	0.171100
C1311	C131	0.923500	0.776000	0.138700
C1321	C132	0.882300	0.760330	0.148500
C1331	C133	0.864600	0.761470	0.190800
C1341	C134	0.888100	0.778300	0.223200
C1351	C135	0.786500	0.729100	0.081400
C1361	C136	0.810400	0.715610	0.046400
C1371	C137	0.858500	0.717560	0.044800
C1381	C138	0.882700	0.733000	0.078000
C1391	C139	0.858800	0.746430	0.113000
C1401	C140	0.810700	0.744480	0.114700
C1411	C141	0.642800	0.765300	0.010500
C1421	C142	0.660800	0.769790	0.968800
C1431	C143	0.636300	0.787700	0.938100
C1441	C144	0.593700	0.801100	0.949300
C1451	C145	0.575700	0.796600	0.991000
C1461	C146	0.600300	0.778700	0.021600
C1471	C147	0.222400	0.639300	0.841700
C1481	C148	0.188100	0.660900	0.853800
C1491	C149	0.142800	0.656520	0.839400
C1501	C150	0.131900	0.630500	0.812900
C1511	C151	0.166200	0.608860	0.800800
C1521	C152	0.211500	0.613240	0.815200
C1531	C153	0.455900	0.465640	0.832700
C1541	C154	0.454700	0.495400	0.812270
C1551	C155	0.437600	0.521990	0.834600
C1561	C156	0.421800	0.518800	0.877300
C1571	C157	0.423000	0.489000	0.897700
C1581	C158	0.440000	0.462450	0.875500
C1591	C159	0.883600	0.698300	0.016100
C1601	C160	0.879900	0.706500	0.972200
C1611	C161	0.908900	0.692100	0.941500
C1621	C162	0.941600	0.669700	0.954800
C1631	C163	0.945300	0.661500	0.998800
C1641	C164	0.916300	0.675800	0.029400
C1651	C165	0.921700	0.090300	0.766400
C1661	C166	0.594300	0.903500	0.770500
C1671	C167	0.947500	0.818600	0.241900
C1681	C168	0.553200	0.648800	0.234300
C1691	C169	0.931500	0.928700	0.392300
C1701	C170	0.084500	0.625200	0.800300
C1711	C171	0.472500	0.438500	0.808600
C1721	C172	0.420700	0.802000	0.847300
C1731	C173	0.565100	0.088700	0.407000
C1741	C174	0.564000	0.815100	0.916700
C1751	C175	0.963700	0.652900	0.920500
C1761	C176	0.459100	0.571100	0.102900
C1771	C177	0.424200	0.575700	0.015800
C1781	C178	0.394800	0.586200	0.049800
C1791	C179	0.414500	0.583600	0.092300
C1801	C180	0.490900	0.560300	0.070100
C1811	C181	0.469500	0.564900	0.028200
C1821	C182	0.473700	0.574200	0.147800
O1831	O183	0.508400	0.865230	0.834600
O1841	O184	0.821200	0.972000	0.553200
O1851	O185	0.934000	0.817200	0.286600
O1861	O186	0.689100	0.964300	0.608700
O1871	O187	0.995200	0.824900	0.242100
O1881	O188	0.733600	0.692100	0.141600
O1891	O189	0.586200	0.823400	0.877000
O1901	O190	0.788300	0.701300	0.011300
O1911	O191	0.524900	0.833360	0.928900
O1921	O192	0.272800	0.591000	0.882800
O1931	O193	0.518700	0.625200	0.222000
O1941	O194	0.370500	0.570200	0.840600
O1951	O195	0.552500	0.657400	0.279000
O1961	O196	0.475500	0.408180	0.829600
O1971	O197	0.490500	0.441260	0.765700
O1981	O198	0.440400	0.814700	0.885600
O1991	O199	0.427100	0.813790	0.804200
O2001	O200	0.048800	0.643270	0.819900
O2011	O201	0.073500	0.602240	0.769300
O2021	O202	0.955200	0.942100	0.356400
O2031	O203	0.926600	0.895500	0.386100
O2041	O204	0.548100	0.076100	0.366700
O2051	O205	0.557600	0.120100	0.423100
O2061	O206	0.551300	0.917500	0.780400
O2071	O207	0.613500	0.879800	0.798400
O2081	O208	0.959500	0.072860	0.784000
O2091	O209	0.929000	0.122520	0.755300
O2101	O210	0.960600	0.654400	0.876000
O2111	O211	0.998600	0.629100	0.933400
O2121	O212	0.445700	0.584000	0.181200
O2131	O213	0.520700	0.565700	0.156100
H2141	H214	0.853770	0.982100	0.539590
H2151	H215	0.680280	0.977370	0.578160
H2161	H216	0.771920	0.694310	0.139870
H2171	H217	0.799340	0.713170	0.980500
H2181	H218	0.236810	0.593960	0.870560
H2191	H219	0.401880	0.575540	0.820850
H2201	H220	0.399300	0.658670	0.896070
H2211	H221	0.128020	0.621550	0.474630
H2221	H222	0.807160	0.035160	0.608370
H2231	H223	0.688200	0.031510	0.558040
H2241	H224	0.737110	0.760540	0.023460
H2251	H225	0.791090	0.755490	0.143400
Zn2261	Zn226	0.430660	0.145980	0.331020
Zn2271	Zn227	0.518410	0.147950	0.389890
Zn2281	Zn228	0.484460	0.363790	0.822860
Zn2291	Zn229	0.496200	0.087590	0.331330
Zn2301	Zn230	0.521470	0.407530	0.734390
Zn2311	Zn231	0.530950	0.151850	0.286410
H2321	H232	0.314400	0.097300	0.274100
H2331	H233	0.261400	0.063700	0.239900
H2341	H234	0.365900	0.018700	0.178300
H2351	H235	0.418900	0.052200	0.212500
H2361	H236	0.242300	0.000100	0.228400
H2371	H237	0.255700	0.996600	0.937100
H2381	H238	0.332500	0.992900	0.918600
H2391	H239	0.392500	0.965600	0.884200
H2401	H240	0.387400	0.897400	0.976900
H2411	H241	0.327500	0.924600	0.011300
H2421	H242	0.452500	0.352500	0.647600
H2431	H243	0.404600	0.327700	0.596900
H2441	H244	0.330400	0.288800	0.694800
H2451	H245	0.378400	0.313600	0.745500
H2461	H246	0.389200	0.271700	0.576000
H2471	H247	0.583000	0.234500	0.415600
H2481	H248	0.615700	0.285000	0.424000
H2491	H249	0.661700	0.281800	0.300000
H2501	H250	0.629000	0.231300	0.291600
H2511	H251	0.725500	0.309900	0.339500
H2521	H252	0.563800	0.468200	0.459600
H2531	H253	0.182600	0.923600	0.160700
H2541	H254	0.126100	0.894500	0.197500
H2551	H255	0.104200	0.969400	0.277700
H2561	H256	0.160700	0.998500	0.240900
H2571	H257	0.145300	0.986000	0.941500
H2581	H258	0.087600	0.010600	0.900500
H2591	H259	0.143700	0.096800	0.926400
H2601	H260	0.201300	0.072200	0.967400
H2611	H261	0.025400	0.196600	0.664500
H2621	H262	0.064600	0.224700	0.610400
H2631	H263	0.163000	0.249000	0.697400
H2641	H264	0.123800	0.220900	0.751500
H2651	H265	0.085100	0.265700	0.576900
H2661	H266	0.310800	0.239200	0.461300
H2671	H267	0.351700	0.209300	0.410200
H2681	H268	0.452700	0.194400	0.498500
H2691	H269	0.411800	0.224300	0.549600
H2701	H270	0.804600	0.321700	0.371500
H2711	H271	0.880200	0.329000	0.347500
H2721	H272	0.841100	0.408500	0.283000
H2731	H273	0.765500	0.401200	0.307100
H2741	H274	0.534700	0.502500	0.283700
H2751	H275	0.563100	0.458100	0.320900
H2761	H276	0.587600	0.513100	0.426300
H2771	H277	0.559200	0.557500	0.389200
H2781	H278	0.142000	0.278500	0.463300
H2791	H279	0.093600	0.302400	0.412100
H2801	H280	0.032900	0.353600	0.507700
H2811	H281	0.081300	0.329700	0.558800
H2821	H282	0.990500	0.379400	0.411500
H2831	H283	0.634900	0.405900	0.544800
H2841	H284	0.603600	0.409200	0.615600
H2851	H285	0.479800	0.448300	0.575000
H2861	H286	0.511300	0.440000	0.504700
H2871	H287	0.468300	0.422000	0.674300
C2881	C288	0.371900	0.078100	0.246700
C2891	C289	0.324700	0.081500	0.254900
C2901	C290	0.293000	0.061400	0.234400
C2911	C291	0.308400	0.037800	0.205700
C2921	C292	0.355600	0.034400	0.197500
C2931	C293	0.387300	0.054500	0.218000
C2941	C294	0.277000	0.019000	0.176900
C2951	C295	0.279900	0.018800	0.131500
C2961	C296	0.250000	0.999600	0.107200
C2971	C297	0.217300	0.980600	0.128300
C2981	C298	0.214400	0.980800	0.173700
C2991	C299	0.244200	0.000000	0.198000
C3001	C300	0.248800	0.998100	0.058300
C3011	C301	0.215600	0.014000	0.033500
C3021	C302	0.218200	0.013400	0.988100
C3031	C303	0.254000	0.997000	0.967500
C3041	C304	0.287200	0.981100	0.992300
C3051	C305	0.284600	0.981600	0.037700
C3061	C306	0.324100	0.961400	0.968400
C3071	C307	0.343500	0.973710	0.930300
C3081	C308	0.379400	0.957400	0.909700
C3091	C309	0.395900	0.928800	0.927100
C3101	C310	0.376400	0.916500	0.965200
C3111	C311	0.340500	0.932800	0.985800
C3121	C312	0.420200	0.335500	0.701600
C3131	C313	0.428100	0.339800	0.657100
C3141	C314	0.399300	0.324900	0.626700
C3151	C315	0.362800	0.305800	0.640800
C3161	C316	0.354900	0.301580	0.685300
C3171	C317	0.383600	0.316500	0.715700
C3181	C318	0.334100	0.289000	0.609300
C3191	C319	0.357000	0.271600	0.577100
C3201	C320	0.331700	0.254000	0.546700
C3211	C321	0.283600	0.253900	0.548400
C3221	C322	0.260600	0.271400	0.580500
C3231	C323	0.285900	0.288900	0.611000
C3241	C324	0.602800	0.227940	0.352800
C3251	C325	0.598800	0.244000	0.392400
C3261	C326	0.618300	0.274300	0.397500
C3271	C327	0.641900	0.288430	0.362800
C3281	C328	0.645900	0.272300	0.323200
C3291	C329	0.626400	0.242100	0.318100
C3301	C330	0.663300	0.321020	0.366000
C3311	C331	0.637800	0.345800	0.384700
C3321	C332	0.657600	0.376000	0.389500
C3331	C333	0.702800	0.381460	0.375500
C3341	C334	0.728200	0.356700	0.356800
C3351	C335	0.708500	0.326470	0.352000
C3361	C336	0.618000	0.400110	0.453900
C3371	C337	0.592900	0.425110	0.472400
C3381	C338	0.580600	0.451510	0.447200
C3391	C339	0.593500	0.452910	0.403400
C3401	C340	0.618600	0.427900	0.384900
C3411	C341	0.630900	0.401510	0.410100
C3421	C342	0.177200	0.963900	0.197200
C3431	C343	0.166900	0.932800	0.184100
C3441	C344	0.133000	0.915380	0.206200
C3451	C345	0.109600	0.929100	0.241200
C3461	C346	0.119900	0.960200	0.254200
C3471	C347	0.153800	0.977650	0.232200
C3481	C348	0.179000	0.026700	0.958500
C3491	C349	0.145000	0.008200	0.938500
C3501	C350	0.110400	0.022900	0.913900
C3511	C351	0.109900	0.056100	0.909400
C3521	C352	0.144000	0.074550	0.929400
C3531	C353	0.178500	0.059800	0.954000
C3541	C354	0.070700	0.206000	0.713300
C3551	C355	0.053000	0.207100	0.671100
C3561	C356	0.076500	0.224000	0.638700
C3571	C357	0.117700	0.239670	0.648500
C3581	C358	0.135400	0.238530	0.690800
C3591	C359	0.111900	0.221700	0.723200
C3601	C360	0.213500	0.270900	0.581400
C3611	C361	0.189600	0.284390	0.546400
C3621	C362	0.141500	0.282440	0.544800
C3631	C363	0.117300	0.267000	0.578000
C3641	C364	0.141200	0.253570	0.613000
C3651	C365	0.189300	0.255520	0.614700
C3661	C366	0.357200	0.234700	0.510500
C3671	C367	0.339200	0.230210	0.468800
C3681	C368	0.363700	0.212300	0.438100
C3691	C369	0.406300	0.198900	0.449300
C3701	C370	0.424300	0.203400	0.491000
C3711	C371	0.399700	0.221300	0.521600
C3721	C372	0.777600	0.360700	0.341700
C3731	C373	0.811900	0.339100	0.353800
C3741	C374	0.857200	0.343480	0.339400
C3751	C375	0.868100	0.369500	0.312900
C3761	C376	0.833800	0.391140	0.300800
C3771	C377	0.788500	0.386760	0.315200
C3781	C378	0.544100	0.534360	0.332700
C3791	C379	0.545300	0.504600	0.312270
C3801	C380	0.562400	0.478010	0.334600
C3811	C381	0.578200	0.481200	0.377300
C3821	C382	0.577000	0.511000	0.397700
C3831	C383	0.560000	0.537550	0.375500
C3841	C384	0.116400	0.301700	0.516100
C3851	C385	0.120100	0.293500	0.472200
C3861	C386	0.091100	0.307900	0.441500
C3871	C387	0.058400	0.330300	0.454800
C3881	C388	0.054700	0.338500	0.498800
C3891	C389	0.083700	0.324200	0.529400
C3901	C390	0.078300	0.909700	0.266400
C3911	C391	0.405700	0.096500	0.270500
C3921	C392	0.052500	0.181400	0.741900
C3931	C393	0.446800	0.351200	0.734300
C3941	C394	0.068500	0.071300	0.892300
C3951	C395	0.915500	0.374800	0.300300
C3961	C396	0.527500	0.561500	0.308600
C3971	C397	0.579300	0.198000	0.347300
C3981	C398	0.434900	0.911300	0.907000
C3991	C399	0.436000	0.184900	0.416700
C4001	C400	0.036300	0.347100	0.420500
C4011	C401	0.540900	0.428900	0.602900
C4021	C402	0.575800	0.424300	0.515800
C4031	C403	0.605200	0.413800	0.549800
C4041	C404	0.585500	0.416400	0.592300
C4051	C405	0.509100	0.439700	0.570100
C4061	C406	0.530500	0.435100	0.528200
C4071	C407	0.526300	0.425800	0.647800
O4081	O408	0.491600	0.134770	0.334600
O4091	O409	0.178800	0.028000	0.053200
O4101	O410	0.066000	0.182800	0.786600
O4111	O411	0.310900	0.035700	0.108700
O4121	O412	0.004800	0.175100	0.742100
O4131	O413	0.266400	0.307900	0.641600
O4141	O414	0.413800	0.176600	0.377000
O4151	O415	0.211700	0.298700	0.511300
O4161	O416	0.475100	0.166640	0.428900
O4171	O417	0.727200	0.409000	0.382800
O4181	O418	0.481300	0.374800	0.722000
O4191	O419	0.629500	0.429800	0.340600
O4201	O420	0.447500	0.342600	0.779000
O4211	O421	0.524500	0.591820	0.329600
O4221	O422	0.509500	0.558740	0.265700
O4231	O423	0.559600	0.185300	0.385600
O4241	O424	0.572900	0.186210	0.304200
O4251	O425	0.951200	0.356730	0.319900
O4261	O426	0.926500	0.397760	0.269300
O4271	O427	0.044800	0.057900	0.856400
O4281	O428	0.073400	0.104500	0.886100
O4291	O429	0.451900	0.923900	0.866700
O4301	O430	0.442400	0.879900	0.923100
O4311	O431	0.448700	0.082500	0.280400
O4321	O432	0.386500	0.120200	0.298400
O4331	O433	0.040500	0.927140	0.284000
O4341	O434	0.071000	0.877480	0.255300
O4351	O435	0.039400	0.345600	0.376000
O4361	O436	0.001400	0.370900	0.433400
O4371	O437	0.554300	0.416000	0.681200
O4381	O438	0.479300	0.434300	0.656100
H4391	H439	0.146230	0.017900	0.039590
H4401	H440	0.319720	0.022630	0.078160
H4411	H441	0.228080	0.305690	0.639870
H4421	H442	0.200660	0.286830	0.480500
H4431	H443	0.763190	0.406040	0.370560
H4441	H444	0.598120	0.424460	0.320850
H4451	H445	0.600700	0.341330	0.396070
H4461	H446	0.871980	0.378450	0.974630
H4471	H447	0.192840	0.964840	0.108370
H4481	H448	0.311800	0.968490	0.058040
H4491	H449	0.262890	0.239460	0.523460
H4501	H450	0.208910	0.244510	0.643400
Zn4511	Zn451	0.069340	0.145980	0.831020
Zn4521	Zn452	0.981590	0.147950	0.889890
Zn4531	Zn453	0.015540	0.363790	0.322860
Zn4541	Zn454	0.003800	0.087590	0.831330
Zn4551	Zn455	0.978530	0.407530	0.234390
Zn4561	Zn456	0.969050	0.151850	0.786410
H4571	H457	0.185600	0.097300	0.774100
H4581	H458	0.238600	0.063700	0.739900
H4591	H459	0.134100	0.018700	0.678300
H4601	H460	0.081100	0.052200	0.712500
H4611	H461	0.257700	0.000100	0.728400
H4621	H462	0.244300	0.996600	0.437100
H4631	H463	0.167500	0.992900	0.418600
H4641	H464	0.107500	0.965600	0.384200
H4651	H465	0.112600	0.897400	0.476900
H4661	H466	0.172500	0.924600	0.511300
H4671	H467	0.047500	0.352500	0.147600
H4681	H468	0.095400	0.327700	0.096900
H4691	H469	0.169600	0.288800	0.194800
H4701	H470	0.121600	0.313600	0.245500
H4711	H471	0.110800	0.271700	0.076000
H4721	H472	0.917000	0.234500	0.915600
H4731	H473	0.884300	0.285000	0.924000
H4741	H474	0.838300	0.281800	0.800000
H4751	H475	0.871000	0.231300	0.791600
H4761	H476	0.774500	0.309900	0.839500
H4771	H477	0.936200	0.468200	0.959600
H4781	H478	0.317400	0.923600	0.660700
H4791	H479	0.373900	0.894500	0.697500
H4801	H480	0.395800	0.969400	0.777700
H4811	H481	0.339300	0.998500	0.740900
H4821	H482	0.354700	0.986000	0.441500
H4831	H483	0.412400	0.010600	0.400500
H4841	H484	0.356300	0.096800	0.426400
H4851	H485	0.298700	0.072200	0.467400
H4861	H486	0.474600	0.196600	0.164500
H4871	H487	0.435400	0.224700	0.110400
H4881	H488	0.337000	0.249000	0.197400
H4891	H489	0.376200	0.220900	0.251500
H4901	H490	0.414900	0.265700	0.076900
H4911	H491	0.189200	0.239200	0.961300
H4921	H492	0.148300	0.209300	0.910200
H4931	H493	0.047300	0.194400	0.998500
H4941	H494	0.088200	0.224300	0.049600
H4951	H495	0.695400	0.321700	0.871500
H4961	H496	0.619800	0.329000	0.847500
H4971	H497	0.658900	0.408500	0.783000
H4981	H498	0.734500	0.401200	0.807100
H4991	H499	0.965300	0.502500	0.783700
H5001	H500	0.936900	0.458100	0.820900
H5011	H501	0.912400	0.513100	0.926300
H5021	H502	0.940800	0.557500	0.889200
H5031	H503	0.358000	0.278500	0.963300
H5041	H504	0.406400	0.302400	0.912100
H5051	H505	0.467100	0.353600	0.007700
H5061	H506	0.418700	0.329700	0.058800
H5071	H507	0.509500	0.379400	0.911500
H5081	H508	0.865100	0.405900	0.044800
H5091	H509	0.896400	0.409200	0.115600
H5101	H510	0.020200	0.448300	0.075000
H5111	H511	0.988700	0.440000	0.004700
H5121	H512	0.031700	0.422000	0.174300
C5131	C513	0.128100	0.078100	0.746700
C5141	C514	0.175300	0.081500	0.754900
C5151	C515	0.207000	0.061400	0.734400
C5161	C516	0.191600	0.037800	0.705700
C5171	C517	0.144400	0.034400	0.697500
C5181	C518	0.112700	0.054500	0.718000
C5191	C519	0.223000	0.019000	0.676900
C5201	C520	0.220100	0.018800	0.631500
C5211	C521	0.250000	0.999600	0.607200
C5221	C522	0.282700	0.980600	0.628300
C5231	C523	0.285600	0.980800	0.673700
C5241	C524	0.255800	0.000000	0.698000
C5251	C525	0.251200	0.998100	0.558300
C5261	C526	0.284400	0.014000	0.533500
C5271	C527	0.281800	0.013400	0.488100
C5281	C528	0.246000	0.997000	0.467500
C5291	C529	0.212800	0.981100	0.492300
C5301	C530	0.215400	0.981600	0.537700
C5311	C531	0.175900	0.961400	0.468400
C5321	C532	0.156500	0.973710	0.430300
C5331	C533	0.120600	0.957400	0.409700
C5341	C534	0.104100	0.928800	0.427100
C5351	C535	0.123600	0.916500	0.465200
C5361	C536	0.159500	0.932800	0.485800
C5371	C537	0.079800	0.335500	0.201600
C5381	C538	0.071900	0.339800	0.157100
C5391	C539	0.100700	0.324900	0.126700
C5401	C540	0.137200	0.305800	0.140800
C5411	C541	0.145100	0.301580	0.185300
C5421	C542	0.116400	0.316500	0.215700
C5431	C543	0.165900	0.289000	0.109300
C5441	C544	0.143000	0.271600	0.077100
C5451	C545	0.168300	0.254000	0.046700
C5461	C546	0.216400	0.253900	0.048400
C5471	C547	0.239400	0.271400	0.080500
C5481	C548	0.214100	0.288900	0.111000
C5491	C549	0.897200	0.227940	0.852800
C5501	C550	0.901200	0.244000	0.892400
C5511	C551	0.881700	0.274300	0.897500
C5521	C552	0.858100	0.288430	0.862800
C5531	C553	0.854100	0.272300	0.823200
C5541	C554	0.873600	0.242100	0.818100
C5551	C555	0.836700	0.321020	0.866000
C5561	C556	0.862200	0.345800	0.884700
C5571	C557	0.842400	0.376000	0.889500
C5581	C558	0.797200	0.381460	0.875500
C5591	C559	0.771800	0.356700	0.856800
C5601	C560	0.791500	0.326470	0.852000
C5611	C561	0.882000	0.400110	0.953900
C5621	C562	0.907100	0.425110	0.972400
C5631	C563	0.919400	0.451510	0.947200
C5641	C564	0.906500	0.452910	0.903400
C5651	C565	0.881400	0.427900	0.884900
C5661	C566	0.869100	0.401510	0.910100
C5671	C567	0.322800	0.963900	0.697200
C5681	C568	0.333100	0.932800	0.684100
C5691	C569	0.367000	0.915380	0.706200
C5701	C570	0.390400	0.929100	0.741200
C5711	C571	0.380100	0.960200	0.754200
C5721	C572	0.346200	0.977650	0.732200
C5731	C573	0.321000	0.026700	0.458500
C5741	C574	0.355000	0.008200	0.438500
C5751	C575	0.389600	0.022900	0.413900
C5761	C576	0.390100	0.056100	0.409400
C5771	C577	0.356000	0.074550	0.429400
C5781	C578	0.321500	0.059800	0.454000
C5791	C579	0.429300	0.206000	0.213300
C5801	C580	0.447000	0.207100	0.171100
C5811	C581	0.423500	0.224000	0.138700
C5821	C582	0.382300	0.239670	0.148500
C5831	C583	0.364600	0.238530	0.190800
C5841	C584	0.388100	0.221700	0.223200
C5851	C585	0.286500	0.270900	0.081400
C5861	C586	0.310400	0.284390	0.046400
C5871	C587	0.358500	0.282440	0.044800
C5881	C588	0.382700	0.267000	0.078000
C5891	C589	0.358800	0.253570	0.113000
C5901	C590	0.310700	0.255520	0.114700
C5911	C591	0.142800	0.234700	0.010500
C5921	C592	0.160800	0.230210	0.968800
C5931	C593	0.136300	0.212300	0.938100
C5941	C594	0.093700	0.198900	0.949300
C5951	C595	0.075700	0.203400	0.991000
C5961	C596	0.100300	0.221300	0.021600
C5971	C597	0.722400	0.360700	0.841700
C5981	C598	0.688100	0.339100	0.853800
C5991	C599	0.642800	0.343480	0.839400
C6001	C600	0.631900	0.369500	0.812900
C6011	C601	0.666200	0.391140	0.800800
C6021	C602	0.711500	0.386760	0.815200
C6031	C603	0.955900	0.534360	0.832700
C6041	C604	0.954700	0.504600	0.812270
C6051	C605	0.937600	0.478010	0.834600
C6061	C606	0.921800	0.481200	0.877300
C6071	C607	0.923000	0.511000	0.897700
C6081	C608	0.940000	0.537550	0.875500
C6091	C609	0.383600	0.301700	0.016100
C6101	C610	0.379900	0.293500	0.972200
C6111	C611	0.408900	0.307900	0.941500
C6121	C612	0.441600	0.330300	0.954800
C6131	C613	0.445300	0.338500	0.998800
C6141	C614	0.416300	0.324200	0.029400
C6151	C615	0.421700	0.909700	0.766400
C6161	C616	0.094300	0.096500	0.770500
C6171	C617	0.447500	0.181400	0.241900
C6181	C618	0.053200	0.351200	0.234300
C6191	C619	0.431500	0.071300	0.392300
C6201	C620	0.584500	0.374800	0.800300
C6211	C621	0.972500	0.561500	0.808600
C6221	C622	0.920700	0.198000	0.847300
C6231	C623	0.065100	0.911300	0.407000
C6241	C624	0.064000	0.184900	0.916700
C6251	C625	0.463700	0.347100	0.920500
C6261	C626	0.959100	0.428900	0.102900
C6271	C627	0.924200	0.424300	0.015800
C6281	C628	0.894800	0.413800	0.049800
C6291	C629	0.914500	0.416400	0.092300
C6301	C630	0.990900	0.439700	0.070100
C6311	C631	0.969500	0.435100	0.028200
C6321	C632	0.973700	0.425800	0.147800
O6331	O633	0.008400	0.134770	0.834600
O6341	O634	0.321200	0.028000	0.553200
O6351	O635	0.434000	0.182800	0.286600
O6361	O636	0.189100	0.035700	0.608700
O6371	O637	0.495200	0.175100	0.242100
O6381	O638	0.233600	0.307900	0.141600
O6391	O639	0.086200	0.176600	0.877000
O6401	O640	0.288300	0.298700	0.011300
O6411	O641	0.024900	0.166640	0.928900
O6421	O642	0.772800	0.409000	0.882800
O6431	O643	0.018700	0.374800	0.222000
O6441	O644	0.870500	0.429800	0.840600
O6451	O645	0.052500	0.342600	0.279000
O6461	O646	0.975500	0.591820	0.829600
O6471	O647	0.990500	0.558740	0.765700
O6481	O648	0.940400	0.185300	0.885600
O6491	O649	0.927100	0.186210	0.804200
O6501	O650	0.548800	0.356730	0.819900
O6511	O651	0.573500	0.397760	0.769300
O6521	O652	0.455200	0.057900	0.356400
O6531	O653	0.426600	0.104500	0.386100
O6541	O654	0.048100	0.923900	0.366700
O6551	O655	0.057600	0.879900	0.423100
O6561	O656	0.051300	0.082500	0.780400
O6571	O657	0.113500	0.120200	0.798400
O6581	O658	0.459500	0.927140	0.784000
O6591	O659	0.429000	0.877480	0.755300
O6601	O660	0.460600	0.345600	0.876000
O6611	O661	0.498600	0.370900	0.933400
O6621	O662	0.945700	0.416000	0.181200
O6631	O663	0.020700	0.434300	0.156100
H6641	H664	0.353770	0.017900	0.539590
H6651	H665	0.180280	0.022630	0.578160
H6661	H666	0.271920	0.305690	0.139870
H6671	H667	0.299340	0.286830	0.980500
H6681	H668	0.736810	0.406040	0.870560
H6691	H669	0.901880	0.424460	0.820850
H6701	H670	0.899300	0.341330	0.896070
H6711	H671	0.628020	0.378450	0.474630
H6721	H672	0.307160	0.964840	0.608370
H6731	H673	0.188200	0.968490	0.558040
H6741	H674	0.237110	0.239460	0.023460
H6751	H675	0.291090	0.244510	0.143400
Zn6761	Zn676	0.930660	0.854020	0.331020
Zn6771	Zn677	0.018410	0.852050	0.389890
Zn6781	Zn678	0.984460	0.636210	0.822860
Zn6791	Zn679	0.996200	0.912410	0.331330
Zn6801	Zn680	0.021470	0.592470	0.734390
Zn6811	Zn681	0.030950	0.848150	0.286410
H6821	H682	0.814400	0.902700	0.274100
H6831	H683	0.761400	0.936300	0.239900
H6841	H684	0.865900	0.981300	0.178300
H6851	H685	0.918900	0.947800	0.212500
H6861	H686	0.742300	0.999900	0.228400
H6871	H687	0.755700	0.003400	0.937100
H6881	H688	0.832500	0.007100	0.918600
H6891	H689	0.892500	0.034400	0.884200
H6901	H690	0.887400	0.102600	0.976900
H6911	H691	0.827500	0.075400	0.011300
H6921	H692	0.952500	0.647500	0.647600
H6931	H693	0.904600	0.672300	0.596900
H6941	H694	0.830400	0.711200	0.694800
H6951	H695	0.878400	0.686400	0.745500
H6961	H696	0.889200	0.728300	0.576000
H6971	H697	0.083000	0.765500	0.415600
H6981	H698	0.115700	0.715000	0.424000
H6991	H699	0.161700	0.718200	0.300000
H7001	H700	0.129000	0.768700	0.291600
H7011	H701	0.225500	0.690100	0.339500
H7021	H702	0.063800	0.531800	0.459600
H7031	H703	0.682600	0.076400	0.160700
H7041	H704	0.626100	0.105500	0.197500
H7051	H705	0.604200	0.030600	0.277700
H7061	H706	0.660700	0.001500	0.240900
H7071	H707	0.645300	0.014000	0.941500
H7081	H708	0.587600	0.989400	0.900500
H7091	H709	0.643700	0.903200	0.926400
H7101	H710	0.701300	0.927800	0.967400
H7111	H711	0.525400	0.803400	0.664500
H7121	H712	0.564600	0.775300	0.610400
H7131	H713	0.663000	0.751000	0.697400
H7141	H714	0.623800	0.779100	0.751500
H7151	H715	0.585100	0.734300	0.576900
H7161	H716	0.810800	0.760800	0.461300
H7171	H717	0.851700	0.790700	0.410200
H7181	H718	0.952700	0.805600	0.498500
H7191	H719	0.911800	0.775700	0.549600
H7201	H720	0.304600	0.678300	0.371500
H7211	H721	0.380200	0.671000	0.347500
H7221	H722	0.341100	0.591500	0.283000
H7231	H723	0.265500	0.598800	0.307100
H7241	H724	0.034700	0.497500	0.283700
H7251	H725	0.063100	0.541900	0.320900
H7261	H726	0.087600	0.486900	0.426300
H7271	H727	0.059200	0.442500	0.389200
H7281	H728	0.642000	0.721500	0.463300
H7291	H729	0.593600	0.697600	0.412100
H7301	H730	0.532900	0.646400	0.507700
H7311	H731	0.581300	0.670300	0.558800
H7321	H732	0.490500	0.620600	0.411500
H7331	H733	0.134900	0.594100	0.544800
H7341	H734	0.103600	0.590800	0.615600
H7351	H735	0.979800	0.551700	0.575000
H7361	H736	0.011300	0.560000	0.504700
H7371	H737	0.968300	0.578000	0.674300
C7381	C738	0.871900	0.921900	0.246700
C7391	C739	0.824700	0.918500	0.254900
C7401	C740	0.793000	0.938600	0.234400
C7411	C741	0.808400	0.962200	0.205700
C7421	C742	0.855600	0.965600	0.197500
C7431	C743	0.887300	0.945500	0.218000
C7441	C744	0.777000	0.981000	0.176900
C7451	C745	0.779900	0.981200	0.131500
C7461	C746	0.750000	0.000400	0.107200
C7471	C747	0.717300	0.019400	0.128300
C7481	C748	0.714400	0.019200	0.173700
C7491	C749	0.744200	0.000000	0.198000
C7501	C750	0.748800	0.001900	0.058300
C7511	C751	0.715600	0.986000	0.033500
C7521	C752	0.718200	0.986600	0.988100
C7531	C753	0.754000	0.003000	0.967500
C7541	C754	0.787200	0.018900	0.992300
C7551	C755	0.784600	0.018400	0.037700
C7561	C756	0.824100	0.038600	0.968400
C7571	C757	0.843500	0.026290	0.930300
C7581	C758	0.879400	0.042600	0.909700
C7591	C759	0.895900	0.071200	0.927100
C7601	C760	0.876400	0.083500	0.965200
C7611	C761	0.840500	0.067200	0.985800
C7621	C762	0.920200	0.664500	0.701600
C7631	C763	0.928100	0.660200	0.657100
C7641	C764	0.899300	0.675100	0.626700
C7651	C765	0.862800	0.694200	0.640800
C7661	C766	0.854900	0.698420	0.685300
C7671	C767	0.883600	0.683500	0.715700
C7681	C768	0.834100	0.711000	0.609300
C7691	C769	0.857000	0.728400	0.577100
C7701	C770	0.831700	0.746000	0.546700
C7711	C771	0.783600	0.746100	0.548400
C7721	C772	0.760600	0.728600	0.580500
C7731	C773	0.785900	0.711100	0.611000
C7741	C774	0.102800	0.772060	0.352800
C7751	C775	0.098800	0.756000	0.392400
C7761	C776	0.118300	0.725700	0.397500
C7771	C777	0.141900	0.711570	0.362800
C7781	C778	0.145900	0.727700	0.323200
C7791	C779	0.126400	0.757900	0.318100
C7801	C780	0.163300	0.678980	0.366000
C7811	C781	0.137800	0.654200	0.384700
C7821	C782	0.157600	0.624000	0.389500
C7831	C783	0.202800	0.618540	0.375500
C7841	C784	0.228200	0.643300	0.356800
C7851	C785	0.208500	0.673530	0.352000
C7861	C786	0.118000	0.599890	0.453900
C7871	C787	0.092900	0.574890	0.472400
C7881	C788	0.080600	0.548490	0.447200
C7891	C789	0.093500	0.547090	0.403400
C7901	C790	0.118600	0.572100	0.384900
C7911	C791	0.130900	0.598490	0.410100
C7921	C792	0.677200	0.036100	0.197200
C7931	C793	0.666900	0.067200	0.184100
C7941	C794	0.633000	0.084620	0.206200
C7951	C795	0.609600	0.070900	0.241200
C7961	C796	0.619900	0.039800	0.254200
C7971	C797	0.653800	0.022350	0.232200
C7981	C798	0.679000	0.973300	0.958500
C7991	C799	0.645000	0.991800	0.938500
C8001	C800	0.610400	0.977100	0.913900
C8011	C801	0.609900	0.943900	0.909400
C8021	C802	0.644000	0.925450	0.929400
C8031	C803	0.678500	0.940200	0.954000
C8041	C804	0.570700	0.794000	0.713300
C8051	C805	0.553000	0.792900	0.671100
C8061	C806	0.576500	0.776000	0.638700
C8071	C807	0.617700	0.760330	0.648500
C8081	C808	0.635400	0.761470	0.690800
C8091	C809	0.611900	0.778300	0.723200
C8101	C810	0.713500	0.729100	0.581400
C8111	C811	0.689600	0.715610	0.546400
C8121	C812	0.641500	0.717560	0.544800
C8131	C813	0.617300	0.733000	0.578000
C8141	C814	0.641200	0.746430	0.613000
C8151	C815	0.689300	0.744480	0.614700
C8161	C816	0.857200	0.765300	0.510500
C8171	C817	0.839200	0.769790	0.468800
C8181	C818	0.863700	0.787700	0.438100
C8191	C819	0.906300	0.801100	0.449300
C8201	C820	0.924300	0.796600	0.491000
C8211	C821	0.899700	0.778700	0.521600
C8221	C822	0.277600	0.639300	0.341700
C8231	C823	0.311900	0.660900	0.353800
C8241	C824	0.357200	0.656520	0.339400
C8251	C825	0.368100	0.630500	0.312900
C8261	C826	0.333800	0.608860	0.300800
C8271	C827	0.288500	0.613240	0.315200
C8281	C828	0.044100	0.465640	0.332700
C8291	C829	0.045300	0.495400	0.312270
C8301	C830	0.062400	0.521990	0.334600
C8311	C831	0.078200	0.518800	0.377300
C8321	C832	0.077000	0.489000	0.397700
C8331	C833	0.060000	0.462450	0.375500
C8341	C834	0.616400	0.698300	0.516100
C8351	C835	0.620100	0.706500	0.472200
C8361	C836	0.591100	0.692100	0.441500
C8371	C837	0.558400	0.669700	0.454800
C8381	C838	0.554700	0.661500	0.498800
C8391	C839	0.583700	0.675800	0.529400
C8401	C840	0.578300	0.090300	0.266400
C8411	C841	0.905700	0.903500	0.270500
C8421	C842	0.552500	0.818600	0.741900
C8431	C843	0.946800	0.648800	0.734300
C8441	C844	0.568500	0.928700	0.892300
C8451	C845	0.415500	0.625200	0.300300
C8461	C846	0.027500	0.438500	0.308600
C8471	C847	0.079300	0.802000	0.347300
C8481	C848	0.934900	0.088700	0.907000
C8491	C849	0.936000	0.815100	0.416700
C8501	C850	0.536300	0.652900	0.420500
C8511	C851	0.040900	0.571100	0.602900
C8521	C852	0.075800	0.575700	0.515800
C8531	C853	0.105200	0.586200	0.549800
C8541	C854	0.085500	0.583600	0.592300
C8551	C855	0.009100	0.560300	0.570100
C8561	C856	0.030500	0.564900	0.528200
C8571	C857	0.026300	0.574200	0.647800
O8581	O858	0.991600	0.865230	0.334600
O8591	O859	0.678800	0.972000	0.053200
O8601	O860	0.566000	0.817200	0.786600
O8611	O861	0.810900	0.964300	0.108700
O8621	O862	0.504800	0.824900	0.742100
O8631	O863	0.766400	0.692100	0.641600
O8641	O864	0.913800	0.823400	0.377000
O8651	O865	0.711700	0.701300	0.511300
O8661	O866	0.975100	0.833360	0.428900
O8671	O867	0.227200	0.591000	0.382800
O8681	O868	0.981300	0.625200	0.722000
O8691	O869	0.129500	0.570200	0.340600
O8701	O870	0.947500	0.657400	0.779000
O8711	O871	0.024500	0.408180	0.329600
O8721	O872	0.009500	0.441260	0.265700
O8731	O873	0.059600	0.814700	0.385600
O8741	O874	0.072900	0.813790	0.304200
O8751	O875	0.451200	0.643270	0.319900
O8761	O876	0.426500	0.602240	0.269300
O8771	O877	0.544800	0.942100	0.856400
O8781	O878	0.573400	0.895500	0.886100
O8791	O879	0.951900	0.076100	0.866700
O8801	O880	0.942400	0.120100	0.923100
O8811	O881	0.948700	0.917500	0.280400
O8821	O882	0.886500	0.879800	0.298400
O8831	O883	0.540500	0.072860	0.284000
O8841	O884	0.571000	0.122520	0.255300
O8851	O885	0.539400	0.654400	0.376000
O8861	O886	0.501400	0.629100	0.433400
O8871	O887	0.054300	0.584000	0.681200
O8881	O888	0.979300	0.565700	0.656100
H8891	H889	0.646230	0.982100	0.039590
H8901	H890	0.819720	0.977370	0.078160
H8911	H891	0.728080	0.694310	0.639870
H8921	H892	0.700660	0.713170	0.480500
H8931	H893	0.263190	0.593960	0.370560
H8941	H894	0.098120	0.575540	0.320850
H8951	H895	0.100700	0.658670	0.396070
H8961	H896	0.371980	0.621550	0.974630
H8971	H897	0.692840	0.035160	0.108370
H8981	H898	0.811800	0.031510	0.058040
H8991	H899	0.762890	0.760540	0.523460
H9001	H900	0.708910	0.755490	0.643400
