data_XOVYUD_freeONLY_PM
_symmetry_space_group_name_H-M	'P1'
_cell_length_a	7.036000
_cell_length_b	15.892100
_cell_length_c	26.561000
_cell_angle_alpha	90.000000
_cell_angle_beta	90.000000
_cell_angle_gamma	90.000000
_symmetry_Int_Tables_number 1

loop_
_symmetry_equiv_pos_as_xyz
'x,y,z'

loop_
_atom_site_label
_atom_site_type_symbol
_atom_site_fract_x
_atom_site_fract_y
_atom_site_fract_z
Cd11	Cd1	0.593020	0.519810	0.985680
Cd21	Cd2	0.346960	0.753980	0.997700
Cd31	Cd3	0.276600	0.508510	0.886590
Cd41	Cd4	0.906980	0.480190	0.485680
Cd51	Cd5	0.153040	0.246020	0.497700
Cd61	Cd6	0.223400	0.491490	0.386590
Cd71	Cd7	0.406980	0.019810	0.514320
Cd81	Cd8	0.653040	0.253980	0.502300
Cd91	Cd9	0.723400	0.008510	0.613410
Cd101	Cd10	0.093020	0.980190	0.014320
Cd111	Cd11	0.846960	0.746020	0.002300
Cd121	Cd12	0.776600	0.991490	0.113410
P11	P1	0.093600	0.559560	0.999990
P21	P2	0.596600	0.671720	0.900950
P31	P3	0.406400	0.440440	0.499990
P41	P4	0.903400	0.328280	0.400950
P51	P5	0.906400	0.059560	0.500010
P61	P6	0.403400	0.171720	0.599050
P71	P7	0.593600	0.940440	0.000010
P81	P8	0.096600	0.828280	0.099050
H11	H1	0.001200	0.633900	0.873700
H21	H2	0.170100	0.671300	0.858600
H31	H3	0.976000	0.405100	0.880600
H41	H4	0.925800	0.474900	0.852100
H51	H5	0.906600	0.423400	0.060500
H61	H6	0.502300	0.792200	0.820800
H71	H7	0.025300	0.545000	0.084900
H81	H8	0.232200	0.513600	0.074300
H91	H9	0.080500	0.389300	0.991700
H101	H10	0.250400	0.364700	0.027100
H111	H11	0.897300	0.281800	0.025100
H121	H12	0.086400	0.244500	0.003200
H131	H13	0.218500	0.243500	0.084400
H141	H14	0.861200	0.298100	0.118500
H151	H15	0.032500	0.275900	0.153900
H161	H16	0.208000	0.387200	0.122400
H171	H17	0.011700	0.422000	0.141100
H181	H18	0.532200	0.649700	0.816200
H191	H19	0.751400	0.659500	0.824000
H201	H20	0.760400	0.748300	0.747100
H211	H21	0.540700	0.733000	0.742400
H221	H22	0.485800	0.878900	0.742900
H231	H23	0.624600	0.856200	0.698600
H241	H24	0.885800	0.896900	0.746600
H251	H25	0.852200	0.951500	0.826300
H261	H26	0.630900	0.941400	0.823600
H271	H27	0.748100	0.832500	0.872000
H281	H28	0.892800	0.806900	0.829700
H291	H29	0.498800	0.366100	0.373700
H301	H30	0.329900	0.328700	0.358600
H311	H31	0.524000	0.594900	0.380600
H321	H32	0.574200	0.525100	0.352100
H331	H33	0.593400	0.576600	0.560500
H341	H34	0.997700	0.207800	0.320800
H351	H35	0.474700	0.455000	0.584900
H361	H36	0.267800	0.486400	0.574300
H371	H37	0.419500	0.610700	0.491700
H381	H38	0.249600	0.635300	0.527100
H391	H39	0.602700	0.718200	0.525100
H401	H40	0.413600	0.755500	0.503200
H411	H41	0.281500	0.756500	0.584400
H421	H42	0.638800	0.701900	0.618500
H431	H43	0.467500	0.724100	0.653900
H441	H44	0.292000	0.612800	0.622400
H451	H45	0.488300	0.578000	0.641100
H461	H46	0.967800	0.350300	0.316200
H471	H47	0.748600	0.340500	0.324000
H481	H48	0.739600	0.251700	0.247100
H491	H49	0.959300	0.267000	0.242400
H501	H50	0.014200	0.121100	0.242900
H511	H51	0.875400	0.143800	0.198600
H521	H52	0.614200	0.103100	0.246600
H531	H53	0.647800	0.048500	0.326300
H541	H54	0.869100	0.058600	0.323600
H551	H55	0.751900	0.167500	0.372000
H561	H56	0.607200	0.193100	0.329700
H571	H57	0.998800	0.133900	0.626300
H581	H58	0.829900	0.171300	0.641400
H591	H59	0.024000	0.905100	0.619400
H601	H60	0.074200	0.974900	0.647900
H611	H61	0.093400	0.923400	0.439500
H621	H62	0.497700	0.292200	0.679200
H631	H63	0.974700	0.045000	0.415100
H641	H64	0.767800	0.013600	0.425700
H651	H65	0.919500	0.889300	0.508300
H661	H66	0.749600	0.864700	0.472900
H671	H67	0.102700	0.781800	0.474900
H681	H68	0.913600	0.744500	0.496800
H691	H69	0.781500	0.743500	0.415600
H701	H70	0.138800	0.798100	0.381500
H711	H71	0.967500	0.775900	0.346100
H721	H72	0.792000	0.887200	0.377600
H731	H73	0.988300	0.922000	0.358900
H741	H74	0.467800	0.149700	0.683800
H751	H75	0.248600	0.159500	0.676000
H761	H76	0.239600	0.248300	0.752900
H771	H77	0.459300	0.233000	0.757600
H781	H78	0.514200	0.378900	0.757100
H791	H79	0.375400	0.356200	0.801400
H801	H80	0.114200	0.396900	0.753400
H811	H81	0.147800	0.451500	0.673700
H821	H82	0.369100	0.441400	0.676400
H831	H83	0.251900	0.332500	0.628000
H841	H84	0.107200	0.306900	0.670300
H851	H85	0.501200	0.866100	0.126300
H861	H86	0.670100	0.828700	0.141400
H871	H87	0.476000	0.094900	0.119400
H881	H88	0.425800	0.025100	0.147900
H891	H89	0.406600	0.076600	0.939500
H901	H90	0.002300	0.707800	0.179200
H911	H91	0.525300	0.955000	0.915100
H921	H92	0.732200	0.986400	0.925700
H931	H93	0.580500	0.110700	0.008300
H941	H94	0.750400	0.135300	0.972900
H951	H95	0.397300	0.218200	0.974900
H961	H96	0.586400	0.255500	0.996800
H971	H97	0.718500	0.256500	0.915600
H981	H98	0.361200	0.201900	0.881500
H991	H99	0.532500	0.224100	0.846100
H1001	H100	0.708000	0.112800	0.877600
H1011	H101	0.511700	0.078000	0.858900
H1021	H102	0.032200	0.850300	0.183800
H1031	H103	0.251400	0.840500	0.176000
H1041	H104	0.260400	0.751700	0.252900
H1051	H105	0.040700	0.767000	0.257600
H1061	H106	0.985800	0.621100	0.257100
H1071	H107	0.124600	0.643800	0.301400
H1081	H108	0.385800	0.603100	0.253400
H1091	H109	0.352200	0.548500	0.173700
H1101	H110	0.130900	0.558600	0.176400
H1111	H111	0.248100	0.667500	0.128000
H1121	H112	0.392800	0.693100	0.170300
C11	C1	0.102100	0.511500	0.062200
C21	C2	0.113000	0.366700	0.024500
C31	C3	0.034000	0.279900	0.029500
C41	C4	0.080000	0.241400	0.080700
C51	C5	0.998700	0.297800	0.121000
C61	C6	0.072300	0.386700	0.116000
C71	C7	0.023600	0.146700	0.081200
C81	C8	0.628800	0.683000	0.833000
C91	C9	0.637000	0.770000	0.756500
C101	C10	0.612000	0.858100	0.734900
C111	C11	0.760000	0.917200	0.756700
C121	C12	0.750500	0.916600	0.813100
C131	C13	0.766700	0.829300	0.835900
C141	C14	0.734200	0.006800	0.735700
C151	C15	0.397900	0.488500	0.562200
C161	C16	0.387000	0.633300	0.524500
C171	C17	0.466000	0.720100	0.529500
C181	C18	0.420000	0.758600	0.580700
C191	C19	0.501300	0.702200	0.621000
C201	C20	0.427700	0.613300	0.616000
C211	C21	0.476400	0.853300	0.581200
C221	C22	0.871200	0.317000	0.333000
C231	C23	0.863000	0.230000	0.256500
C241	C24	0.888000	0.141900	0.234900
C251	C25	0.740000	0.082800	0.256700
C261	C26	0.749500	0.083400	0.313100
C271	C27	0.733300	0.170700	0.335900
C281	C28	0.765800	0.993200	0.235700
C291	C29	0.897900	0.011500	0.437800
C301	C30	0.887000	0.866700	0.475500
C311	C31	0.966000	0.779900	0.470500
C321	C32	0.920000	0.741400	0.419300
C331	C33	0.001300	0.797800	0.379000
C341	C34	0.927700	0.886700	0.384000
C351	C35	0.976400	0.646700	0.418800
C361	C36	0.371200	0.183000	0.667000
C371	C37	0.363000	0.270000	0.743500
C381	C38	0.388000	0.358100	0.765100
C391	C39	0.240000	0.417200	0.743300
C401	C40	0.249500	0.416600	0.686900
C411	C41	0.233300	0.329300	0.664100
C421	C42	0.265800	0.506800	0.764300
C431	C43	0.602100	0.988500	0.937800
C441	C44	0.613000	0.133300	0.975500
C451	C45	0.534000	0.220100	0.970500
C461	C46	0.580000	0.258600	0.919300
C471	C47	0.498700	0.202200	0.879000
C481	C48	0.572300	0.113300	0.884000
C491	C49	0.523600	0.353300	0.918800
C501	C50	0.128800	0.817000	0.167000
C511	C51	0.137000	0.730000	0.243500
C521	C52	0.112000	0.641900	0.265100
C531	C53	0.260000	0.582800	0.243300
C541	C54	0.250500	0.583400	0.186900
C551	C55	0.266700	0.670700	0.164100
C561	C56	0.234200	0.493200	0.264300
N11	N1	0.035000	0.422300	0.064700
N21	N2	0.619000	0.771200	0.813100
N31	N3	0.465000	0.577700	0.564700
N41	N4	0.881000	0.228800	0.313100
N51	N5	0.965000	0.922300	0.435300
N61	N6	0.381000	0.271200	0.686900
N71	N7	0.535000	0.077700	0.935300
N81	N8	0.119000	0.728800	0.186900
Cl11	Cl1	0.593300	0.437800	0.069150
Cl21	Cl2	0.582000	0.652310	0.041910
Cl31	Cl3	0.906700	0.562200	0.569150
Cl41	Cl4	0.918000	0.347690	0.541910
Cl51	Cl5	0.406700	0.937800	0.430850
Cl61	Cl6	0.418000	0.152310	0.458090
Cl71	Cl7	0.093300	0.062200	0.930850
Cl81	Cl8	0.082000	0.847690	0.958090
O11	O1	0.911100	0.529600	0.977000
O21	O2	0.104400	0.654900	0.007100
O31	O3	0.268400	0.526000	0.971700
O41	O4	0.878600	0.127200	0.105400
O51	O5	0.121000	0.099800	0.056000
O61	O6	0.559200	0.577600	0.906400
O71	O7	0.781000	0.698000	0.925600
O81	O8	0.425300	0.724500	0.917300
O91	O9	0.656500	0.016600	0.695400
O101	O10	0.817200	0.063700	0.760400
O111	O11	0.117300	0.641600	0.881300
O121	O12	0.973500	0.458500	0.879800
O131	O13	0.588900	0.470400	0.477000
O141	O14	0.395600	0.345100	0.507100
O151	O15	0.231600	0.474000	0.471700
O161	O16	0.621400	0.872800	0.605400
O171	O17	0.379000	0.900200	0.556000
O181	O18	0.940800	0.422400	0.406400
O191	O19	0.719000	0.302000	0.425600
O201	O20	0.074700	0.275500	0.417300
O211	O21	0.843500	0.983400	0.195400
O221	O22	0.682800	0.936300	0.260400
O231	O23	0.382700	0.358400	0.381300
O241	O24	0.526500	0.541500	0.379800
O251	O25	0.088900	0.029600	0.523000
O261	O26	0.895600	0.154900	0.492900
O271	O27	0.731600	0.026000	0.528300
O281	O28	0.121400	0.627200	0.394600
O291	O29	0.879000	0.599800	0.444000
O301	O30	0.440800	0.077600	0.593600
O311	O31	0.219000	0.198000	0.574400
O321	O32	0.574700	0.224500	0.582700
O331	O33	0.343500	0.516600	0.804600
O341	O34	0.182800	0.563700	0.739600
O351	O35	0.882700	0.141600	0.618700
O361	O36	0.026500	0.958500	0.620200
O371	O37	0.411100	0.970400	0.023000
O381	O38	0.604400	0.845100	0.992900
O391	O39	0.768400	0.974000	0.028300
O401	O40	0.378600	0.372800	0.894600
O411	O41	0.621000	0.400200	0.944000
O421	O42	0.059200	0.922400	0.093600
O431	O43	0.281000	0.802000	0.074400
O441	O44	0.925300	0.775500	0.082700
O451	O45	0.156500	0.483400	0.304600
O461	O46	0.317200	0.436300	0.239600
O471	O47	0.617300	0.858400	0.118700
O481	O48	0.473500	0.041500	0.120200
