data_XUGSEY_freeONLY_PM
_symmetry_space_group_name_H-M	'P1'
_cell_length_a	11.569000
_cell_length_b	15.447000
_cell_length_c	21.190000
_cell_angle_alpha	76.794000
_cell_angle_beta	79.025000
_cell_angle_gamma	89.615000
_symmetry_Int_Tables_number 1

loop_
_symmetry_equiv_pos_as_xyz
'x,y,z'

loop_
_atom_site_label
_atom_site_type_symbol
_atom_site_fract_x
_atom_site_fract_y
_atom_site_fract_z
Zn11	Zn1	0.964850	0.479130	0.572660
Zn21	Zn2	0.035150	0.520870	0.427340
Zn31	Zn3	0.500000	0.500000	0.000000
H11	H1	0.311200	0.348300	0.437700
H21	H2	0.434800	0.229400	0.430600
H31	H3	0.265100	0.097900	0.610900
H41	H4	0.151700	0.217800	0.621300
H51	H5	0.296700	0.986900	0.534000
H61	H6	0.555100	0.176000	0.582600
H71	H7	0.676400	0.295000	0.584400
H81	H8	0.832400	0.305400	0.395500
H91	H9	0.718800	0.180600	0.396300
H101	H10	0.722900	0.460700	0.645400
H111	H11	0.614400	0.460400	0.744800
H121	H12	0.910300	0.523000	0.800500
H131	H13	0.005900	0.524100	0.694800
H141	H14	0.697600	0.316900	0.838400
H151	H15	0.590900	0.207100	0.931500
H161	H16	0.247600	0.232200	0.137400
H171	H17	0.258700	0.331500	0.221300
H181	H18	0.688800	0.651700	0.562300
H191	H19	0.565200	0.770600	0.569400
H201	H20	0.734900	0.902100	0.389100
H211	H21	0.848300	0.782200	0.378700
H221	H22	0.703300	0.013100	0.466000
H231	H23	0.444900	0.824000	0.417400
H241	H24	0.323600	0.705000	0.415600
H251	H25	0.167600	0.694600	0.604500
H261	H26	0.281200	0.819400	0.603700
H271	H27	0.277100	0.539300	0.354600
H281	H28	0.385600	0.539600	0.255200
H291	H29	0.089700	0.477000	0.199500
H301	H30	0.994100	0.475900	0.305200
H311	H31	0.302400	0.683100	0.161600
H321	H32	0.409100	0.792900	0.068500
H331	H33	0.752400	0.767800	0.862600
H341	H34	0.741300	0.668500	0.778700
C11	C1	0.134500	0.369400	0.530600
C21	C2	0.218200	0.294800	0.528900
C31	C3	0.302700	0.297400	0.473500
C41	C4	0.376000	0.226600	0.469000
C51	C5	0.363100	0.151800	0.520600
C61	C6	0.276400	0.149800	0.576000
C71	C7	0.207300	0.219600	0.581700
C81	C8	0.435300	0.074000	0.512800
C91	C9	0.379800	0.992600	0.519700
C101	C10	0.560000	0.081600	0.493300
C111	C11	0.627000	0.164300	0.490300
C121	C12	0.613900	0.200500	0.544900
C131	C13	0.684900	0.272300	0.545800
C141	C14	0.767700	0.310500	0.490600
C151	C15	0.778200	0.277600	0.434400
C161	C16	0.709300	0.204000	0.434700
C171	C17	0.848500	0.384600	0.493000
C181	C18	0.762000	0.471000	0.678700
C191	C19	0.697000	0.472200	0.736900
C201	C20	0.747800	0.490100	0.785800
C211	C21	0.868400	0.509000	0.769500
C221	C22	0.924700	0.506600	0.706900
C231	C23	0.676400	0.492000	0.853500
C241	C24	0.630700	0.416100	0.892000
C251	C25	0.651700	0.329500	0.877200
C261	C26	0.594000	0.272600	0.928500
C271	C27	0.485000	0.324500	0.962300
C281	C28	0.403000	0.287400	0.016600
C291	C29	0.330400	0.202800	0.015000
C301	C30	0.228700	0.190200	0.991800
C311	C31	0.187300	0.104600	0.995400
C321	C32	0.247700	0.031500	0.022200
C331	C33	0.349400	0.044100	0.045500
C341	C34	0.390800	0.129700	0.041800
C351	C35	0.401000	0.322300	0.080300
C361	C36	0.296000	0.283500	0.133300
C371	C37	0.287000	0.343000	0.175000
C381	C38	0.666100	0.573400	0.870100
C391	C39	0.865500	0.630600	0.469400
C401	C40	0.781800	0.705200	0.471100
C411	C41	0.697300	0.702600	0.526500
C421	C42	0.624000	0.773400	0.531000
C431	C43	0.636900	0.848200	0.479400
C441	C44	0.723600	0.850200	0.424000
C451	C45	0.792700	0.780400	0.418300
C461	C46	0.564700	0.926000	0.487200
C471	C47	0.620200	0.007400	0.480300
C481	C48	0.440000	0.918400	0.506700
C491	C49	0.373000	0.835700	0.509700
C501	C50	0.386100	0.799500	0.455100
C511	C51	0.315100	0.727700	0.454200
C521	C52	0.232300	0.689500	0.509400
C531	C53	0.221800	0.722400	0.565600
C541	C54	0.290700	0.796000	0.565300
C551	C55	0.151500	0.615400	0.507000
C561	C56	0.238000	0.529000	0.321300
C571	C57	0.303000	0.527800	0.263100
C581	C58	0.252200	0.509900	0.214200
C591	C59	0.131600	0.491000	0.230500
C601	C60	0.075300	0.493400	0.293100
C611	C61	0.323600	0.508000	0.146500
C621	C62	0.369300	0.583900	0.108000
C631	C63	0.348300	0.670500	0.122800
C641	C64	0.406000	0.727400	0.071500
C651	C65	0.515000	0.675500	0.037700
C661	C66	0.597000	0.712600	0.983400
C671	C67	0.669600	0.797200	0.985000
C681	C68	0.771300	0.809800	0.008200
C691	C69	0.812700	0.895400	0.004600
C701	C70	0.752300	0.968500	0.977800
C711	C71	0.650600	0.955900	0.954500
C721	C72	0.609200	0.870300	0.958200
C731	C73	0.599000	0.677700	0.919700
C741	C74	0.704000	0.716500	0.866700
C751	C75	0.713000	0.657000	0.825000
C761	C76	0.333900	0.426600	0.129900
N11	N1	0.877600	0.483200	0.663700
N21	N2	0.554800	0.404500	0.952800
N31	N3	0.403400	0.409700	0.073800
N41	N4	0.122400	0.516800	0.336300
N51	N5	0.445200	0.595500	0.047200
N61	N6	0.596600	0.590300	0.926200
O11	O1	0.078000	0.377900	0.584800
O21	O2	0.126800	0.419100	0.475300
O31	O3	0.905100	0.428400	0.438590
O41	O4	0.854300	0.396200	0.548230
O51	O5	0.647000	0.484000	0.048400
O61	O6	0.922000	0.622100	0.415200
O71	O7	0.873200	0.580900	0.524700
O81	O8	0.094900	0.571600	0.561410
O91	O9	0.145700	0.603800	0.451770
O101	O10	0.353000	0.516000	0.951600
F11	F1	0.169400	0.261900	0.965400
F21	F2	0.084300	0.091800	0.971900
F31	F3	0.206200	0.945600	0.025900
F41	F4	0.410100	0.970600	0.072400
F51	F5	0.493100	0.142300	0.065200
F61	F6	0.830600	0.738100	0.034600
F71	F7	0.915700	0.908200	0.028100
F81	F8	0.793800	0.054400	0.974100
F91	F9	0.589900	0.029400	0.927600
F101	F10	0.506900	0.857700	0.934800
