data_YAPLOS_freeONLY_PM
_symmetry_space_group_name_H-M	'P1'
_cell_length_a	30.999400
_cell_length_b	30.999400
_cell_length_c	30.999400
_cell_angle_alpha	109.471000
_cell_angle_beta	109.471000
_cell_angle_gamma	109.471000
_symmetry_Int_Tables_number 1

loop_
_symmetry_equiv_pos_as_xyz
'x,y,z'

loop_
_atom_site_label
_atom_site_type_symbol
_atom_site_fract_x
_atom_site_fract_y
_atom_site_fract_z
Mn11	Mn1	0.221400	0.572170	0.632930
Mn21	Mn2	0.439240	0.588470	0.867070
Mn31	Mn3	0.060760	0.927820	0.149230
Mn41	Mn4	0.278600	0.911540	0.350770
Mn51	Mn5	0.649230	0.060760	0.427830
Mn61	Mn6	0.850770	0.278600	0.411530
Mn71	Mn7	0.132940	0.221410	0.072180
Mn81	Mn8	0.367060	0.439230	0.088460
Mn91	Mn9	0.588470	0.367070	0.939240
Mn101	Mn10	0.572170	0.132930	0.721400
Mn111	Mn11	0.911530	0.850770	0.778590
Mn121	Mn12	0.927830	0.649230	0.560770
Mn131	Mn13	0.927830	0.278600	0.867070
Mn141	Mn14	0.911530	0.060760	0.632930
Mn151	Mn15	0.572170	0.439230	0.350770
Mn161	Mn16	0.588470	0.221410	0.149230
Mn171	Mn17	0.439240	0.850770	0.072180
Mn181	Mn18	0.221400	0.649230	0.088460
Mn191	Mn19	0.278600	0.367070	0.427830
Mn201	Mn20	0.060760	0.132930	0.411530
Mn211	Mn21	0.132940	0.911540	0.560770
Mn221	Mn22	0.367060	0.927820	0.778590
Mn231	Mn23	0.649230	0.588470	0.721400
Mn241	Mn24	0.850770	0.572170	0.939240
Mn251	Mn25	0.778600	0.427830	0.367070
Mn261	Mn26	0.560760	0.411530	0.132930
Mn271	Mn27	0.939240	0.072180	0.850770
Mn281	Mn28	0.721400	0.088460	0.649230
Mn291	Mn29	0.350770	0.939240	0.572170
Mn301	Mn30	0.149230	0.721400	0.588470
Mn311	Mn31	0.867060	0.778590	0.927820
Mn321	Mn32	0.632940	0.560770	0.911540
Mn331	Mn33	0.411530	0.632930	0.060760
Mn341	Mn34	0.427830	0.867070	0.278600
Mn351	Mn35	0.088470	0.149230	0.221410
Mn361	Mn36	0.072180	0.350780	0.439240
Mn371	Mn37	0.072170	0.721400	0.132930
Mn381	Mn38	0.088470	0.939240	0.367070
Mn391	Mn39	0.427830	0.560770	0.649230
Mn401	Mn40	0.411530	0.778590	0.850770
Mn411	Mn41	0.560760	0.149230	0.927820
Mn421	Mn42	0.778600	0.350770	0.911540
Mn431	Mn43	0.721400	0.632930	0.572170
Mn441	Mn44	0.939240	0.867070	0.588470
Mn451	Mn45	0.867060	0.088460	0.439230
Mn461	Mn46	0.632940	0.072180	0.221410
Mn471	Mn47	0.350770	0.411530	0.278600
Mn481	Mn48	0.149230	0.427830	0.060760
H11	H1	0.178900	0.450900	0.541600
H21	H2	0.039900	0.407800	0.527900
H31	H3	0.282400	0.725600	0.808400
H41	H4	0.347700	0.676000	0.730900
H51	H5	0.055000	0.487800	0.596800
H61	H6	0.174700	0.636700	0.731400
H71	H7	0.409300	0.637300	0.958400
H81	H8	0.379900	0.512000	0.972100
H91	H9	0.417200	0.474000	0.691600
H101	H10	0.445100	0.616800	0.769100
H111	H11	0.391000	0.458200	0.903200
H121	H12	0.405300	0.443300	0.768600
H131	H13	0.090700	0.049100	0.228000
H141	H14	0.120100	0.092200	0.132100
H151	H15	0.082800	0.774400	0.056800
H161	H16	0.054900	0.824000	0.171700
H171	H17	0.109000	0.012200	0.067200
H181	H18	0.094700	0.863300	0.038000
H191	H19	0.321100	0.862700	0.272000
H201	H20	0.460100	0.988000	0.367900
H211	H21	0.217600	0.026000	0.443200
H221	H22	0.152300	0.883200	0.328300
H231	H23	0.445000	0.041800	0.432800
H241	H24	0.325300	0.056700	0.462000
H251	H25	0.728000	0.090700	0.549100
H261	H26	0.632100	0.120100	0.592200
H271	H27	0.556800	0.082800	0.274400
H281	H28	0.671700	0.054900	0.324000
H291	H29	0.567200	0.109000	0.512200
H301	H30	0.538000	0.094700	0.363300
H311	H31	0.772000	0.321100	0.362700
H321	H32	0.867900	0.460100	0.488000
H331	H33	0.943200	0.217600	0.526000
H341	H34	0.828300	0.152300	0.383200
H351	H35	0.932800	0.445000	0.541800
H361	H36	0.962000	0.325300	0.556700
H371	H37	0.041600	0.178900	0.950900
H381	H38	0.027900	0.039900	0.907800
H391	H39	0.308400	0.282400	0.225600
H401	H40	0.230900	0.347700	0.176000
H411	H41	0.096800	0.055000	0.987800
H421	H42	0.231400	0.174700	0.136700
H431	H43	0.458400	0.409300	0.137300
H441	H44	0.472100	0.379900	0.012000
H451	H45	0.191600	0.417200	0.974000
H461	H46	0.269100	0.445100	0.116800
H471	H47	0.403200	0.391000	0.958200
H481	H48	0.268600	0.405300	0.943300
H491	H49	0.637300	0.458400	0.909300
H501	H50	0.512000	0.472100	0.879900
H511	H51	0.474000	0.191600	0.917200
H521	H52	0.616800	0.269100	0.945100
H531	H53	0.458200	0.403200	0.891000
H541	H54	0.443300	0.268600	0.905300
H551	H55	0.450900	0.041600	0.678900
H561	H56	0.407800	0.027900	0.539900
H571	H57	0.725600	0.308400	0.782400
H581	H58	0.676000	0.230900	0.847700
H591	H59	0.487800	0.096800	0.555000
H601	H60	0.636700	0.231400	0.674700
H611	H61	0.862700	0.772000	0.821100
H621	H62	0.988000	0.867900	0.960100
H631	H63	0.026000	0.943200	0.717600
H641	H64	0.883200	0.828300	0.652300
H651	H65	0.041800	0.932800	0.945000
H661	H66	0.056700	0.962000	0.825300
H671	H67	0.049100	0.728000	0.590700
H681	H68	0.092200	0.632100	0.620100
H691	H69	0.774400	0.556800	0.582800
H701	H70	0.824000	0.671700	0.554900
H711	H71	0.012200	0.567200	0.609000
H721	H72	0.863300	0.538000	0.594700
H731	H73	0.049100	0.321100	0.958400
H741	H74	0.092200	0.460100	0.972100
H751	H75	0.774400	0.217600	0.691600
H761	H76	0.824000	0.152300	0.769100
H771	H77	0.012200	0.445000	0.903200
H781	H78	0.863300	0.325300	0.768600
H791	H79	0.862700	0.090700	0.541600
H801	H80	0.988000	0.120100	0.527900
H811	H81	0.026000	0.082800	0.808400
H821	H82	0.883200	0.054900	0.730900
H831	H83	0.041800	0.109000	0.596800
H841	H84	0.056700	0.094700	0.731400
H851	H85	0.450900	0.409300	0.272000
H861	H86	0.407800	0.379900	0.367900
H871	H87	0.725600	0.417200	0.443200
H881	H88	0.676000	0.445100	0.328300
H891	H89	0.487800	0.391000	0.432800
H901	H90	0.636700	0.405300	0.462000
H911	H91	0.637300	0.178900	0.228000
H921	H92	0.512000	0.039900	0.132100
H931	H93	0.474000	0.282400	0.056800
H941	H94	0.616800	0.347700	0.171700
H951	H95	0.458200	0.055000	0.067200
H961	H96	0.443300	0.174700	0.038000
H971	H97	0.409300	0.772000	0.950900
H981	H98	0.379900	0.867900	0.907800
H991	H99	0.417200	0.943200	0.225600
H1001	H100	0.445100	0.828300	0.176000
H1011	H101	0.391000	0.932800	0.987800
H1021	H102	0.405300	0.962000	0.136700
H1031	H103	0.178900	0.728000	0.137300
H1041	H104	0.039900	0.632100	0.012000
H1051	H105	0.282400	0.556800	0.974000
H1061	H106	0.347700	0.671700	0.116800
H1071	H107	0.055000	0.567200	0.958200
H1081	H108	0.174700	0.538000	0.943300
H1091	H109	0.321100	0.458400	0.549100
H1101	H110	0.460100	0.472100	0.592200
H1111	H111	0.217600	0.191600	0.274400
H1121	H112	0.152300	0.269100	0.324000
H1131	H113	0.445000	0.403200	0.512200
H1141	H114	0.325300	0.268600	0.363300
H1151	H115	0.090700	0.041600	0.362700
H1161	H116	0.120100	0.027900	0.488000
H1171	H117	0.082800	0.308400	0.526000
H1181	H118	0.054900	0.230900	0.383200
H1191	H119	0.109000	0.096800	0.541800
H1201	H120	0.094700	0.231400	0.556700
H1211	H121	0.041600	0.862700	0.590700
H1221	H122	0.027900	0.988000	0.620100
H1231	H123	0.308400	0.026000	0.582800
H1241	H124	0.230900	0.883200	0.554900
H1251	H125	0.096800	0.041800	0.609000
H1261	H126	0.231400	0.056700	0.594700
H1271	H127	0.458400	0.049100	0.821100
H1281	H128	0.472100	0.092200	0.960100
H1291	H129	0.191600	0.774400	0.717600
H1301	H130	0.269100	0.824000	0.652300
H1311	H131	0.403200	0.012200	0.945000
H1321	H132	0.268600	0.863300	0.825300
H1331	H133	0.728000	0.637300	0.678900
H1341	H134	0.632100	0.512000	0.539900
H1351	H135	0.556800	0.474000	0.782400
H1361	H136	0.671700	0.616800	0.847700
H1371	H137	0.567200	0.458200	0.555000
H1381	H138	0.538000	0.443300	0.674700
H1391	H139	0.772000	0.450900	0.909300
H1401	H140	0.867900	0.407800	0.879900
H1411	H141	0.943200	0.725600	0.917200
H1421	H142	0.828300	0.676000	0.945100
H1431	H143	0.932800	0.487800	0.891000
H1441	H144	0.962000	0.636700	0.905300
H1451	H145	0.821100	0.549100	0.458400
H1461	H146	0.960100	0.592200	0.472100
H1471	H147	0.717600	0.274400	0.191600
H1481	H148	0.652300	0.324000	0.269100
H1491	H149	0.945000	0.512200	0.403200
H1501	H150	0.825300	0.363300	0.268600
H1511	H151	0.590700	0.362700	0.041600
H1521	H152	0.620100	0.488000	0.027900
H1531	H153	0.582800	0.526000	0.308400
H1541	H154	0.554900	0.383200	0.230900
H1551	H155	0.609000	0.541800	0.096800
H1561	H156	0.594700	0.556700	0.231400
H1571	H157	0.909300	0.950900	0.772000
H1581	H158	0.879900	0.907800	0.867900
H1591	H159	0.917200	0.225600	0.943200
H1601	H160	0.945100	0.176000	0.828300
H1611	H161	0.891000	0.987800	0.932800
H1621	H162	0.905300	0.136700	0.962000
H1631	H163	0.678900	0.137300	0.728000
H1641	H164	0.539900	0.012000	0.632100
H1651	H165	0.782400	0.974000	0.556800
H1661	H166	0.847700	0.116800	0.671700
H1671	H167	0.555000	0.958200	0.567200
H1681	H168	0.674700	0.943300	0.538000
H1691	H169	0.272000	0.909300	0.450900
H1701	H170	0.367900	0.879900	0.407800
H1711	H171	0.443200	0.917200	0.725600
H1721	H172	0.328300	0.945100	0.676000
H1731	H173	0.432800	0.891000	0.487800
H1741	H174	0.462000	0.905300	0.636700
H1751	H175	0.228000	0.678900	0.637300
H1761	H176	0.132100	0.539900	0.512000
H1771	H177	0.056800	0.782400	0.474000
H1781	H178	0.171700	0.847700	0.616800
H1791	H179	0.067200	0.555000	0.458200
H1801	H180	0.038000	0.674700	0.443300
H1811	H181	0.958400	0.821100	0.049100
H1821	H182	0.972100	0.960100	0.092200
H1831	H183	0.691600	0.717600	0.774400
H1841	H184	0.769100	0.652300	0.824000
H1851	H185	0.903200	0.945000	0.012200
H1861	H186	0.768600	0.825300	0.863300
H1871	H187	0.541600	0.590700	0.862700
H1881	H188	0.527900	0.620100	0.988000
H1891	H189	0.808400	0.582800	0.026000
H1901	H190	0.730900	0.554900	0.883200
H1911	H191	0.596800	0.609000	0.041800
H1921	H192	0.731400	0.594700	0.056700
H1931	H193	0.362700	0.541600	0.090700
H1941	H194	0.488000	0.527900	0.120100
H1951	H195	0.526000	0.808400	0.082800
H1961	H196	0.383200	0.730900	0.054900
H1971	H197	0.541800	0.596800	0.109000
H1981	H198	0.556700	0.731400	0.094700
H1991	H199	0.549100	0.958400	0.321100
H2001	H200	0.592200	0.972100	0.460100
H2011	H201	0.274400	0.691600	0.217600
H2021	H202	0.324000	0.769100	0.152300
H2031	H203	0.512200	0.903200	0.445000
H2041	H204	0.363300	0.768600	0.325300
H2051	H205	0.137300	0.228000	0.178900
H2061	H206	0.012000	0.132100	0.039900
H2071	H207	0.974000	0.056800	0.282400
H2081	H208	0.116800	0.171700	0.347700
H2091	H209	0.958200	0.067200	0.055000
H2101	H210	0.943300	0.038000	0.174700
H2111	H211	0.950900	0.272000	0.409300
H2121	H212	0.907800	0.367900	0.379900
H2131	H213	0.225600	0.443200	0.417200
H2141	H214	0.176000	0.328300	0.445100
H2151	H215	0.987800	0.432800	0.391000
H2161	H216	0.136700	0.462000	0.405300
H2171	H217	0.950900	0.678900	0.041600
H2181	H218	0.907800	0.539900	0.027900
H2191	H219	0.225600	0.782400	0.308400
H2201	H220	0.176000	0.847700	0.230900
H2211	H221	0.987800	0.555000	0.096800
H2221	H222	0.136700	0.674700	0.231400
H2231	H223	0.137300	0.909300	0.458400
H2241	H224	0.012000	0.879900	0.472100
H2251	H225	0.974000	0.917200	0.191600
H2261	H226	0.116800	0.945100	0.269100
H2271	H227	0.958200	0.891000	0.403200
H2281	H228	0.943300	0.905300	0.268600
H2291	H229	0.549100	0.590700	0.728000
H2301	H230	0.592200	0.620100	0.632100
H2311	H231	0.274400	0.582800	0.556800
H2321	H232	0.324000	0.554900	0.671700
H2331	H233	0.512200	0.609000	0.567200
H2341	H234	0.363300	0.594700	0.538000
H2351	H235	0.362700	0.821100	0.772000
H2361	H236	0.488000	0.960100	0.867900
H2371	H237	0.526000	0.717600	0.943200
H2381	H238	0.383200	0.652300	0.828300
H2391	H239	0.541800	0.945000	0.932800
H2401	H240	0.556700	0.825300	0.962000
H2411	H241	0.590700	0.228000	0.049100
H2421	H242	0.620100	0.132100	0.092200
H2431	H243	0.582800	0.056800	0.774400
H2441	H244	0.554900	0.171700	0.824000
H2451	H245	0.609000	0.067200	0.012200
H2461	H246	0.594700	0.038000	0.863300
H2471	H247	0.821100	0.272000	0.862700
H2481	H248	0.960100	0.367900	0.988000
H2491	H249	0.717600	0.443200	0.026000
H2501	H250	0.652300	0.328300	0.883200
H2511	H251	0.945000	0.432800	0.041800
H2521	H252	0.825300	0.462000	0.056700
H2531	H253	0.678900	0.541600	0.450900
H2541	H254	0.539900	0.527900	0.407800
H2551	H255	0.782400	0.808400	0.725600
H2561	H256	0.847700	0.730900	0.676000
H2571	H257	0.555000	0.596800	0.487800
H2581	H258	0.674700	0.731400	0.636700
H2591	H259	0.909300	0.958400	0.637300
H2601	H260	0.879900	0.972100	0.512000
H2611	H261	0.917200	0.691600	0.474000
H2621	H262	0.945100	0.769100	0.616800
H2631	H263	0.891000	0.903200	0.458200
H2641	H264	0.905300	0.768600	0.443300
H2651	H265	0.958400	0.137300	0.409300
H2661	H266	0.972100	0.012000	0.379900
H2671	H267	0.691600	0.974000	0.417200
H2681	H268	0.769100	0.116800	0.445100
H2691	H269	0.903200	0.958200	0.391000
H2701	H270	0.768600	0.943300	0.405300
H2711	H271	0.541600	0.950900	0.178900
H2721	H272	0.527900	0.907800	0.039900
H2731	H273	0.808400	0.225600	0.282400
H2741	H274	0.730900	0.176000	0.347700
H2751	H275	0.596800	0.987800	0.055000
H2761	H276	0.731400	0.136700	0.174700
H2771	H277	0.272000	0.362700	0.321100
H2781	H278	0.367900	0.488000	0.460100
H2791	H279	0.443200	0.526000	0.217600
H2801	H280	0.328300	0.383200	0.152300
H2811	H281	0.432800	0.541800	0.445000
H2821	H282	0.462000	0.556700	0.325300
H2831	H283	0.228000	0.549100	0.090700
H2841	H284	0.132100	0.592200	0.120100
H2851	H285	0.056800	0.274400	0.082800
H2861	H286	0.171700	0.324000	0.054900
H2871	H287	0.067200	0.512200	0.109000
H2881	H288	0.038000	0.363300	0.094700
C11	C1	0.151990	0.451610	0.548320
C21	C2	0.075700	0.427220	0.539800
C31	C3	0.110260	0.478080	0.582700
C41	C4	0.247970	0.659780	0.736070
C51	C5	0.287360	0.705680	0.782480
C61	C6	0.322530	0.677930	0.740120
C71	C7	0.091400	0.506300	0.611300
C81	C8	0.192600	0.627100	0.714700
C91	C9	0.403290	0.603670	0.951680
C101	C10	0.387420	0.535900	0.960200
C111	C11	0.395380	0.527560	0.917300
C121	C12	0.423710	0.511900	0.763930
C131	C13	0.423200	0.504880	0.717520
C141	C14	0.437810	0.582410	0.759880
C151	C15	0.395000	0.480100	0.888700
C161	C16	0.412400	0.477900	0.785300
C171	C17	0.096710	0.048390	0.200380
C181	C18	0.112580	0.072780	0.148480
C191	C19	0.104620	0.021920	0.132180
C201	C20	0.076290	0.840220	0.088190
C211	C21	0.076800	0.794320	0.081680
C221	C22	0.062190	0.822070	0.144600
C231	C23	0.105000	0.993700	0.085100
C241	C24	0.087600	0.872900	0.065500
C251	C25	0.348010	0.896330	0.299620
C261	C26	0.424300	0.964100	0.351520
C271	C27	0.389740	0.972440	0.367820
C281	C28	0.252030	0.988100	0.411810
C291	C29	0.212640	0.995120	0.418320
C301	C30	0.177470	0.917590	0.355400
C311	C31	0.408600	0.019900	0.414900
C321	C32	0.307400	0.022100	0.434500
C331	C33	0.700380	0.096710	0.548390
C341	C34	0.648480	0.112580	0.572780
C351	C35	0.632180	0.104620	0.521920
C361	C36	0.588190	0.076290	0.340220
C371	C37	0.581680	0.076800	0.294320
C381	C38	0.644600	0.062190	0.322070
C391	C39	0.585100	0.105000	0.493700
C401	C40	0.565500	0.087600	0.372900
C411	C41	0.799620	0.348010	0.396330
C421	C42	0.851520	0.424300	0.464100
C431	C43	0.867820	0.389740	0.472440
C441	C44	0.911810	0.252030	0.488100
C451	C45	0.918320	0.212640	0.495120
C461	C46	0.855400	0.177470	0.417590
C471	C47	0.914900	0.408600	0.519900
C481	C48	0.934500	0.307400	0.522100
C491	C49	0.048320	0.151990	0.951610
C501	C50	0.039800	0.075700	0.927220
C511	C51	0.082700	0.110260	0.978080
C521	C52	0.236070	0.247970	0.159780
C531	C53	0.282480	0.287360	0.205680
C541	C54	0.240120	0.322530	0.177930
C551	C55	0.111300	0.091400	0.006300
C561	C56	0.214700	0.192600	0.127100
C571	C57	0.451680	0.403290	0.103670
C581	C58	0.460200	0.387420	0.035900
C591	C59	0.417300	0.395380	0.027560
C601	C60	0.263930	0.423710	0.011900
C611	C61	0.217520	0.423200	0.004880
C621	C62	0.259880	0.437810	0.082410
C631	C63	0.388700	0.395000	0.980100
C641	C64	0.285300	0.412400	0.977900
C651	C65	0.603670	0.451680	0.903290
C661	C66	0.535900	0.460200	0.887420
C671	C67	0.527560	0.417300	0.895380
C681	C68	0.511900	0.263930	0.923710
C691	C69	0.504880	0.217520	0.923200
C701	C70	0.582410	0.259880	0.937810
C711	C71	0.480100	0.388700	0.895000
C721	C72	0.477900	0.285300	0.912400
C731	C73	0.451610	0.048320	0.651990
C741	C74	0.427220	0.039800	0.575700
C751	C75	0.478080	0.082700	0.610260
C761	C76	0.659780	0.236070	0.747970
C771	C77	0.705680	0.282480	0.787360
C781	C78	0.677930	0.240120	0.822530
C791	C79	0.506300	0.111300	0.591400
C801	C80	0.627100	0.214700	0.692600
C811	C81	0.896330	0.799620	0.848010
C821	C82	0.964100	0.851520	0.924300
C831	C83	0.972440	0.867820	0.889740
C841	C84	0.988100	0.911810	0.752030
C851	C85	0.995120	0.918320	0.712640
C861	C86	0.917590	0.855400	0.677470
C871	C87	0.019900	0.914900	0.908600
C881	C88	0.022100	0.934500	0.807400
C891	C89	0.048390	0.700380	0.596710
C901	C90	0.072780	0.648480	0.612580
C911	C91	0.021920	0.632180	0.604620
C921	C92	0.840220	0.588190	0.576290
C931	C93	0.794320	0.581680	0.576800
C941	C94	0.822070	0.644600	0.562190
C951	C95	0.993700	0.585100	0.605000
C961	C96	0.872900	0.565500	0.587600
C971	C97	0.048390	0.348010	0.951680
C981	C98	0.072780	0.424300	0.960200
C991	C99	0.021920	0.389740	0.917300
C1001	C100	0.840220	0.252030	0.763930
C1011	C101	0.794320	0.212640	0.717520
C1021	C102	0.822070	0.177470	0.759880
C1031	C103	0.993700	0.408600	0.888700
C1041	C104	0.872900	0.307400	0.785300
C1051	C105	0.896330	0.096710	0.548320
C1061	C106	0.964100	0.112580	0.539800
C1071	C107	0.972440	0.104620	0.582700
C1081	C108	0.988100	0.076290	0.736070
C1091	C109	0.995120	0.076800	0.782480
C1101	C110	0.917590	0.062190	0.740120
C1111	C111	0.019900	0.105000	0.611300
C1121	C112	0.022100	0.087600	0.714700
C1131	C113	0.451610	0.403290	0.299620
C1141	C114	0.427220	0.387420	0.351520
C1151	C115	0.478080	0.395380	0.367820
C1161	C116	0.659780	0.423710	0.411810
C1171	C117	0.705680	0.423200	0.418320
C1181	C118	0.677930	0.437810	0.355400
C1191	C119	0.506300	0.395000	0.414900
C1201	C120	0.627100	0.412400	0.434500
C1211	C121	0.603670	0.151990	0.200380
C1221	C122	0.535900	0.075700	0.148480
C1231	C123	0.527560	0.110260	0.132180
C1241	C124	0.511900	0.247970	0.088190
C1251	C125	0.504880	0.287360	0.081680
C1261	C126	0.582410	0.322530	0.144600
C1271	C127	0.480100	0.091400	0.085100
C1281	C128	0.477900	0.192600	0.065500
C1291	C129	0.403290	0.799620	0.951610
C1301	C130	0.387420	0.851520	0.927220
C1311	C131	0.395380	0.867820	0.978080
C1321	C132	0.423710	0.911810	0.159780
C1331	C133	0.423200	0.918320	0.205680
C1341	C134	0.437810	0.855400	0.177930
C1351	C135	0.395000	0.914900	0.006300
C1361	C136	0.412400	0.934500	0.127100
C1371	C137	0.151990	0.700380	0.103670
C1381	C138	0.075700	0.648480	0.035900
C1391	C139	0.110260	0.632180	0.027560
C1401	C140	0.247970	0.588190	0.011900
C1411	C141	0.287360	0.581680	0.004880
C1421	C142	0.322530	0.644600	0.082410
C1431	C143	0.091400	0.585100	0.980100
C1441	C144	0.192600	0.565500	0.977900
C1451	C145	0.348010	0.451680	0.548390
C1461	C146	0.424300	0.460200	0.572780
C1471	C147	0.389740	0.417300	0.521920
C1481	C148	0.252030	0.263930	0.340220
C1491	C149	0.212640	0.217520	0.294320
C1501	C150	0.177470	0.259880	0.322070
C1511	C151	0.408600	0.388700	0.493700
C1521	C152	0.307400	0.285300	0.372900
C1531	C153	0.096710	0.048320	0.396330
C1541	C154	0.112580	0.039800	0.464100
C1551	C155	0.104620	0.082700	0.472440
C1561	C156	0.076290	0.236070	0.488100
C1571	C157	0.076800	0.282480	0.495120
C1581	C158	0.062190	0.240120	0.417590
C1591	C159	0.105000	0.111300	0.519900
C1601	C160	0.087600	0.214700	0.522100
C1611	C161	0.048320	0.896330	0.596710
C1621	C162	0.039800	0.964100	0.612580
C1631	C163	0.082700	0.972440	0.604620
C1641	C164	0.236070	0.988100	0.576290
C1651	C165	0.282480	0.995120	0.576800
C1661	C166	0.240120	0.917590	0.562190
C1671	C167	0.111300	0.019900	0.605000
C1681	C168	0.214700	0.022100	0.587600
C1691	C169	0.451680	0.048390	0.848010
C1701	C170	0.460200	0.072780	0.924300
C1711	C171	0.417300	0.021920	0.889740
C1721	C172	0.263930	0.840220	0.752030
C1731	C173	0.217520	0.794320	0.712640
C1741	C174	0.259880	0.822070	0.677470
C1751	C175	0.388700	0.993700	0.908600
C1761	C176	0.285300	0.872900	0.807400
C1771	C177	0.700380	0.603670	0.651990
C1781	C178	0.648480	0.535900	0.575700
C1791	C179	0.632180	0.527560	0.610260
C1801	C180	0.588190	0.511900	0.747970
C1811	C181	0.581680	0.504880	0.787360
C1821	C182	0.644600	0.582410	0.822530
C1831	C183	0.585100	0.480100	0.591400
C1841	C184	0.565500	0.477900	0.692600
C1851	C185	0.799620	0.451610	0.903290
C1861	C186	0.851520	0.427220	0.887420
C1871	C187	0.867820	0.478080	0.895380
C1881	C188	0.911810	0.659780	0.923710
C1891	C189	0.918320	0.705680	0.923200
C1901	C190	0.855400	0.677930	0.937810
C1911	C191	0.914900	0.506300	0.895000
C1921	C192	0.934500	0.627100	0.912400
C1931	C193	0.848010	0.548390	0.451680
C1941	C194	0.924300	0.572780	0.460200
C1951	C195	0.889740	0.521920	0.417300
C1961	C196	0.752030	0.340220	0.263930
C1971	C197	0.712640	0.294320	0.217520
C1981	C198	0.677470	0.322070	0.259880
C1991	C199	0.908600	0.493700	0.388700
C2001	C200	0.807400	0.372900	0.285300
C2011	C201	0.596710	0.396330	0.048320
C2021	C202	0.612580	0.464100	0.039800
C2031	C203	0.604620	0.472440	0.082700
C2041	C204	0.576290	0.488100	0.236070
C2051	C205	0.576800	0.495120	0.282480
C2061	C206	0.562190	0.417590	0.240120
C2071	C207	0.605000	0.519900	0.111300
C2081	C208	0.587600	0.522100	0.214700
C2091	C209	0.903290	0.951610	0.799620
C2101	C210	0.887420	0.927220	0.851520
C2111	C211	0.895380	0.978080	0.867820
C2121	C212	0.923710	0.159780	0.911810
C2131	C213	0.923200	0.205680	0.918320
C2141	C214	0.937810	0.177930	0.855400
C2151	C215	0.895000	0.006300	0.914900
C2161	C216	0.912400	0.127100	0.934500
C2171	C217	0.651990	0.103670	0.700380
C2181	C218	0.575700	0.035900	0.648480
C2191	C219	0.610260	0.027560	0.632180
C2201	C220	0.747970	0.011900	0.588190
C2211	C221	0.787360	0.004880	0.581680
C2221	C222	0.822530	0.082410	0.644600
C2231	C223	0.591400	0.980100	0.585100
C2241	C224	0.692600	0.977900	0.565500
C2251	C225	0.299620	0.903290	0.451610
C2261	C226	0.351520	0.887420	0.427220
C2271	C227	0.367820	0.895380	0.478080
C2281	C228	0.411810	0.923710	0.659780
C2291	C229	0.418320	0.923200	0.705680
C2301	C230	0.355400	0.937810	0.677930
C2311	C231	0.414900	0.895000	0.506300
C2321	C232	0.434500	0.912400	0.627100
C2331	C233	0.200380	0.651990	0.603670
C2341	C234	0.148480	0.575700	0.535900
C2351	C235	0.132180	0.610260	0.527560
C2361	C236	0.088190	0.747970	0.511900
C2371	C237	0.081680	0.787360	0.504880
C2381	C238	0.144600	0.822530	0.582410
C2391	C239	0.085100	0.591400	0.480100
C2401	C240	0.065500	0.692600	0.477900
C2411	C241	0.951680	0.848010	0.048390
C2421	C242	0.960200	0.924300	0.072780
C2431	C243	0.917300	0.889740	0.021920
C2441	C244	0.763930	0.752030	0.840220
C2451	C245	0.717520	0.712640	0.794320
C2461	C246	0.759880	0.677470	0.822070
C2471	C247	0.888700	0.908600	0.993700
C2481	C248	0.785300	0.807400	0.872900
C2491	C249	0.548320	0.596710	0.896330
C2501	C250	0.539800	0.612580	0.964100
C2511	C251	0.582700	0.604620	0.972440
C2521	C252	0.736070	0.576290	0.988100
C2531	C253	0.782480	0.576800	0.995120
C2541	C254	0.740120	0.562190	0.917590
C2551	C255	0.611300	0.605000	0.019900
C2561	C256	0.714700	0.587600	0.022100
C2571	C257	0.396330	0.548320	0.096710
C2581	C258	0.464100	0.539800	0.112580
C2591	C259	0.472440	0.582700	0.104620
C2601	C260	0.488100	0.736070	0.076290
C2611	C261	0.495120	0.782480	0.076800
C2621	C262	0.417590	0.740120	0.062190
C2631	C263	0.519900	0.611300	0.105000
C2641	C264	0.522100	0.714700	0.087600
C2651	C265	0.548390	0.951680	0.348010
C2661	C266	0.572780	0.960200	0.424300
C2671	C267	0.521920	0.917300	0.389740
C2681	C268	0.340220	0.763930	0.252030
C2691	C269	0.294320	0.717520	0.212640
C2701	C270	0.322070	0.759880	0.177470
C2711	C271	0.493700	0.888700	0.408600
C2721	C272	0.372900	0.785300	0.307400
C2731	C273	0.103670	0.200380	0.151990
C2741	C274	0.035900	0.148480	0.075700
C2751	C275	0.027560	0.132180	0.110260
C2761	C276	0.011900	0.088190	0.247970
C2771	C277	0.004880	0.081680	0.287360
C2781	C278	0.082410	0.144600	0.322530
C2791	C279	0.980100	0.085100	0.091400
C2801	C280	0.977900	0.065500	0.192600
C2811	C281	0.951610	0.299620	0.403290
C2821	C282	0.927220	0.351520	0.387420
C2831	C283	0.978080	0.367820	0.395380
C2841	C284	0.159780	0.411810	0.423710
C2851	C285	0.205680	0.418320	0.423200
C2861	C286	0.177930	0.355400	0.437810
C2871	C287	0.006300	0.414900	0.395000
C2881	C288	0.127100	0.434500	0.412400
C2891	C289	0.951610	0.651990	0.048320
C2901	C290	0.927220	0.575700	0.039800
C2911	C291	0.978080	0.610260	0.082700
C2921	C292	0.159780	0.747970	0.236070
C2931	C293	0.205680	0.787360	0.282480
C2941	C294	0.177930	0.822530	0.240120
C2951	C295	0.006300	0.591400	0.111300
C2961	C296	0.127100	0.692600	0.214700
C2971	C297	0.103670	0.903290	0.451680
C2981	C298	0.035900	0.887420	0.460200
C2991	C299	0.027560	0.895380	0.417300
C3001	C300	0.011900	0.923710	0.263930
C3011	C301	0.004880	0.923200	0.217520
C3021	C302	0.082410	0.937810	0.259880
C3031	C303	0.980100	0.895000	0.388700
C3041	C304	0.977900	0.912400	0.285300
C3051	C305	0.548390	0.596710	0.700380
C3061	C306	0.572780	0.612580	0.648480
C3071	C307	0.521920	0.604620	0.632180
C3081	C308	0.340220	0.576290	0.588190
C3091	C309	0.294320	0.576800	0.581680
C3101	C310	0.322070	0.562190	0.644600
C3111	C311	0.493700	0.605000	0.585100
C3121	C312	0.372900	0.587600	0.565500
C3131	C313	0.396330	0.848010	0.799620
C3141	C314	0.464100	0.924300	0.851520
C3151	C315	0.472440	0.889740	0.867820
C3161	C316	0.488100	0.752030	0.911810
C3171	C317	0.495120	0.712640	0.918320
C3181	C318	0.417590	0.677470	0.855400
C3191	C319	0.519900	0.908600	0.914900
C3201	C320	0.522100	0.807400	0.934500
C3211	C321	0.596710	0.200380	0.048390
C3221	C322	0.612580	0.148480	0.072780
C3231	C323	0.604620	0.132180	0.021920
C3241	C324	0.576290	0.088190	0.840220
C3251	C325	0.576800	0.081680	0.794320
C3261	C326	0.562190	0.144600	0.822070
C3271	C327	0.605000	0.085100	0.993700
C3281	C328	0.587600	0.065500	0.872900
C3291	C329	0.848010	0.299620	0.896330
C3301	C330	0.924300	0.351520	0.964100
C3311	C331	0.889740	0.367820	0.972440
C3321	C332	0.752030	0.411810	0.988100
C3331	C333	0.712640	0.418320	0.995120
C3341	C334	0.677470	0.355400	0.917590
C3351	C335	0.908600	0.414900	0.019900
C3361	C336	0.807400	0.434500	0.022100
C3371	C337	0.651990	0.548320	0.451610
C3381	C338	0.575700	0.539800	0.427220
C3391	C339	0.610260	0.582700	0.478080
C3401	C340	0.747970	0.736070	0.659780
C3411	C341	0.787360	0.782480	0.705680
C3421	C342	0.822530	0.740120	0.677930
C3431	C343	0.591400	0.611300	0.506300
C3441	C344	0.692600	0.714700	0.627100
C3451	C345	0.903290	0.951680	0.603670
C3461	C346	0.887420	0.960200	0.535900
C3471	C347	0.895380	0.917300	0.527560
C3481	C348	0.923710	0.763930	0.511900
C3491	C349	0.923200	0.717520	0.504880
C3501	C350	0.937810	0.759880	0.582410
C3511	C351	0.895000	0.888700	0.480100
C3521	C352	0.912400	0.785300	0.477900
C3531	C353	0.951680	0.103670	0.403290
C3541	C354	0.960200	0.035900	0.387420
C3551	C355	0.917300	0.027560	0.395380
C3561	C356	0.763930	0.011900	0.423710
C3571	C357	0.717520	0.004880	0.423200
C3581	C358	0.759880	0.082410	0.437810
C3591	C359	0.888700	0.980100	0.395000
C3601	C360	0.785300	0.977900	0.412400
C3611	C361	0.548320	0.951610	0.151990
C3621	C362	0.539800	0.927220	0.075700
C3631	C363	0.582700	0.978080	0.110260
C3641	C364	0.736070	0.159780	0.247970
C3651	C365	0.782480	0.205680	0.287360
C3661	C366	0.740120	0.177930	0.322530
C3671	C367	0.611300	0.006300	0.091400
C3681	C368	0.714700	0.127100	0.192600
C3691	C369	0.299620	0.396330	0.348010
C3701	C370	0.351520	0.464100	0.424300
C3711	C371	0.367820	0.472440	0.389740
C3721	C372	0.411810	0.488100	0.252030
C3731	C373	0.418320	0.495120	0.212640
C3741	C374	0.355400	0.417590	0.177470
C3751	C375	0.414900	0.519900	0.408600
C3761	C376	0.434500	0.522100	0.307400
C3771	C377	0.200380	0.548390	0.096710
C3781	C378	0.148480	0.572780	0.112580
C3791	C379	0.132180	0.521920	0.104620
C3801	C380	0.088190	0.340220	0.076290
C3811	C381	0.081680	0.294320	0.076800
C3821	C382	0.144600	0.322070	0.062190
C3831	C383	0.085100	0.493700	0.105000
C3841	C384	0.065500	0.372900	0.087600
N11	N1	0.160000	0.493090	0.588050
N21	N2	0.102080	0.410550	0.518330
N31	N3	0.113900	0.551800	0.652700
N41	N4	0.167000	0.580400	0.667800
N51	N5	0.271540	0.641130	0.709570
N61	N6	0.334840	0.717540	0.784620
N71	N7	0.405040	0.571950	0.911950
N81	N8	0.392220	0.583750	0.981670
N91	N9	0.399100	0.461200	0.847300
N101	N10	0.412600	0.499200	0.832200
N111	N11	0.431560	0.561970	0.790430
N121	N12	0.432920	0.550220	0.715380
N131	N13	0.094960	0.006910	0.166910
N141	N14	0.107780	0.089450	0.191530
N151	N15	0.100900	0.948200	0.062100
N161	N16	0.087400	0.919600	0.086600
N171	N17	0.068440	0.858870	0.130410
N181	N18	0.067080	0.782460	0.117300
N191	N19	0.340000	0.928050	0.333090
N201	N20	0.397920	0.916250	0.308470
N211	N21	0.386100	0.038800	0.437900
N221	N22	0.333000	0.000800	0.413400
N231	N23	0.228460	0.938030	0.369590
N241	N24	0.165160	0.949780	0.382700
N251	N25	0.666910	0.094960	0.506910
N261	N26	0.691530	0.107780	0.589450
N271	N27	0.562100	0.100900	0.448200
N281	N28	0.586600	0.087400	0.419600
N291	N29	0.630410	0.068440	0.358870
N301	N30	0.617300	0.067080	0.282460
N311	N31	0.833090	0.340000	0.428050
N321	N32	0.808470	0.397920	0.416250
N331	N33	0.937900	0.386100	0.538800
N341	N34	0.913400	0.333000	0.500800
N351	N35	0.869590	0.228460	0.438030
N361	N36	0.882700	0.165160	0.449780
N371	N37	0.088050	0.160000	0.993090
N381	N38	0.018330	0.102080	0.910550
N391	N39	0.152700	0.113900	0.051800
N401	N40	0.167800	0.167000	0.080400
N411	N41	0.209570	0.271540	0.141130
N421	N42	0.284620	0.334840	0.217540
N431	N43	0.411950	0.405040	0.071950
N441	N44	0.481670	0.392220	0.083750
N451	N45	0.347300	0.399100	0.961200
N461	N46	0.332200	0.412600	0.999200
N471	N47	0.290430	0.431560	0.061970
N481	N48	0.215380	0.432920	0.050220
N491	N49	0.571950	0.411950	0.905040
N501	N50	0.583750	0.481670	0.892220
N511	N51	0.461200	0.347300	0.899100
N521	N52	0.499200	0.332200	0.912600
N531	N53	0.561970	0.290430	0.931560
N541	N54	0.550220	0.215380	0.932920
N551	N55	0.493090	0.088050	0.660000
N561	N56	0.410550	0.018330	0.602080
N571	N57	0.551800	0.152700	0.613900
N581	N58	0.580400	0.167800	0.667000
N591	N59	0.641130	0.209570	0.771540
N601	N60	0.717540	0.284620	0.834840
N611	N61	0.928050	0.833090	0.840000
N621	N62	0.916250	0.808470	0.897920
N631	N63	0.038800	0.937900	0.886100
N641	N64	0.000800	0.913400	0.833000
N651	N65	0.938030	0.869590	0.728460
N661	N66	0.949780	0.882700	0.665160
N671	N67	0.006910	0.666910	0.594960
N681	N68	0.089450	0.691530	0.607780
N691	N69	0.948200	0.562100	0.600900
N701	N70	0.919600	0.586600	0.587400
N711	N71	0.858870	0.630410	0.568440
N721	N72	0.782460	0.617300	0.567080
N731	N73	0.006910	0.340000	0.911950
N741	N74	0.089450	0.397920	0.981670
N751	N75	0.948200	0.386100	0.847300
N761	N76	0.919600	0.333000	0.832200
N771	N77	0.858870	0.228460	0.790430
N781	N78	0.782460	0.165160	0.715380
N791	N79	0.928050	0.094960	0.588050
N801	N80	0.916250	0.107780	0.518330
N811	N81	0.038800	0.100900	0.652700
N821	N82	0.000800	0.087400	0.667800
N831	N83	0.938030	0.068440	0.709570
N841	N84	0.949780	0.067080	0.784620
N851	N85	0.493090	0.405040	0.333090
N861	N86	0.410550	0.392220	0.308470
N871	N87	0.551800	0.399100	0.437900
N881	N88	0.580400	0.412600	0.413400
N891	N89	0.641130	0.431560	0.369590
N901	N90	0.717540	0.432920	0.382700
N911	N91	0.571950	0.160000	0.166910
N921	N92	0.583750	0.102080	0.191530
N931	N93	0.461200	0.113900	0.062100
N941	N94	0.499200	0.167000	0.086600
N951	N95	0.561970	0.271540	0.130410
N961	N96	0.550220	0.334840	0.117300
N971	N97	0.405040	0.833090	0.993090
N981	N98	0.392220	0.808470	0.910550
N991	N99	0.399100	0.937900	0.051800
N1001	N100	0.412600	0.913400	0.080400
N1011	N101	0.431560	0.869590	0.141130
N1021	N102	0.432920	0.882700	0.217540
N1031	N103	0.160000	0.666910	0.071950
N1041	N104	0.102080	0.691530	0.083750
N1051	N105	0.113900	0.562100	0.961200
N1061	N106	0.167000	0.586600	0.999200
N1071	N107	0.271540	0.630410	0.061970
N1081	N108	0.334840	0.617300	0.050220
N1091	N109	0.340000	0.411950	0.506910
N1101	N110	0.397920	0.481670	0.589450
N1111	N111	0.386100	0.347300	0.448200
N1121	N112	0.333000	0.332200	0.419600
N1131	N113	0.228460	0.290430	0.358870
N1141	N114	0.165160	0.215380	0.282460
N1151	N115	0.094960	0.088050	0.428050
N1161	N116	0.107780	0.018330	0.416250
N1171	N117	0.100900	0.152700	0.538800
N1181	N118	0.087400	0.167800	0.500800
N1191	N119	0.068440	0.209570	0.438030
N1201	N120	0.067080	0.284620	0.449780
N1211	N121	0.088050	0.928050	0.594960
N1221	N122	0.018330	0.916250	0.607780
N1231	N123	0.152700	0.038800	0.600900
N1241	N124	0.167800	0.000800	0.587400
N1251	N125	0.209570	0.938030	0.568440
N1261	N126	0.284620	0.949780	0.567080
N1271	N127	0.411950	0.006910	0.840000
N1281	N128	0.481670	0.089450	0.897920
N1291	N129	0.347300	0.948200	0.886100
N1301	N130	0.332200	0.919600	0.833000
N1311	N131	0.290430	0.858870	0.728460
N1321	N132	0.215380	0.782460	0.665160
N1331	N133	0.666910	0.571950	0.660000
N1341	N134	0.691530	0.583750	0.602080
N1351	N135	0.562100	0.461200	0.613900
N1361	N136	0.586600	0.499200	0.667000
N1371	N137	0.630410	0.561970	0.771540
N1381	N138	0.617300	0.550220	0.834840
N1391	N139	0.833090	0.493090	0.905040
N1401	N140	0.808470	0.410550	0.892220
N1411	N141	0.937900	0.551800	0.899100
N1421	N142	0.913400	0.580400	0.912600
N1431	N143	0.869590	0.641130	0.931560
N1441	N144	0.882700	0.717540	0.932920
N1451	N145	0.840000	0.506910	0.411950
N1461	N146	0.897920	0.589450	0.481670
N1471	N147	0.886100	0.448200	0.347300
N1481	N148	0.833000	0.419600	0.332200
N1491	N149	0.728460	0.358870	0.290430
N1501	N150	0.665160	0.282460	0.215380
N1511	N151	0.594960	0.428050	0.088050
N1521	N152	0.607780	0.416250	0.018330
N1531	N153	0.600900	0.538800	0.152700
N1541	N154	0.587400	0.500800	0.167800
N1551	N155	0.568440	0.438030	0.209570
N1561	N156	0.567080	0.449780	0.284620
N1571	N157	0.905040	0.993090	0.833090
N1581	N158	0.892220	0.910550	0.808470
N1591	N159	0.899100	0.051800	0.937900
N1601	N160	0.912600	0.080400	0.913400
N1611	N161	0.931560	0.141130	0.869590
N1621	N162	0.932920	0.217540	0.882700
N1631	N163	0.660000	0.071950	0.666910
N1641	N164	0.602080	0.083750	0.691530
N1651	N165	0.613900	0.961200	0.562100
N1661	N166	0.667000	0.999200	0.586600
N1671	N167	0.771540	0.061970	0.630410
N1681	N168	0.834840	0.050220	0.617300
N1691	N169	0.333090	0.905040	0.493090
N1701	N170	0.308470	0.892220	0.410550
N1711	N171	0.437900	0.899100	0.551800
N1721	N172	0.413400	0.912600	0.580400
N1731	N173	0.369590	0.931560	0.641130
N1741	N174	0.382700	0.932920	0.717540
N1751	N175	0.166910	0.660000	0.571950
N1761	N176	0.191530	0.602080	0.583750
N1771	N177	0.062100	0.613900	0.461200
N1781	N178	0.086600	0.667000	0.499200
N1791	N179	0.130410	0.771540	0.561970
N1801	N180	0.117300	0.834840	0.550220
N1811	N181	0.911950	0.840000	0.006910
N1821	N182	0.981670	0.897920	0.089450
N1831	N183	0.847300	0.886100	0.948200
N1841	N184	0.832200	0.833000	0.919600
N1851	N185	0.790430	0.728460	0.858870
N1861	N186	0.715380	0.665160	0.782460
N1871	N187	0.588050	0.594960	0.928050
N1881	N188	0.518330	0.607780	0.916250
N1891	N189	0.652700	0.600900	0.038800
N1901	N190	0.667800	0.587400	0.000800
N1911	N191	0.709570	0.568440	0.938030
N1921	N192	0.784620	0.567080	0.949780
N1931	N193	0.428050	0.588050	0.094960
N1941	N194	0.416250	0.518330	0.107780
N1951	N195	0.538800	0.652700	0.100900
N1961	N196	0.500800	0.667800	0.087400
N1971	N197	0.438030	0.709570	0.068440
N1981	N198	0.449780	0.784620	0.067080
N1991	N199	0.506910	0.911950	0.340000
N2001	N200	0.589450	0.981670	0.397920
N2011	N201	0.448200	0.847300	0.386100
N2021	N202	0.419600	0.832200	0.333000
N2031	N203	0.358870	0.790430	0.228460
N2041	N204	0.282460	0.715380	0.165160
N2051	N205	0.071950	0.166910	0.160000
N2061	N206	0.083750	0.191530	0.102080
N2071	N207	0.961200	0.062100	0.113900
N2081	N208	0.999200	0.086600	0.167000
N2091	N209	0.061970	0.130410	0.271540
N2101	N210	0.050220	0.117300	0.334840
N2111	N211	0.993090	0.333090	0.405040
N2121	N212	0.910550	0.308470	0.392220
N2131	N213	0.051800	0.437900	0.399100
N2141	N214	0.080400	0.413400	0.412600
N2151	N215	0.141130	0.369590	0.431560
N2161	N216	0.217540	0.382700	0.432920
N2171	N217	0.993090	0.660000	0.088050
N2181	N218	0.910550	0.602080	0.018330
N2191	N219	0.051800	0.613900	0.152700
N2201	N220	0.080400	0.667000	0.167800
N2211	N221	0.141130	0.771540	0.209570
N2221	N222	0.217540	0.834840	0.284620
N2231	N223	0.071950	0.905040	0.411950
N2241	N224	0.083750	0.892220	0.481670
N2251	N225	0.961200	0.899100	0.347300
N2261	N226	0.999200	0.912600	0.332200
N2271	N227	0.061970	0.931560	0.290430
N2281	N228	0.050220	0.932920	0.215380
N2291	N229	0.506910	0.594960	0.666910
N2301	N230	0.589450	0.607780	0.691530
N2311	N231	0.448200	0.600900	0.562100
N2321	N232	0.419600	0.587400	0.586600
N2331	N233	0.358870	0.568440	0.630410
N2341	N234	0.282460	0.567080	0.617300
N2351	N235	0.428050	0.840000	0.833090
N2361	N236	0.416250	0.897920	0.808470
N2371	N237	0.538800	0.886100	0.937900
N2381	N238	0.500800	0.833000	0.913400
N2391	N239	0.438030	0.728460	0.869590
N2401	N240	0.449780	0.665160	0.882700
N2411	N241	0.594960	0.166910	0.006910
N2421	N242	0.607780	0.191530	0.089450
N2431	N243	0.600900	0.062100	0.948200
N2441	N244	0.587400	0.086600	0.919600
N2451	N245	0.568440	0.130410	0.858870
N2461	N246	0.567080	0.117300	0.782460
N2471	N247	0.840000	0.333090	0.928050
N2481	N248	0.897920	0.308470	0.916250
N2491	N249	0.886100	0.437900	0.038800
N2501	N250	0.833000	0.413400	0.000800
N2511	N251	0.728460	0.369590	0.938030
N2521	N252	0.665160	0.382700	0.949780
N2531	N253	0.660000	0.588050	0.493090
N2541	N254	0.602080	0.518330	0.410550
N2551	N255	0.613900	0.652700	0.551800
N2561	N256	0.667000	0.667800	0.580400
N2571	N257	0.771540	0.709570	0.641130
N2581	N258	0.834840	0.784620	0.717540
N2591	N259	0.905040	0.911950	0.571950
N2601	N260	0.892220	0.981670	0.583750
N2611	N261	0.899100	0.847300	0.461200
N2621	N262	0.912600	0.832200	0.499200
N2631	N263	0.931560	0.790430	0.561970
N2641	N264	0.932920	0.715380	0.550220
N2651	N265	0.911950	0.071950	0.405040
N2661	N266	0.981670	0.083750	0.392220
N2671	N267	0.847300	0.961200	0.399100
N2681	N268	0.832200	0.999200	0.412600
N2691	N269	0.790430	0.061970	0.431560
N2701	N270	0.715380	0.050220	0.432920
N2711	N271	0.588050	0.993090	0.160000
N2721	N272	0.518330	0.910550	0.102080
N2731	N273	0.652700	0.051800	0.113900
N2741	N274	0.667800	0.080400	0.167000
N2751	N275	0.709570	0.141130	0.271540
N2761	N276	0.784620	0.217540	0.334840
N2771	N277	0.333090	0.428050	0.340000
N2781	N278	0.308470	0.416250	0.397920
N2791	N279	0.437900	0.538800	0.386100
N2801	N280	0.413400	0.500800	0.333000
N2811	N281	0.369590	0.438030	0.228460
N2821	N282	0.382700	0.449780	0.165160
N2831	N283	0.166910	0.506910	0.094960
N2841	N284	0.191530	0.589450	0.107780
N2851	N285	0.062100	0.448200	0.100900
N2861	N286	0.086600	0.419600	0.087400
N2871	N287	0.130410	0.358870	0.068440
N2881	N288	0.117300	0.282460	0.067080
