data_YAPLIM_freeONLY_PM
_symmetry_space_group_name_H-M	'P1'
_cell_length_a	30.005300
_cell_length_b	30.005300
_cell_length_c	30.005300
_cell_angle_alpha	109.471000
_cell_angle_beta	109.471000
_cell_angle_gamma	109.471000
_symmetry_Int_Tables_number 1

loop_
_symmetry_equiv_pos_as_xyz
'x,y,z'

loop_
_atom_site_label
_atom_site_type_symbol
_atom_site_fract_x
_atom_site_fract_y
_atom_site_fract_z
Zn11	Zn1	0.916070	0.056260	0.638030
Zn21	Zn2	0.918230	0.278040	0.861970
Zn31	Zn3	0.581770	0.443740	0.359810
Zn41	Zn4	0.583930	0.221960	0.140190
Zn51	Zn5	0.859810	0.581770	0.943740
Zn61	Zn6	0.640190	0.583930	0.721960
Zn71	Zn7	0.138030	0.916070	0.556260
Zn81	Zn8	0.361970	0.918230	0.778040
Zn91	Zn9	0.278040	0.361970	0.418230
Zn101	Zn10	0.056260	0.138030	0.416070
Zn111	Zn11	0.221960	0.640190	0.083930
Zn121	Zn12	0.443740	0.859810	0.081770
Zn131	Zn13	0.443740	0.583930	0.861970
Zn141	Zn14	0.221960	0.581770	0.638030
Zn151	Zn15	0.056260	0.918230	0.140190
Zn161	Zn16	0.278040	0.916070	0.359810
Zn171	Zn17	0.918230	0.640190	0.556260
Zn181	Zn18	0.916070	0.859810	0.778040
Zn191	Zn19	0.583930	0.361970	0.943740
Zn201	Zn20	0.581770	0.138030	0.721960
Zn211	Zn21	0.138030	0.221960	0.081770
Zn221	Zn22	0.361970	0.443740	0.083930
Zn231	Zn23	0.859810	0.278040	0.416070
Zn241	Zn24	0.640190	0.056260	0.418230
Zn251	Zn25	0.083930	0.943740	0.361970
Zn261	Zn26	0.081770	0.721960	0.138030
Zn271	Zn27	0.418230	0.556260	0.640190
Zn281	Zn28	0.416070	0.778040	0.859810
Zn291	Zn29	0.140190	0.418230	0.056260
Zn301	Zn30	0.359810	0.416070	0.278040
Zn311	Zn31	0.861970	0.083930	0.443740
Zn321	Zn32	0.638030	0.081770	0.221960
Zn331	Zn33	0.721960	0.638030	0.581770
Zn341	Zn34	0.943740	0.861970	0.583930
Zn351	Zn35	0.778040	0.359810	0.916070
Zn361	Zn36	0.556260	0.140190	0.918230
Zn371	Zn37	0.556260	0.416070	0.138030
Zn381	Zn38	0.778040	0.418230	0.361970
Zn391	Zn39	0.943740	0.081770	0.859810
Zn401	Zn40	0.721960	0.083930	0.640190
Zn411	Zn41	0.081770	0.359810	0.443740
Zn421	Zn42	0.083930	0.140190	0.221960
Zn431	Zn43	0.416070	0.638030	0.056260
Zn441	Zn44	0.418230	0.861970	0.278040
Zn451	Zn45	0.861970	0.778040	0.918230
Zn461	Zn46	0.638030	0.556260	0.916070
Zn471	Zn47	0.140190	0.721960	0.583930
Zn481	Zn48	0.359810	0.943740	0.581770
H11	H1	0.856400	0.079900	0.545500
H21	H2	0.985100	0.121300	0.530000
H31	H3	0.887400	0.059100	0.734900
H41	H4	0.035800	0.097500	0.824500
H51	H5	0.050500	0.123200	0.604300
H61	H6	0.069900	0.123000	0.746100
H71	H7	0.034400	0.310900	0.954500
H81	H8	0.091300	0.455100	0.970000
H91	H9	0.824200	0.152500	0.765100
H101	H10	0.773000	0.211300	0.675500
H111	H11	0.018900	0.446200	0.895700
H121	H12	0.876900	0.323800	0.753900
H131	H13	0.465600	0.420100	0.276500
H141	H14	0.408700	0.378700	0.363800
H151	H15	0.675800	0.440900	0.328300
H161	H16	0.727000	0.402500	0.438300
H171	H17	0.481100	0.376800	0.427300
H181	H18	0.623100	0.377000	0.446900
H191	H19	0.643600	0.189100	0.223500
H201	H20	0.514900	0.044900	0.136200
H211	H21	0.612600	0.347500	0.171700
H221	H22	0.464200	0.288700	0.061700
H231	H23	0.449500	0.053800	0.072700
H241	H24	0.430100	0.176200	0.053100
H251	H25	0.776500	0.465600	0.920100
H261	H26	0.863800	0.408700	0.878700
H271	H27	0.828300	0.675800	0.940900
H281	H28	0.938300	0.727000	0.902500
H291	H29	0.927300	0.481100	0.876800
H301	H30	0.946900	0.623100	0.877000
H311	H31	0.723500	0.643600	0.689100
H321	H32	0.636200	0.514900	0.544900
H331	H33	0.671700	0.612600	0.847500
H341	H34	0.561700	0.464200	0.788700
H351	H35	0.572700	0.449500	0.553800
H361	H36	0.553100	0.430100	0.676200
H371	H37	0.045500	0.856400	0.579900
H381	H38	0.030000	0.985100	0.621300
H391	H39	0.234900	0.887400	0.559100
H401	H40	0.324500	0.035800	0.597500
H411	H41	0.104300	0.050500	0.623200
H421	H42	0.246100	0.069900	0.623000
H431	H43	0.454500	0.034400	0.810900
H441	H44	0.470000	0.091300	0.955100
H451	H45	0.265100	0.824200	0.652500
H461	H46	0.175500	0.773000	0.711300
H471	H47	0.395700	0.018900	0.946200
H481	H48	0.253900	0.876900	0.823800
H491	H49	0.310900	0.454500	0.534400
H501	H50	0.455100	0.470000	0.591300
H511	H51	0.152500	0.265100	0.324200
H521	H52	0.211300	0.175500	0.273000
H531	H53	0.446200	0.395700	0.518900
H541	H54	0.323800	0.253900	0.376900
H551	H55	0.079900	0.045500	0.356400
H561	H56	0.121300	0.030000	0.485100
H571	H57	0.059100	0.234900	0.387400
H581	H58	0.097500	0.324500	0.535800
H591	H59	0.123200	0.104300	0.550500
H601	H60	0.123000	0.246100	0.569900
H611	H61	0.189100	0.723500	0.143600
H621	H62	0.044900	0.636200	0.014900
H631	H63	0.347500	0.671700	0.112600
H641	H64	0.288700	0.561700	0.964200
H651	H65	0.053800	0.572700	0.949500
H661	H66	0.176200	0.553100	0.930100
H671	H67	0.420100	0.776500	0.965600
H681	H68	0.378700	0.863800	0.908700
H691	H69	0.440900	0.828300	0.175800
H701	H70	0.402500	0.938300	0.227000
H711	H71	0.376800	0.927300	0.981100
H721	H72	0.377000	0.946900	0.123100
H731	H73	0.420100	0.643600	0.954500
H741	H74	0.378700	0.514900	0.970000
H751	H75	0.440900	0.612600	0.765100
H761	H76	0.402500	0.464200	0.675500
H771	H77	0.376800	0.449500	0.895700
H781	H78	0.377000	0.430100	0.753900
H791	H79	0.189100	0.465600	0.545500
H801	H80	0.044900	0.408700	0.530000
H811	H81	0.347500	0.675800	0.734900
H821	H82	0.288700	0.727000	0.824500
H831	H83	0.053800	0.481100	0.604300
H841	H84	0.176200	0.623100	0.746100
H851	H85	0.079900	0.034400	0.223500
H861	H86	0.121300	0.091300	0.136200
H871	H87	0.059100	0.824200	0.171700
H881	H88	0.097500	0.773000	0.061700
H891	H89	0.123200	0.018900	0.072700
H901	H90	0.123000	0.876900	0.053100
H911	H91	0.310900	0.856400	0.276500
H921	H92	0.455100	0.985100	0.363800
H931	H93	0.152500	0.887400	0.328300
H941	H94	0.211300	0.035800	0.438300
H951	H95	0.446200	0.050500	0.427300
H961	H96	0.323800	0.069900	0.446900
H971	H97	0.034400	0.723500	0.579900
H981	H98	0.091300	0.636200	0.621300
H991	H99	0.824200	0.671700	0.559100
H1001	H100	0.773000	0.561700	0.597500
H1011	H101	0.018900	0.572700	0.623200
H1021	H102	0.876900	0.553100	0.623000
H1031	H103	0.856400	0.776500	0.810900
H1041	H104	0.985100	0.863800	0.955100
H1051	H105	0.887400	0.828300	0.652500
H1061	H106	0.035800	0.938300	0.711300
H1071	H107	0.050500	0.927300	0.946200
H1081	H108	0.069900	0.946900	0.823800
H1091	H109	0.643600	0.454500	0.920100
H1101	H110	0.514900	0.470000	0.878700
H1111	H111	0.612600	0.265100	0.940900
H1121	H112	0.464200	0.175500	0.902500
H1131	H113	0.449500	0.395700	0.876800
H1141	H114	0.430100	0.253900	0.877000
H1151	H115	0.465600	0.045500	0.689100
H1161	H116	0.408700	0.030000	0.544900
H1171	H117	0.675800	0.234900	0.847500
H1181	H118	0.727000	0.324500	0.788700
H1191	H119	0.481100	0.104300	0.553800
H1201	H120	0.623100	0.246100	0.676200
H1211	H121	0.045500	0.189100	0.965600
H1221	H122	0.030000	0.044900	0.908700
H1231	H123	0.234900	0.347500	0.175800
H1241	H124	0.324500	0.288700	0.227000
H1251	H125	0.104300	0.053800	0.981100
H1261	H126	0.246100	0.176200	0.123100
H1271	H127	0.454500	0.420100	0.143600
H1281	H128	0.470000	0.378700	0.014900
H1291	H129	0.265100	0.440900	0.112600
H1301	H130	0.175500	0.402500	0.964200
H1311	H131	0.395700	0.376800	0.949500
H1321	H132	0.253900	0.377000	0.930100
H1331	H133	0.776500	0.310900	0.356400
H1341	H134	0.863800	0.455100	0.485100
H1351	H135	0.828300	0.152500	0.387400
H1361	H136	0.938300	0.211300	0.535800
H1371	H137	0.927300	0.446200	0.550500
H1381	H138	0.946900	0.323800	0.569900
H1391	H139	0.723500	0.079900	0.534400
H1401	H140	0.636200	0.121300	0.591300
H1411	H141	0.671700	0.059100	0.324200
H1421	H142	0.561700	0.097500	0.273000
H1431	H143	0.572700	0.123200	0.518900
H1441	H144	0.553100	0.123000	0.376900
H1451	H145	0.143600	0.920100	0.454500
H1461	H146	0.014900	0.878700	0.470000
H1471	H147	0.112600	0.940900	0.265100
H1481	H148	0.964200	0.902500	0.175500
H1491	H149	0.949500	0.876800	0.395700
H1501	H150	0.930100	0.877000	0.253900
H1511	H151	0.965600	0.689100	0.045500
H1521	H152	0.908700	0.544900	0.030000
H1531	H153	0.175800	0.847500	0.234900
H1541	H154	0.227000	0.788700	0.324500
H1551	H155	0.981100	0.553800	0.104300
H1561	H156	0.123100	0.676200	0.246100
H1571	H157	0.534400	0.579900	0.723500
H1581	H158	0.591300	0.621300	0.636200
H1591	H159	0.324200	0.559100	0.671700
H1601	H160	0.273000	0.597500	0.561700
H1611	H161	0.518900	0.623200	0.572700
H1621	H162	0.376900	0.623000	0.553100
H1631	H163	0.356400	0.810900	0.776500
H1641	H164	0.485100	0.955100	0.863800
H1651	H165	0.387400	0.652500	0.828300
H1661	H166	0.535800	0.711300	0.938300
H1671	H167	0.550500	0.946200	0.927300
H1681	H168	0.569900	0.823800	0.946900
H1691	H169	0.223500	0.534400	0.079900
H1701	H170	0.136200	0.591300	0.121300
H1711	H171	0.171700	0.324200	0.059100
H1721	H172	0.061700	0.273000	0.097500
H1731	H173	0.072700	0.518900	0.123200
H1741	H174	0.053100	0.376900	0.123000
H1751	H175	0.276500	0.356400	0.310900
H1761	H176	0.363800	0.485100	0.455100
H1771	H177	0.328300	0.387400	0.152500
H1781	H178	0.438300	0.535800	0.211300
H1791	H179	0.427300	0.550500	0.446200
H1801	H180	0.446900	0.569900	0.323800
H1811	H181	0.954500	0.143600	0.420100
H1821	H182	0.970000	0.014900	0.378700
H1831	H183	0.765100	0.112600	0.440900
H1841	H184	0.675500	0.964200	0.402500
H1851	H185	0.895700	0.949500	0.376800
H1861	H186	0.753900	0.930100	0.377000
H1871	H187	0.545500	0.965600	0.189100
H1881	H188	0.530000	0.908700	0.044900
H1891	H189	0.734900	0.175800	0.347500
H1901	H190	0.824500	0.227000	0.288700
H1911	H191	0.604300	0.981100	0.053800
H1921	H192	0.746100	0.123100	0.176200
H1931	H193	0.689100	0.545500	0.465600
H1941	H194	0.544900	0.530000	0.408700
H1951	H195	0.847500	0.734900	0.675800
H1961	H196	0.788700	0.824500	0.727000
H1971	H197	0.553800	0.604300	0.481100
H1981	H198	0.676200	0.746100	0.623100
H1991	H199	0.920100	0.954500	0.643600
H2001	H200	0.878700	0.970000	0.514900
H2011	H201	0.940900	0.765100	0.612600
H2021	H202	0.902500	0.675500	0.464200
H2031	H203	0.876800	0.895700	0.449500
H2041	H204	0.877000	0.753900	0.430100
H2051	H205	0.810900	0.276500	0.856400
H2061	H206	0.955100	0.363800	0.985100
H2071	H207	0.652500	0.328300	0.887400
H2081	H208	0.711300	0.438300	0.035800
H2091	H209	0.946200	0.427300	0.050500
H2101	H210	0.823800	0.446900	0.069900
H2111	H211	0.579900	0.223500	0.034400
H2121	H212	0.621300	0.136200	0.091300
H2131	H213	0.559100	0.171700	0.824200
H2141	H214	0.597500	0.061700	0.773000
H2151	H215	0.623200	0.072700	0.018900
H2161	H216	0.623000	0.053100	0.876900
H2171	H217	0.579900	0.356400	0.045500
H2181	H218	0.621300	0.485100	0.030000
H2191	H219	0.559100	0.387400	0.234900
H2201	H220	0.597500	0.535800	0.324500
H2211	H221	0.623200	0.550500	0.104300
H2221	H222	0.623000	0.569900	0.246100
H2231	H223	0.810900	0.534400	0.454500
H2241	H224	0.955100	0.591300	0.470000
H2251	H225	0.652500	0.324200	0.265100
H2261	H226	0.711300	0.273000	0.175500
H2271	H227	0.946200	0.518900	0.395700
H2281	H228	0.823800	0.376900	0.253900
H2291	H229	0.920100	0.965600	0.776500
H2301	H230	0.878700	0.908700	0.863800
H2311	H231	0.940900	0.175800	0.828300
H2321	H232	0.902500	0.227000	0.938300
H2331	H233	0.876800	0.981100	0.927300
H2341	H234	0.877000	0.123100	0.946900
H2351	H235	0.689100	0.143600	0.723500
H2361	H236	0.544900	0.014900	0.636200
H2371	H237	0.847500	0.112600	0.671700
H2381	H238	0.788700	0.964200	0.561700
H2391	H239	0.553800	0.949500	0.572700
H2401	H240	0.676200	0.930100	0.553100
H2411	H241	0.965600	0.276500	0.420100
H2421	H242	0.908700	0.363800	0.378700
H2431	H243	0.175800	0.328300	0.440900
H2441	H244	0.227000	0.438300	0.402500
H2451	H245	0.981100	0.427300	0.376800
H2461	H246	0.123100	0.446900	0.377000
H2471	H247	0.143600	0.223500	0.189100
H2481	H248	0.014900	0.136200	0.044900
H2491	H249	0.112600	0.171700	0.347500
H2501	H250	0.964200	0.061700	0.288700
H2511	H251	0.949500	0.072700	0.053800
H2521	H252	0.930100	0.053100	0.176200
H2531	H253	0.356400	0.545500	0.079900
H2541	H254	0.485100	0.530000	0.121300
H2551	H255	0.387400	0.734900	0.059100
H2561	H256	0.535800	0.824500	0.097500
H2571	H257	0.550500	0.604300	0.123200
H2581	H258	0.569900	0.746100	0.123000
H2591	H259	0.534400	0.954500	0.310900
H2601	H260	0.591300	0.970000	0.455100
H2611	H261	0.324200	0.765100	0.152500
H2621	H262	0.273000	0.675500	0.211300
H2631	H263	0.518900	0.895700	0.446200
H2641	H264	0.376900	0.753900	0.323800
H2651	H265	0.954500	0.810900	0.034400
H2661	H266	0.970000	0.955100	0.091300
H2671	H267	0.765100	0.652500	0.824200
H2681	H268	0.675500	0.711300	0.773000
H2691	H269	0.895700	0.946200	0.018900
H2701	H270	0.753900	0.823800	0.876900
H2711	H271	0.545500	0.579900	0.856400
H2721	H272	0.530000	0.621300	0.985100
H2731	H273	0.734900	0.559100	0.887400
H2741	H274	0.824500	0.597500	0.035800
H2751	H275	0.604300	0.623200	0.050500
H2761	H276	0.746100	0.623000	0.069900
H2771	H277	0.223500	0.689100	0.643600
H2781	H278	0.136200	0.544900	0.514900
H2791	H279	0.171700	0.847500	0.612600
H2801	H280	0.061700	0.788700	0.464200
H2811	H281	0.072700	0.553800	0.449500
H2821	H282	0.053100	0.676200	0.430100
H2831	H283	0.276500	0.920100	0.465600
H2841	H284	0.363800	0.878700	0.408700
H2851	H285	0.328300	0.940900	0.675800
H2861	H286	0.438300	0.902500	0.727000
H2871	H287	0.427300	0.876800	0.481100
H2881	H288	0.446900	0.877000	0.623100
C11	C1	0.974110	0.106580	0.588010
C21	C2	0.891710	0.089230	0.552040
C31	C3	0.961380	0.111710	0.543010
C41	C4	0.923700	0.068220	0.746660
C51	C5	0.003910	0.088750	0.795520
C61	C6	0.999010	0.085400	0.747390
C71	C7	0.027200	0.112700	0.617500
C81	C8	0.032100	0.103300	0.724400
C91	C9	0.018570	0.386100	0.911990
C101	C10	0.037190	0.339670	0.947960
C111	C11	0.068700	0.418370	0.956990
C121	C12	0.821560	0.177040	0.753340
C131	C13	0.793230	0.208390	0.704480
C141	C14	0.838010	0.251620	0.752610
C151	C15	0.995200	0.409700	0.882500
C161	C16	0.878900	0.307700	0.775600
C171	C17	0.481430	0.393420	0.367530
C181	C18	0.462810	0.410770	0.302480
C191	C19	0.431300	0.388290	0.349670
C201	C20	0.678440	0.431780	0.355480
C211	C21	0.706770	0.411250	0.415160
C221	C22	0.661990	0.414600	0.413610
C231	C23	0.504800	0.387300	0.414500
C241	C24	0.621100	0.396700	0.428800
C251	C25	0.525890	0.113900	0.132470
C261	C26	0.608290	0.160330	0.197520
C271	C27	0.538620	0.081630	0.150330
C281	C28	0.576300	0.322960	0.144520
C291	C29	0.496090	0.291610	0.084840
C301	C30	0.500990	0.248380	0.086390
C311	C31	0.472800	0.090300	0.085500
C321	C32	0.467900	0.192300	0.071200
C331	C33	0.867530	0.481430	0.893420
C341	C34	0.802480	0.462810	0.910770
C351	C35	0.849670	0.431300	0.888290
C361	C36	0.855480	0.678440	0.931780
C371	C37	0.915160	0.706770	0.911250
C381	C38	0.913610	0.661990	0.914600
C391	C39	0.914500	0.504800	0.887300
C401	C40	0.928800	0.621100	0.896700
C411	C41	0.632470	0.525890	0.613900
C421	C42	0.697520	0.608290	0.660330
C431	C43	0.650330	0.538620	0.581630
C441	C44	0.644520	0.576300	0.822960
C451	C45	0.584840	0.496090	0.791610
C461	C46	0.586390	0.500990	0.748380
C471	C47	0.585500	0.472800	0.590300
C481	C48	0.571200	0.467900	0.692300
C491	C49	0.088010	0.974110	0.606580
C501	C50	0.052040	0.891710	0.589230
C511	C51	0.043010	0.961380	0.611710
C521	C52	0.246660	0.923700	0.568220
C531	C53	0.295520	0.003910	0.588750
C541	C54	0.247390	0.999010	0.585400
C551	C55	0.117500	0.027200	0.612700
C561	C56	0.224400	0.032100	0.603300
C571	C57	0.411990	0.018570	0.886100
C581	C58	0.447960	0.037190	0.839670
C591	C59	0.456990	0.068700	0.918370
C601	C60	0.253340	0.821560	0.677040
C611	C61	0.204480	0.793230	0.708390
C621	C62	0.252610	0.838010	0.751620
C631	C63	0.382500	0.995200	0.909700
C641	C64	0.275600	0.878900	0.807700
C651	C65	0.386100	0.411990	0.518570
C661	C66	0.339670	0.447960	0.537190
C671	C67	0.418370	0.456990	0.568700
C681	C68	0.177040	0.253340	0.321560
C691	C69	0.208390	0.204480	0.293230
C701	C70	0.251620	0.252610	0.338010
C711	C71	0.409700	0.382500	0.495200
C721	C72	0.307700	0.275600	0.378900
C731	C73	0.106580	0.088010	0.474110
C741	C74	0.089230	0.052040	0.391710
C751	C75	0.111710	0.043010	0.461380
C761	C76	0.068220	0.246660	0.423700
C771	C77	0.088750	0.295520	0.503910
C781	C78	0.085400	0.247390	0.499010
C791	C79	0.112700	0.117500	0.527200
C801	C80	0.103300	0.224400	0.532100
C811	C81	0.113900	0.632470	0.025890
C821	C82	0.160330	0.697520	0.108290
C831	C83	0.081630	0.650330	0.038620
C841	C84	0.322960	0.644520	0.076300
C851	C85	0.291610	0.584840	0.996090
C861	C86	0.248380	0.586390	0.000990
C871	C87	0.090300	0.585500	0.972800
C881	C88	0.192300	0.571200	0.967900
C891	C89	0.393420	0.867530	0.981430
C901	C90	0.410770	0.802480	0.962810
C911	C91	0.388290	0.849670	0.931300
C921	C92	0.431780	0.855480	0.178440
C931	C93	0.411250	0.915160	0.206770
C941	C94	0.414600	0.913610	0.161990
C951	C95	0.387300	0.914500	0.004800
C961	C96	0.396700	0.928800	0.121100
C971	C97	0.393420	0.525890	0.911990
C981	C98	0.410770	0.608290	0.947960
C991	C99	0.388290	0.538620	0.956990
C1001	C100	0.431780	0.576300	0.753340
C1011	C101	0.411250	0.496090	0.704480
C1021	C102	0.414600	0.500990	0.752610
C1031	C103	0.387300	0.472800	0.882500
C1041	C104	0.396700	0.467900	0.775600
C1051	C105	0.113900	0.481430	0.588010
C1061	C106	0.160330	0.462810	0.552040
C1071	C107	0.081630	0.431300	0.543010
C1081	C108	0.322960	0.678440	0.746660
C1091	C109	0.291610	0.706770	0.795520
C1101	C110	0.248380	0.661990	0.747390
C1111	C111	0.090300	0.504800	0.617500
C1121	C112	0.192300	0.621100	0.724400
C1131	C113	0.106580	0.018570	0.132470
C1141	C114	0.089230	0.037190	0.197520
C1151	C115	0.111710	0.068700	0.150330
C1161	C116	0.068220	0.821560	0.144520
C1171	C117	0.088750	0.793230	0.084840
C1181	C118	0.085400	0.838010	0.086390
C1191	C119	0.112700	0.995200	0.085500
C1201	C120	0.103300	0.878900	0.071200
C1211	C121	0.386100	0.974110	0.367530
C1221	C122	0.339670	0.891710	0.302480
C1231	C123	0.418370	0.961380	0.349670
C1241	C124	0.177040	0.923700	0.355480
C1251	C125	0.208390	0.003910	0.415160
C1261	C126	0.251620	0.999010	0.413610
C1271	C127	0.409700	0.027200	0.414500
C1281	C128	0.307700	0.032100	0.428800
C1291	C129	0.018570	0.632470	0.606580
C1301	C130	0.037190	0.697520	0.589230
C1311	C131	0.068700	0.650330	0.611710
C1321	C132	0.821560	0.644520	0.568220
C1331	C133	0.793230	0.584840	0.588750
C1341	C134	0.838010	0.586390	0.585400
C1351	C135	0.995200	0.585500	0.612700
C1361	C136	0.878900	0.571200	0.603300
C1371	C137	0.974110	0.867530	0.886100
C1381	C138	0.891710	0.802480	0.839670
C1391	C139	0.961380	0.849670	0.918370
C1401	C140	0.923700	0.855480	0.677040
C1411	C141	0.003910	0.915160	0.708390
C1421	C142	0.999010	0.913610	0.751620
C1431	C143	0.027200	0.914500	0.909700
C1441	C144	0.032100	0.928800	0.807700
C1451	C145	0.525890	0.411990	0.893420
C1461	C146	0.608290	0.447960	0.910770
C1471	C147	0.538620	0.456990	0.888290
C1481	C148	0.576300	0.253340	0.931780
C1491	C149	0.496090	0.204480	0.911250
C1501	C150	0.500990	0.252610	0.914600
C1511	C151	0.472800	0.382500	0.887300
C1521	C152	0.467900	0.275600	0.896700
C1531	C153	0.481430	0.088010	0.613900
C1541	C154	0.462810	0.052040	0.660330
C1551	C155	0.431300	0.043010	0.581630
C1561	C156	0.678440	0.246660	0.822960
C1571	C157	0.706770	0.295520	0.791610
C1581	C158	0.661990	0.247390	0.748380
C1591	C159	0.504800	0.117500	0.590300
C1601	C160	0.621100	0.224400	0.692300
C1611	C161	0.088010	0.113900	0.981430
C1621	C162	0.052040	0.160330	0.962810
C1631	C163	0.043010	0.081630	0.931300
C1641	C164	0.246660	0.322960	0.178440
C1651	C165	0.295520	0.291610	0.206770
C1661	C166	0.247390	0.248380	0.161990
C1671	C167	0.117500	0.090300	0.004800
C1681	C168	0.224400	0.192300	0.121100
C1691	C169	0.411990	0.393420	0.025890
C1701	C170	0.447960	0.410770	0.108290
C1711	C171	0.456990	0.388290	0.038620
C1721	C172	0.253340	0.431780	0.076300
C1731	C173	0.204480	0.411250	0.996090
C1741	C174	0.252610	0.414600	0.000990
C1751	C175	0.382500	0.387300	0.972800
C1761	C176	0.275600	0.396700	0.967900
C1771	C177	0.867530	0.386100	0.474110
C1781	C178	0.802480	0.339670	0.391710
C1791	C179	0.849670	0.418370	0.461380
C1801	C180	0.855480	0.177040	0.423700
C1811	C181	0.915160	0.208390	0.503910
C1821	C182	0.913610	0.251620	0.499010
C1831	C183	0.914500	0.409700	0.527200
C1841	C184	0.928800	0.307700	0.532100
C1851	C185	0.632470	0.106580	0.518570
C1861	C186	0.697520	0.089230	0.537190
C1871	C187	0.650330	0.111710	0.568700
C1881	C188	0.644520	0.068220	0.321560
C1891	C189	0.584840	0.088750	0.293230
C1901	C190	0.586390	0.085400	0.338010
C1911	C191	0.585500	0.112700	0.495200
C1921	C192	0.571200	0.103300	0.378900
C1931	C193	0.025890	0.893420	0.411990
C1941	C194	0.108290	0.910770	0.447960
C1951	C195	0.038620	0.888290	0.456990
C1961	C196	0.076300	0.931780	0.253340
C1971	C197	0.996090	0.911250	0.204480
C1981	C198	0.000990	0.914600	0.252610
C1991	C199	0.972800	0.887300	0.382500
C2001	C200	0.967900	0.896700	0.275600
C2011	C201	0.981430	0.613900	0.088010
C2021	C202	0.962810	0.660330	0.052040
C2031	C203	0.931300	0.581630	0.043010
C2041	C204	0.178440	0.822960	0.246660
C2051	C205	0.206770	0.791610	0.295520
C2061	C206	0.161990	0.748380	0.247390
C2071	C207	0.004800	0.590300	0.117500
C2081	C208	0.121100	0.692300	0.224400
C2091	C209	0.518570	0.606580	0.632470
C2101	C210	0.537190	0.589230	0.697520
C2111	C211	0.568700	0.611710	0.650330
C2121	C212	0.321560	0.568220	0.644520
C2131	C213	0.293230	0.588750	0.584840
C2141	C214	0.338010	0.585400	0.586390
C2151	C215	0.495200	0.612700	0.585500
C2161	C216	0.378900	0.603300	0.571200
C2171	C217	0.474110	0.886100	0.867530
C2181	C218	0.391710	0.839670	0.802480
C2191	C219	0.461380	0.918370	0.849670
C2201	C220	0.423700	0.677040	0.855480
C2211	C221	0.503910	0.708390	0.915160
C2221	C222	0.499010	0.751620	0.913610
C2231	C223	0.527200	0.909700	0.914500
C2241	C224	0.532100	0.807700	0.928800
C2251	C225	0.132470	0.518570	0.106580
C2261	C226	0.197520	0.537190	0.089230
C2271	C227	0.150330	0.568700	0.111710
C2281	C228	0.144520	0.321560	0.068220
C2291	C229	0.084840	0.293230	0.088750
C2301	C230	0.086390	0.338010	0.085400
C2311	C231	0.085500	0.495200	0.112700
C2321	C232	0.071200	0.378900	0.103300
C2331	C233	0.367530	0.474110	0.386100
C2341	C234	0.302480	0.391710	0.339670
C2351	C235	0.349670	0.461380	0.418370
C2361	C236	0.355480	0.423700	0.177040
C2371	C237	0.415160	0.503910	0.208390
C2381	C238	0.413610	0.499010	0.251620
C2391	C239	0.414500	0.527200	0.409700
C2401	C240	0.428800	0.532100	0.307700
C2411	C241	0.911990	0.025890	0.393420
C2421	C242	0.947960	0.108290	0.410770
C2431	C243	0.956990	0.038620	0.388290
C2441	C244	0.753340	0.076300	0.431780
C2451	C245	0.704480	0.996090	0.411250
C2461	C246	0.752610	0.000990	0.414600
C2471	C247	0.882500	0.972800	0.387300
C2481	C248	0.775600	0.967900	0.396700
C2491	C249	0.588010	0.981430	0.113900
C2501	C250	0.552040	0.962810	0.160330
C2511	C251	0.543010	0.931300	0.081630
C2521	C252	0.746660	0.178440	0.322960
C2531	C253	0.795520	0.206770	0.291610
C2541	C254	0.747390	0.161990	0.248380
C2551	C255	0.617500	0.004800	0.090300
C2561	C256	0.724400	0.121100	0.192300
C2571	C257	0.613900	0.588010	0.481430
C2581	C258	0.660330	0.552040	0.462810
C2591	C259	0.581630	0.543010	0.431300
C2601	C260	0.822960	0.746660	0.678440
C2611	C261	0.791610	0.795520	0.706770
C2621	C262	0.748380	0.747390	0.661990
C2631	C263	0.590300	0.617500	0.504800
C2641	C264	0.692300	0.724400	0.621100
C2651	C265	0.893420	0.911990	0.525890
C2661	C266	0.910770	0.947960	0.608290
C2671	C267	0.888290	0.956990	0.538620
C2681	C268	0.931780	0.753340	0.576300
C2691	C269	0.911250	0.704480	0.496090
C2701	C270	0.914600	0.752610	0.500990
C2711	C271	0.887300	0.882500	0.472800
C2721	C272	0.896700	0.775600	0.467900
C2731	C273	0.886100	0.367530	0.974110
C2741	C274	0.839670	0.302480	0.891710
C2751	C275	0.918370	0.349670	0.961380
C2761	C276	0.677040	0.355480	0.923700
C2771	C277	0.708390	0.415160	0.003910
C2781	C278	0.751620	0.413610	0.999010
C2791	C279	0.909700	0.414500	0.027200
C2801	C280	0.807700	0.428800	0.032100
C2811	C281	0.606580	0.132470	0.018570
C2821	C282	0.589230	0.197520	0.037190
C2831	C283	0.611710	0.150330	0.068700
C2841	C284	0.568220	0.144520	0.821560
C2851	C285	0.588750	0.084840	0.793230
C2861	C286	0.585400	0.086390	0.838010
C2871	C287	0.612700	0.085500	0.995200
C2881	C288	0.603300	0.071200	0.878900
C2891	C289	0.606580	0.474110	0.088010
C2901	C290	0.589230	0.391710	0.052040
C2911	C291	0.611710	0.461380	0.043010
C2921	C292	0.568220	0.423700	0.246660
C2931	C293	0.588750	0.503910	0.295520
C2941	C294	0.585400	0.499010	0.247390
C2951	C295	0.612700	0.527200	0.117500
C2961	C296	0.603300	0.532100	0.224400
C2971	C297	0.886100	0.518570	0.411990
C2981	C298	0.839670	0.537190	0.447960
C2991	C299	0.918370	0.568700	0.456990
C3001	C300	0.677040	0.321560	0.253340
C3011	C301	0.708390	0.293230	0.204480
C3021	C302	0.751620	0.338010	0.252610
C3031	C303	0.909700	0.495200	0.382500
C3041	C304	0.807700	0.378900	0.275600
C3051	C305	0.893420	0.981430	0.867530
C3061	C306	0.910770	0.962810	0.802480
C3071	C307	0.888290	0.931300	0.849670
C3081	C308	0.931780	0.178440	0.855480
C3091	C309	0.911250	0.206770	0.915160
C3101	C310	0.914600	0.161990	0.913610
C3111	C311	0.887300	0.004800	0.914500
C3121	C312	0.896700	0.121100	0.928800
C3131	C313	0.613900	0.025890	0.632470
C3141	C314	0.660330	0.108290	0.697520
C3151	C315	0.581630	0.038620	0.650330
C3161	C316	0.822960	0.076300	0.644520
C3171	C317	0.791610	0.996090	0.584840
C3181	C318	0.748380	0.000990	0.586390
C3191	C319	0.590300	0.972800	0.585500
C3201	C320	0.692300	0.967900	0.571200
C3211	C321	0.981430	0.367530	0.393420
C3221	C322	0.962810	0.302480	0.410770
C3231	C323	0.931300	0.349670	0.388290
C3241	C324	0.178440	0.355480	0.431780
C3251	C325	0.206770	0.415160	0.411250
C3261	C326	0.161990	0.413610	0.414600
C3271	C327	0.004800	0.414500	0.387300
C3281	C328	0.121100	0.428800	0.396700
C3291	C329	0.025890	0.132470	0.113900
C3301	C330	0.108290	0.197520	0.160330
C3311	C331	0.038620	0.150330	0.081630
C3321	C332	0.076300	0.144520	0.322960
C3331	C333	0.996090	0.084840	0.291610
C3341	C334	0.000990	0.086390	0.248380
C3351	C335	0.972800	0.085500	0.090300
C3361	C336	0.967900	0.071200	0.192300
C3371	C337	0.474110	0.588010	0.106580
C3381	C338	0.391710	0.552040	0.089230
C3391	C339	0.461380	0.543010	0.111710
C3401	C340	0.423700	0.746660	0.068220
C3411	C341	0.503910	0.795520	0.088750
C3421	C342	0.499010	0.747390	0.085400
C3431	C343	0.527200	0.617500	0.112700
C3441	C344	0.532100	0.724400	0.103300
C3451	C345	0.518570	0.911990	0.386100
C3461	C346	0.537190	0.947960	0.339670
C3471	C347	0.568700	0.956990	0.418370
C3481	C348	0.321560	0.753340	0.177040
C3491	C349	0.293230	0.704480	0.208390
C3501	C350	0.338010	0.752610	0.251620
C3511	C351	0.495200	0.882500	0.409700
C3521	C352	0.378900	0.775600	0.307700
C3531	C353	0.911990	0.886100	0.018570
C3541	C354	0.947960	0.839670	0.037190
C3551	C355	0.956990	0.918370	0.068700
C3561	C356	0.753340	0.677040	0.821560
C3571	C357	0.704480	0.708390	0.793230
C3581	C358	0.752610	0.751620	0.838010
C3591	C359	0.882500	0.909700	0.995200
C3601	C360	0.775600	0.807700	0.878900
C3611	C361	0.588010	0.606580	0.974110
C3621	C362	0.552040	0.589230	0.891710
C3631	C363	0.543010	0.611710	0.961380
C3641	C364	0.746660	0.568220	0.923700
C3651	C365	0.795520	0.588750	0.003910
C3661	C366	0.747390	0.585400	0.999010
C3671	C367	0.617500	0.612700	0.027200
C3681	C368	0.724400	0.603300	0.032100
C3691	C369	0.132470	0.613900	0.525890
C3701	C370	0.197520	0.660330	0.608290
C3711	C371	0.150330	0.581630	0.538620
C3721	C372	0.144520	0.822960	0.576300
C3731	C373	0.084840	0.791610	0.496090
C3741	C374	0.086390	0.748380	0.500990
C3751	C375	0.085500	0.590300	0.472800
C3761	C376	0.071200	0.692300	0.467900
C3771	C377	0.367530	0.893420	0.481430
C3781	C378	0.302480	0.910770	0.462810
C3791	C379	0.349670	0.888290	0.431300
C3801	C380	0.355480	0.931780	0.678440
C3811	C381	0.415160	0.911250	0.706770
C3821	C382	0.413610	0.914600	0.661990
C3831	C383	0.414500	0.887300	0.504800
C3841	C384	0.428800	0.896700	0.621100
N11	N1	0.956790	0.077820	0.795490
N21	N2	0.909250	0.100790	0.519740
N31	N3	0.928490	0.092130	0.594140
N41	N4	0.946290	0.072730	0.716040
N51	N5	0.010600	0.092800	0.675600
N61	N6	0.049000	0.106400	0.659400
N71	N7	0.782330	0.161300	0.704510
N81	N8	0.081050	0.389510	0.980260
N91	N9	0.997990	0.334350	0.905860
N101	N10	0.856690	0.230250	0.783960
N111	N11	0.917200	0.335000	0.824400
N121	N12	0.947000	0.389600	0.840600
N131	N13	0.717670	0.422180	0.378970
N141	N14	0.418950	0.399210	0.308460
N151	N15	0.502010	0.407870	0.336360
N161	N16	0.643310	0.427270	0.373560
N171	N17	0.582800	0.407200	0.417800
N181	N18	0.553000	0.393600	0.442600
N191	N19	0.543210	0.338700	0.121030
N201	N20	0.590750	0.110490	0.191540
N211	N21	0.571510	0.165650	0.163640
N221	N22	0.553710	0.269750	0.126440
N231	N23	0.489400	0.165000	0.082200
N241	N24	0.451000	0.110400	0.057400
N251	N25	0.878970	0.717670	0.922180
N261	N26	0.808460	0.418950	0.899210
N271	N27	0.836360	0.502010	0.907870
N281	N28	0.873560	0.643310	0.927270
N291	N29	0.917800	0.582800	0.907200
N301	N30	0.942600	0.553000	0.893600
N311	N31	0.621030	0.543210	0.838700
N321	N32	0.691540	0.590750	0.610490
N331	N33	0.663640	0.571510	0.665650
N341	N34	0.626440	0.553710	0.769750
N351	N35	0.582200	0.489400	0.665000
N361	N36	0.557400	0.451000	0.610400
N371	N37	0.295490	0.956790	0.577820
N381	N38	0.019740	0.909250	0.600790
N391	N39	0.094140	0.928490	0.592130
N401	N40	0.216040	0.946290	0.572730
N411	N41	0.175600	0.010600	0.592800
N421	N42	0.159400	0.049000	0.606400
N431	N43	0.204510	0.782330	0.661300
N441	N44	0.480260	0.081050	0.889510
N451	N45	0.405860	0.997990	0.834350
N461	N46	0.283960	0.856690	0.730250
N471	N47	0.324400	0.917200	0.835000
N481	N48	0.340600	0.947000	0.889600
N491	N49	0.161300	0.204510	0.282330
N501	N50	0.389510	0.480260	0.581050
N511	N51	0.334350	0.405860	0.497990
N521	N52	0.230250	0.283960	0.356690
N531	N53	0.335000	0.324400	0.417200
N541	N54	0.389600	0.340600	0.447000
N551	N55	0.077820	0.295490	0.456790
N561	N56	0.100790	0.019740	0.409250
N571	N57	0.092130	0.094140	0.428490
N581	N58	0.072730	0.216040	0.446290
N591	N59	0.092800	0.175600	0.510600
N601	N60	0.106400	0.159400	0.549000
N611	N61	0.338700	0.621030	0.043210
N621	N62	0.110490	0.691540	0.090750
N631	N63	0.165650	0.663640	0.071510
N641	N64	0.269750	0.626440	0.053710
N651	N65	0.165000	0.582200	0.989400
N661	N66	0.110400	0.557400	0.951000
N671	N67	0.422180	0.878970	0.217670
N681	N68	0.399210	0.808460	0.918950
N691	N69	0.407870	0.836360	0.002010
N701	N70	0.427270	0.873560	0.143310
N711	N71	0.407200	0.917800	0.082800
N721	N72	0.393600	0.942600	0.053000
N731	N73	0.422180	0.543210	0.704510
N741	N74	0.399210	0.590750	0.980260
N751	N75	0.407870	0.571510	0.905860
N761	N76	0.427270	0.553710	0.783960
N771	N77	0.407200	0.489400	0.824400
N781	N78	0.393600	0.451000	0.840600
N791	N79	0.338700	0.717670	0.795490
N801	N80	0.110490	0.418950	0.519740
N811	N81	0.165650	0.502010	0.594140
N821	N82	0.269750	0.643310	0.716040
N831	N83	0.165000	0.582800	0.675600
N841	N84	0.110400	0.553000	0.659400
N851	N85	0.077820	0.782330	0.121030
N861	N86	0.100790	0.081050	0.191540
N871	N87	0.092130	0.997990	0.163640
N881	N88	0.072730	0.856690	0.126440
N891	N89	0.092800	0.917200	0.082200
N901	N90	0.106400	0.947000	0.057400
N911	N91	0.161300	0.956790	0.378970
N921	N92	0.389510	0.909250	0.308460
N931	N93	0.334350	0.928490	0.336360
N941	N94	0.230250	0.946290	0.373560
N951	N95	0.335000	0.010600	0.417800
N961	N96	0.389600	0.049000	0.442600
N971	N97	0.782330	0.621030	0.577820
N981	N98	0.081050	0.691540	0.600790
N991	N99	0.997990	0.663640	0.592130
N1001	N100	0.856690	0.626440	0.572730
N1011	N101	0.917200	0.582200	0.592800
N1021	N102	0.947000	0.557400	0.606400
N1031	N103	0.956790	0.878970	0.661300
N1041	N104	0.909250	0.808460	0.889510
N1051	N105	0.928490	0.836360	0.834350
N1061	N106	0.946290	0.873560	0.730250
N1071	N107	0.010600	0.917800	0.835000
N1081	N108	0.049000	0.942600	0.889600
N1091	N109	0.543210	0.204510	0.922180
N1101	N110	0.590750	0.480260	0.899210
N1111	N111	0.571510	0.405860	0.907870
N1121	N112	0.553710	0.283960	0.927270
N1131	N113	0.489400	0.324400	0.907200
N1141	N114	0.451000	0.340600	0.893600
N1151	N115	0.717670	0.295490	0.838700
N1161	N116	0.418950	0.019740	0.610490
N1171	N117	0.502010	0.094140	0.665650
N1181	N118	0.643310	0.216040	0.769750
N1191	N119	0.582800	0.175600	0.665000
N1201	N120	0.553000	0.159400	0.610400
N1211	N121	0.295490	0.338700	0.217670
N1221	N122	0.019740	0.110490	0.918950
N1231	N123	0.094140	0.165650	0.002010
N1241	N124	0.216040	0.269750	0.143310
N1251	N125	0.175600	0.165000	0.082800
N1261	N126	0.159400	0.110400	0.053000
N1271	N127	0.204510	0.422180	0.043210
N1281	N128	0.480260	0.399210	0.090750
N1291	N129	0.405860	0.407870	0.071510
N1301	N130	0.283960	0.427270	0.053710
N1311	N131	0.324400	0.407200	0.989400
N1321	N132	0.340600	0.393600	0.951000
N1331	N133	0.878970	0.161300	0.456790
N1341	N134	0.808460	0.389510	0.409250
N1351	N135	0.836360	0.334350	0.428490
N1361	N136	0.873560	0.230250	0.446290
N1371	N137	0.917800	0.335000	0.510600
N1381	N138	0.942600	0.389600	0.549000
N1391	N139	0.621030	0.077820	0.282330
N1401	N140	0.691540	0.100790	0.581050
N1411	N141	0.663640	0.092130	0.497990
N1421	N142	0.626440	0.072730	0.356690
N1431	N143	0.582200	0.092800	0.417200
N1441	N144	0.557400	0.106400	0.447000
N1451	N145	0.043210	0.922180	0.204510
N1461	N146	0.090750	0.899210	0.480260
N1471	N147	0.071510	0.907870	0.405860
N1481	N148	0.053710	0.927270	0.283960
N1491	N149	0.989400	0.907200	0.324400
N1501	N150	0.951000	0.893600	0.340600
N1511	N151	0.217670	0.838700	0.295490
N1521	N152	0.918950	0.610490	0.019740
N1531	N153	0.002010	0.665650	0.094140
N1541	N154	0.143310	0.769750	0.216040
N1551	N155	0.082800	0.665000	0.175600
N1561	N156	0.053000	0.610400	0.159400
N1571	N157	0.282330	0.577820	0.621030
N1581	N158	0.581050	0.600790	0.691540
N1591	N159	0.497990	0.592130	0.663640
N1601	N160	0.356690	0.572730	0.626440
N1611	N161	0.417200	0.592800	0.582200
N1621	N162	0.447000	0.606400	0.557400
N1631	N163	0.456790	0.661300	0.878970
N1641	N164	0.409250	0.889510	0.808460
N1651	N165	0.428490	0.834350	0.836360
N1661	N166	0.446290	0.730250	0.873560
N1671	N167	0.510600	0.835000	0.917800
N1681	N168	0.549000	0.889600	0.942600
N1691	N169	0.121030	0.282330	0.077820
N1701	N170	0.191540	0.581050	0.100790
N1711	N171	0.163640	0.497990	0.092130
N1721	N172	0.126440	0.356690	0.072730
N1731	N173	0.082200	0.417200	0.092800
N1741	N174	0.057400	0.447000	0.106400
N1751	N175	0.378970	0.456790	0.161300
N1761	N176	0.308460	0.409250	0.389510
N1771	N177	0.336360	0.428490	0.334350
N1781	N178	0.373560	0.446290	0.230250
N1791	N179	0.417800	0.510600	0.335000
N1801	N180	0.442600	0.549000	0.389600
N1811	N181	0.704510	0.043210	0.422180
N1821	N182	0.980260	0.090750	0.399210
N1831	N183	0.905860	0.071510	0.407870
N1841	N184	0.783960	0.053710	0.427270
N1851	N185	0.824400	0.989400	0.407200
N1861	N186	0.840600	0.951000	0.393600
N1871	N187	0.795490	0.217670	0.338700
N1881	N188	0.519740	0.918950	0.110490
N1891	N189	0.594140	0.002010	0.165650
N1901	N190	0.716040	0.143310	0.269750
N1911	N191	0.675600	0.082800	0.165000
N1921	N192	0.659400	0.053000	0.110400
N1931	N193	0.838700	0.795490	0.717670
N1941	N194	0.610490	0.519740	0.418950
N1951	N195	0.665650	0.594140	0.502010
N1961	N196	0.769750	0.716040	0.643310
N1971	N197	0.665000	0.675600	0.582800
N1981	N198	0.610400	0.659400	0.553000
N1991	N199	0.922180	0.704510	0.543210
N2001	N200	0.899210	0.980260	0.590750
N2011	N201	0.907870	0.905860	0.571510
N2021	N202	0.927270	0.783960	0.553710
N2031	N203	0.907200	0.824400	0.489400
N2041	N204	0.893600	0.840600	0.451000
N2051	N205	0.661300	0.378970	0.956790
N2061	N206	0.889510	0.308460	0.909250
N2071	N207	0.834350	0.336360	0.928490
N2081	N208	0.730250	0.373560	0.946290
N2091	N209	0.835000	0.417800	0.010600
N2101	N210	0.889600	0.442600	0.049000
N2111	N211	0.577820	0.121030	0.782330
N2121	N212	0.600790	0.191540	0.081050
N2131	N213	0.592130	0.163640	0.997990
N2141	N214	0.572730	0.126440	0.856690
N2151	N215	0.592800	0.082200	0.917200
N2161	N216	0.606400	0.057400	0.947000
N2171	N217	0.577820	0.456790	0.295490
N2181	N218	0.600790	0.409250	0.019740
N2191	N219	0.592130	0.428490	0.094140
N2201	N220	0.572730	0.446290	0.216040
N2211	N221	0.592800	0.510600	0.175600
N2221	N222	0.606400	0.549000	0.159400
N2231	N223	0.661300	0.282330	0.204510
N2241	N224	0.889510	0.581050	0.480260
N2251	N225	0.834350	0.497990	0.405860
N2261	N226	0.730250	0.356690	0.283960
N2271	N227	0.835000	0.417200	0.324400
N2281	N228	0.889600	0.447000	0.340600
N2291	N229	0.922180	0.217670	0.878970
N2301	N230	0.899210	0.918950	0.808460
N2311	N231	0.907870	0.002010	0.836360
N2321	N232	0.927270	0.143310	0.873560
N2331	N233	0.907200	0.082800	0.917800
N2341	N234	0.893600	0.053000	0.942600
N2351	N235	0.838700	0.043210	0.621030
N2361	N236	0.610490	0.090750	0.691540
N2371	N237	0.665650	0.071510	0.663640
N2381	N238	0.769750	0.053710	0.626440
N2391	N239	0.665000	0.989400	0.582200
N2401	N240	0.610400	0.951000	0.557400
N2411	N241	0.217670	0.378970	0.422180
N2421	N242	0.918950	0.308460	0.399210
N2431	N243	0.002010	0.336360	0.407870
N2441	N244	0.143310	0.373560	0.427270
N2451	N245	0.082800	0.417800	0.407200
N2461	N246	0.053000	0.442600	0.393600
N2471	N247	0.043210	0.121030	0.338700
N2481	N248	0.090750	0.191540	0.110490
N2491	N249	0.071510	0.163640	0.165650
N2501	N250	0.053710	0.126440	0.269750
N2511	N251	0.989400	0.082200	0.165000
N2521	N252	0.951000	0.057400	0.110400
N2531	N253	0.456790	0.795490	0.077820
N2541	N254	0.409250	0.519740	0.100790
N2551	N255	0.428490	0.594140	0.092130
N2561	N256	0.446290	0.716040	0.072730
N2571	N257	0.510600	0.675600	0.092800
N2581	N258	0.549000	0.659400	0.106400
N2591	N259	0.282330	0.704510	0.161300
N2601	N260	0.581050	0.980260	0.389510
N2611	N261	0.497990	0.905860	0.334350
N2621	N262	0.356690	0.783960	0.230250
N2631	N263	0.417200	0.824400	0.335000
N2641	N264	0.447000	0.840600	0.389600
N2651	N265	0.704510	0.661300	0.782330
N2661	N266	0.980260	0.889510	0.081050
N2671	N267	0.905860	0.834350	0.997990
N2681	N268	0.783960	0.730250	0.856690
N2691	N269	0.824400	0.835000	0.917200
N2701	N270	0.840600	0.889600	0.947000
N2711	N271	0.795490	0.577820	0.956790
N2721	N272	0.519740	0.600790	0.909250
N2731	N273	0.594140	0.592130	0.928490
N2741	N274	0.716040	0.572730	0.946290
N2751	N275	0.675600	0.592800	0.010600
N2761	N276	0.659400	0.606400	0.049000
N2771	N277	0.121030	0.838700	0.543210
N2781	N278	0.191540	0.610490	0.590750
N2791	N279	0.163640	0.665650	0.571510
N2801	N280	0.126440	0.769750	0.553710
N2811	N281	0.082200	0.665000	0.489400
N2821	N282	0.057400	0.610400	0.451000
N2831	N283	0.378970	0.922180	0.717670
N2841	N284	0.308460	0.899210	0.418950
N2851	N285	0.336360	0.907870	0.502010
N2861	N286	0.373560	0.927270	0.643310
N2871	N287	0.417800	0.907200	0.582800
N2881	N288	0.442600	0.893600	0.553000
