data_YAPLUY_freeONLY_PM
_symmetry_space_group_name_H-M	'P1'
_cell_length_a	29.695700
_cell_length_b	29.695700
_cell_length_c	29.695700
_cell_angle_alpha	109.471000
_cell_angle_beta	109.471000
_cell_angle_gamma	109.471000
_symmetry_Int_Tables_number 1

loop_
_symmetry_equiv_pos_as_xyz
'x,y,z'

loop_
_atom_site_label
_atom_site_type_symbol
_atom_site_fract_x
_atom_site_fract_y
_atom_site_fract_z
Cu11	Cu1	0.278540	0.923070	0.352490
Cu21	Cu2	0.070580	0.926050	0.147510
Cu31	Cu3	0.429420	0.576930	0.855470
Cu41	Cu4	0.221460	0.573950	0.644530
Cu51	Cu5	0.355470	0.429420	0.076930
Cu61	Cu6	0.144530	0.221460	0.073950
Cu71	Cu7	0.852490	0.278540	0.423070
Cu81	Cu8	0.647510	0.070580	0.426050
Cu91	Cu9	0.926050	0.647510	0.570580
Cu101	Cu10	0.923070	0.852490	0.778540
Cu111	Cu11	0.573950	0.144530	0.721460
Cu121	Cu12	0.576930	0.355470	0.929420
Cu131	Cu13	0.576930	0.221460	0.147510
Cu141	Cu14	0.573950	0.429420	0.352490
Cu151	Cu15	0.923070	0.070580	0.644530
Cu161	Cu16	0.926050	0.278540	0.855470
Cu171	Cu17	0.070580	0.144530	0.423070
Cu181	Cu18	0.278540	0.355470	0.426050
Cu191	Cu19	0.221460	0.647510	0.076930
Cu201	Cu20	0.429420	0.852490	0.073950
Cu211	Cu21	0.852490	0.573950	0.929420
Cu221	Cu22	0.647510	0.576930	0.721460
Cu231	Cu23	0.355470	0.926050	0.778540
Cu241	Cu24	0.144530	0.923070	0.570580
Cu251	Cu25	0.721460	0.076930	0.647510
Cu261	Cu26	0.929420	0.073950	0.852490
Cu271	Cu27	0.570580	0.423070	0.144530
Cu281	Cu28	0.778540	0.426050	0.355470
Cu291	Cu29	0.644530	0.570580	0.923070
Cu301	Cu30	0.855470	0.778540	0.926050
Cu311	Cu31	0.147510	0.721460	0.576930
Cu321	Cu32	0.352490	0.929420	0.573950
Cu331	Cu33	0.073950	0.352490	0.429420
Cu341	Cu34	0.076930	0.147510	0.221460
Cu351	Cu35	0.426050	0.855470	0.278540
Cu361	Cu36	0.423070	0.644530	0.070580
Cu371	Cu37	0.423070	0.778540	0.852490
Cu381	Cu38	0.426050	0.570580	0.647510
Cu391	Cu39	0.076930	0.929420	0.355470
Cu401	Cu40	0.073950	0.721460	0.144530
Cu411	Cu41	0.929420	0.855470	0.576930
Cu421	Cu42	0.721460	0.644530	0.573950
Cu431	Cu43	0.778540	0.352490	0.923070
Cu441	Cu44	0.570580	0.147510	0.926050
Cu451	Cu45	0.147510	0.426050	0.070580
Cu461	Cu46	0.352490	0.423070	0.278540
Cu471	Cu47	0.644530	0.073950	0.221460
Cu481	Cu48	0.855470	0.076930	0.429420
H11	H1	0.313500	0.854900	0.273200
H21	H2	0.459800	0.984600	0.366800
H31	H3	0.147300	0.876700	0.320800
H41	H4	0.201700	0.023100	0.439200
H51	H5	0.445100	0.051100	0.429600
H61	H6	0.303500	0.064100	0.481400
H71	H7	0.081700	0.040300	0.226800
H81	H8	0.117800	0.093000	0.133200
H91	H9	0.055900	0.826500	0.179200
H101	H10	0.083900	0.762500	0.060800
H111	H11	0.121500	0.015500	0.070400
H121	H12	0.082700	0.822100	0.018600
H131	H13	0.418300	0.645100	0.958600
H141	H14	0.382200	0.515400	0.975200
H151	H15	0.444100	0.623300	0.770600
H161	H16	0.416100	0.476900	0.678600
H171	H17	0.378500	0.448900	0.894000
H181	H18	0.417300	0.435900	0.739400
H191	H19	0.186500	0.459700	0.541400
H201	H20	0.040200	0.407000	0.524800
H211	H21	0.352700	0.673500	0.729400
H221	H22	0.298300	0.737500	0.821400
H231	H23	0.054900	0.484500	0.606000
H241	H24	0.196500	0.677900	0.760600
H251	H25	0.458600	0.418300	0.145100
H261	H26	0.475200	0.382200	0.015400
H271	H27	0.270600	0.444100	0.123300
H281	H28	0.178600	0.416100	0.976900
H291	H29	0.394000	0.378500	0.948900
H301	H30	0.239400	0.417300	0.935900
H311	H31	0.041400	0.186500	0.959700
H321	H32	0.024800	0.040200	0.907000
H331	H33	0.229400	0.352700	0.173500
H341	H34	0.321400	0.298300	0.237500
H351	H35	0.106000	0.054900	0.984500
H361	H36	0.260600	0.196500	0.177900
H371	H37	0.773200	0.313500	0.354900
H381	H38	0.866800	0.459800	0.484600
H391	H39	0.820800	0.147300	0.376700
H401	H40	0.939200	0.201700	0.523100
H411	H41	0.929600	0.445100	0.551100
H421	H42	0.981400	0.303500	0.564100
H431	H43	0.726800	0.081700	0.540300
H441	H44	0.633200	0.117800	0.593000
H451	H45	0.679200	0.055900	0.326500
H461	H46	0.560800	0.083900	0.262500
H471	H47	0.570400	0.121500	0.515500
H481	H48	0.518600	0.082700	0.322100
H491	H49	0.040300	0.726800	0.581700
H501	H50	0.093000	0.633200	0.617800
H511	H51	0.826500	0.679200	0.555900
H521	H52	0.762500	0.560800	0.583900
H531	H53	0.015500	0.570400	0.621500
H541	H54	0.822100	0.518600	0.582700
H551	H55	0.854900	0.773200	0.813500
H561	H56	0.984600	0.866800	0.959800
H571	H57	0.876700	0.820800	0.647300
H581	H58	0.023100	0.939200	0.701700
H591	H59	0.051100	0.929600	0.945100
H601	H60	0.064100	0.981400	0.803500
H611	H61	0.459700	0.041400	0.686500
H621	H62	0.407000	0.024800	0.540200
H631	H63	0.673500	0.229400	0.852700
H641	H64	0.737500	0.321400	0.798300
H651	H65	0.484500	0.106000	0.554900
H661	H66	0.677900	0.260600	0.696500
H671	H67	0.645100	0.458600	0.918300
H681	H68	0.515400	0.475200	0.882200
H691	H69	0.623300	0.270600	0.944100
H701	H70	0.476900	0.178600	0.916100
H711	H71	0.448900	0.394000	0.878500
H721	H72	0.435900	0.239400	0.917300
H731	H73	0.645100	0.186500	0.226800
H741	H74	0.515400	0.040200	0.133200
H751	H75	0.623300	0.352700	0.179200
H761	H76	0.476900	0.298300	0.060800
H771	H77	0.448900	0.054900	0.070400
H781	H78	0.435900	0.196500	0.018600
H791	H79	0.459700	0.418300	0.273200
H801	H80	0.407000	0.382200	0.366800
H811	H81	0.673500	0.444100	0.320800
H821	H82	0.737500	0.416100	0.439200
H831	H83	0.484500	0.378500	0.429600
H841	H84	0.677900	0.417300	0.481400
H851	H85	0.854900	0.081700	0.541400
H861	H86	0.984600	0.117800	0.524800
H871	H87	0.876700	0.055900	0.729400
H881	H88	0.023100	0.083900	0.821400
H891	H89	0.051100	0.121500	0.606000
H901	H90	0.064100	0.082700	0.760600
H911	H91	0.040300	0.313500	0.958600
H921	H92	0.093000	0.459800	0.975200
H931	H93	0.826500	0.147300	0.770600
H941	H94	0.762500	0.201700	0.678600
H951	H95	0.015500	0.445100	0.894000
H961	H96	0.822100	0.303500	0.739400
H971	H97	0.081700	0.041400	0.354900
H981	H98	0.117800	0.024800	0.484600
H991	H99	0.055900	0.229400	0.376700
H1001	H100	0.083900	0.321400	0.523100
H1011	H101	0.121500	0.106000	0.551100
H1021	H102	0.082700	0.260600	0.564100
H1031	H103	0.313500	0.458600	0.540300
H1041	H104	0.459800	0.475200	0.593000
H1051	H105	0.147300	0.270600	0.326500
H1061	H106	0.201700	0.178600	0.262500
H1071	H107	0.445100	0.394000	0.515500
H1081	H108	0.303500	0.239400	0.322100
H1091	H109	0.186500	0.726800	0.145100
H1101	H110	0.040200	0.633200	0.015400
H1111	H111	0.352700	0.679200	0.123300
H1121	H112	0.298300	0.560800	0.976900
H1131	H113	0.054900	0.570400	0.948900
H1141	H114	0.196500	0.518600	0.935900
H1151	H115	0.418300	0.773200	0.959700
H1161	H116	0.382200	0.866800	0.907000
H1171	H117	0.444100	0.820800	0.173500
H1181	H118	0.416100	0.939200	0.237500
H1191	H119	0.378500	0.929600	0.984500
H1201	H120	0.417300	0.981400	0.177900
H1211	H121	0.773200	0.459700	0.918300
H1221	H122	0.866800	0.407000	0.882200
H1231	H123	0.820800	0.673500	0.944100
H1241	H124	0.939200	0.737500	0.916100
H1251	H125	0.929600	0.484500	0.878500
H1261	H126	0.981400	0.677900	0.917300
H1271	H127	0.726800	0.645100	0.686500
H1281	H128	0.633200	0.515400	0.540200
H1291	H129	0.679200	0.623300	0.852700
H1301	H130	0.560800	0.476900	0.798300
H1311	H131	0.570400	0.448900	0.554900
H1321	H132	0.518600	0.435900	0.696500
H1331	H133	0.458600	0.040300	0.813500
H1341	H134	0.475200	0.093000	0.959800
H1351	H135	0.270600	0.826500	0.647300
H1361	H136	0.178600	0.762500	0.701700
H1371	H137	0.394000	0.015500	0.945100
H1381	H138	0.239400	0.822100	0.803500
H1391	H139	0.041400	0.854900	0.581700
H1401	H140	0.024800	0.984600	0.617800
H1411	H141	0.229400	0.876700	0.555900
H1421	H142	0.321400	0.023100	0.583900
H1431	H143	0.106000	0.051100	0.621500
H1441	H144	0.260600	0.064100	0.582700
H1451	H145	0.686500	0.145100	0.726800
H1461	H146	0.540200	0.015400	0.633200
H1471	H147	0.852700	0.123300	0.679200
H1481	H148	0.798300	0.976900	0.560800
H1491	H149	0.554900	0.948900	0.570400
H1501	H150	0.696500	0.935900	0.518600
H1511	H151	0.918300	0.959700	0.773200
H1521	H152	0.882200	0.907000	0.866800
H1531	H153	0.944100	0.173500	0.820800
H1541	H154	0.916100	0.237500	0.939200
H1551	H155	0.878500	0.984500	0.929600
H1561	H156	0.917300	0.177900	0.981400
H1571	H157	0.581700	0.354900	0.041400
H1581	H158	0.617800	0.484600	0.024800
H1591	H159	0.555900	0.376700	0.229400
H1601	H160	0.583900	0.523100	0.321400
H1611	H161	0.621500	0.551100	0.106000
H1621	H162	0.582700	0.564100	0.260600
H1631	H163	0.813500	0.540300	0.458600
H1641	H164	0.959800	0.593000	0.475200
H1651	H165	0.647300	0.326500	0.270600
H1661	H166	0.701700	0.262500	0.178600
H1671	H167	0.945100	0.515500	0.394000
H1681	H168	0.803500	0.322100	0.239400
H1691	H169	0.541400	0.581700	0.854900
H1701	H170	0.524800	0.617800	0.984600
H1711	H171	0.729400	0.555900	0.876700
H1721	H172	0.821400	0.583900	0.023100
H1731	H173	0.606000	0.621500	0.051100
H1741	H174	0.760600	0.582700	0.064100
H1751	H175	0.958600	0.813500	0.040300
H1761	H176	0.975200	0.959800	0.093000
H1771	H177	0.770600	0.647300	0.826500
H1781	H178	0.678600	0.701700	0.762500
H1791	H179	0.894000	0.945100	0.015500
H1801	H180	0.739400	0.803500	0.822100
H1811	H181	0.226800	0.686500	0.645100
H1821	H182	0.133200	0.540200	0.515400
H1831	H183	0.179200	0.852700	0.623300
H1841	H184	0.060800	0.798300	0.476900
H1851	H185	0.070400	0.554900	0.448900
H1861	H186	0.018600	0.696500	0.435900
H1871	H187	0.273200	0.918300	0.459700
H1881	H188	0.366800	0.882200	0.407000
H1891	H189	0.320800	0.944100	0.673500
H1901	H190	0.439200	0.916100	0.737500
H1911	H191	0.429600	0.878500	0.484500
H1921	H192	0.481400	0.917300	0.677900
H1931	H193	0.959700	0.273200	0.418300
H1941	H194	0.907000	0.366800	0.382200
H1951	H195	0.173500	0.320800	0.444100
H1961	H196	0.237500	0.439200	0.416100
H1971	H197	0.984500	0.429600	0.378500
H1981	H198	0.177900	0.481400	0.417300
H1991	H199	0.145100	0.226800	0.186500
H2001	H200	0.015400	0.133200	0.040200
H2011	H201	0.123300	0.179200	0.352700
H2021	H202	0.976900	0.060800	0.298300
H2031	H203	0.948900	0.070400	0.054900
H2041	H204	0.935900	0.018600	0.196500
H2051	H205	0.540300	0.958600	0.313500
H2061	H206	0.593000	0.975200	0.459800
H2071	H207	0.326500	0.770600	0.147300
H2081	H208	0.262500	0.678600	0.201700
H2091	H209	0.515500	0.894000	0.445100
H2101	H210	0.322100	0.739400	0.303500
H2111	H211	0.354900	0.541400	0.081700
H2121	H212	0.484600	0.524800	0.117800
H2131	H213	0.376700	0.729400	0.055900
H2141	H214	0.523100	0.821400	0.083900
H2151	H215	0.551100	0.606000	0.121500
H2161	H216	0.564100	0.760600	0.082700
H2171	H217	0.354900	0.813500	0.773200
H2181	H218	0.484600	0.959800	0.866800
H2191	H219	0.376700	0.647300	0.820800
H2201	H220	0.523100	0.701700	0.939200
H2211	H221	0.551100	0.945100	0.929600
H2221	H222	0.564100	0.803500	0.981400
H2231	H223	0.540300	0.581700	0.726800
H2241	H224	0.593000	0.617800	0.633200
H2251	H225	0.326500	0.555900	0.679200
H2261	H226	0.262500	0.583900	0.560800
H2271	H227	0.515500	0.621500	0.570400
H2281	H228	0.322100	0.582700	0.518600
H2291	H229	0.145100	0.918300	0.458600
H2301	H230	0.015400	0.882200	0.475200
H2311	H231	0.123300	0.944100	0.270600
H2321	H232	0.976900	0.916100	0.178600
H2331	H233	0.948900	0.878500	0.394000
H2341	H234	0.935900	0.917300	0.239400
H2351	H235	0.959700	0.686500	0.041400
H2361	H236	0.907000	0.540200	0.024800
H2371	H237	0.173500	0.852700	0.229400
H2381	H238	0.237500	0.798300	0.321400
H2391	H239	0.984500	0.554900	0.106000
H2401	H240	0.177900	0.696500	0.260600
H2411	H241	0.918300	0.958600	0.645100
H2421	H242	0.882200	0.975200	0.515400
H2431	H243	0.944100	0.770600	0.623300
H2441	H244	0.916100	0.678600	0.476900
H2451	H245	0.878500	0.894000	0.448900
H2461	H246	0.917300	0.739400	0.435900
H2471	H247	0.686500	0.541400	0.459700
H2481	H248	0.540200	0.524800	0.407000
H2491	H249	0.852700	0.729400	0.673500
H2501	H250	0.798300	0.821400	0.737500
H2511	H251	0.554900	0.606000	0.484500
H2521	H252	0.696500	0.760600	0.677900
H2531	H253	0.813500	0.273200	0.854900
H2541	H254	0.959800	0.366800	0.984600
H2551	H255	0.647300	0.320800	0.876700
H2561	H256	0.701700	0.439200	0.023100
H2571	H257	0.945100	0.429600	0.051100
H2581	H258	0.803500	0.481400	0.064100
H2591	H259	0.581700	0.226800	0.040300
H2601	H260	0.617800	0.133200	0.093000
H2611	H261	0.555900	0.179200	0.826500
H2621	H262	0.583900	0.060800	0.762500
H2631	H263	0.621500	0.070400	0.015500
H2641	H264	0.582700	0.018600	0.822100
H2651	H265	0.226800	0.540300	0.081700
H2661	H266	0.133200	0.593000	0.117800
H2671	H267	0.179200	0.326500	0.055900
H2681	H268	0.060800	0.262500	0.083900
H2691	H269	0.070400	0.515500	0.121500
H2701	H270	0.018600	0.322100	0.082700
H2711	H271	0.273200	0.354900	0.313500
H2721	H272	0.366800	0.484600	0.459800
H2731	H273	0.320800	0.376700	0.147300
H2741	H274	0.439200	0.523100	0.201700
H2751	H275	0.429600	0.551100	0.445100
H2761	H276	0.481400	0.564100	0.303500
H2771	H277	0.541400	0.959700	0.186500
H2781	H278	0.524800	0.907000	0.040200
H2791	H279	0.729400	0.173500	0.352700
H2801	H280	0.821400	0.237500	0.298300
H2811	H281	0.606000	0.984500	0.054900
H2821	H282	0.760600	0.177900	0.196500
H2831	H283	0.958600	0.145100	0.418300
H2841	H284	0.975200	0.015400	0.382200
H2851	H285	0.770600	0.123300	0.444100
H2861	H286	0.678600	0.976900	0.416100
H2871	H287	0.894000	0.948900	0.378500
H2881	H288	0.739400	0.935900	0.417300
C11	C1	0.342370	0.890360	0.300130
C21	C2	0.244020	0.990510	0.409850
C31	C3	0.422310	0.960650	0.350920
C41	C4	0.387900	0.973170	0.366730
C51	C5	0.170920	0.913050	0.349190
C61	C6	0.199840	0.992890	0.413930
C71	C7	0.408000	0.026270	0.413670
C81	C8	0.300400	0.037600	0.451000
C91	C9	0.090230	0.042240	0.199870
C101	C10	0.080660	0.834170	0.090150
C111	C11	0.109730	0.071390	0.149080
C121	C12	0.106440	0.021170	0.133270
C131	C13	0.063860	0.821730	0.150810
C141	C14	0.078960	0.785910	0.086070
C151	C15	0.112600	0.994330	0.086330
C161	C16	0.086600	0.849400	0.049000
C171	C17	0.409770	0.609640	0.952010
C181	C18	0.419340	0.509490	0.753510
C191	C19	0.390270	0.539350	0.961660
C201	C20	0.393560	0.526830	0.914730
C211	C21	0.436140	0.586950	0.757870
C221	C22	0.421040	0.507110	0.706950
C231	C23	0.387400	0.473730	0.881730
C241	C24	0.413400	0.462400	0.762800
C251	C25	0.157630	0.457760	0.547990
C261	C26	0.255980	0.665830	0.746490
C271	C27	0.077690	0.428610	0.538340
C281	C28	0.112100	0.478830	0.585270
C291	C29	0.329080	0.678270	0.742130
C301	C30	0.300160	0.714090	0.793050
C311	C31	0.092000	0.505670	0.618270
C321	C32	0.199600	0.650600	0.737200
C331	C33	0.452010	0.409770	0.109640
C341	C34	0.253510	0.419340	0.009490
C351	C35	0.461660	0.390270	0.039350
C361	C36	0.414730	0.393560	0.026830
C371	C37	0.257870	0.436140	0.086950
C381	C38	0.206950	0.421040	0.007110
C391	C39	0.381730	0.387400	0.973730
C401	C40	0.262800	0.413400	0.962400
C411	C41	0.047990	0.157630	0.957760
C421	C42	0.246490	0.255980	0.165830
C431	C43	0.038340	0.077690	0.928610
C441	C44	0.085270	0.112100	0.978830
C451	C45	0.242130	0.329080	0.178270
C461	C46	0.293050	0.300160	0.214090
C471	C47	0.118270	0.092000	0.005670
C481	C48	0.237200	0.199600	0.150600
C491	C49	0.800130	0.342370	0.390360
C501	C50	0.909850	0.244020	0.490510
C511	C51	0.850920	0.422310	0.460650
C521	C52	0.866730	0.387900	0.473170
C531	C53	0.849190	0.170920	0.413050
C541	C54	0.913930	0.199840	0.492890
C551	C55	0.913670	0.408000	0.526270
C561	C56	0.951000	0.300400	0.537600
C571	C57	0.699870	0.090230	0.542240
C581	C58	0.590150	0.080660	0.334170
C591	C59	0.649080	0.109730	0.571390
C601	C60	0.633270	0.106440	0.521170
C611	C61	0.650810	0.063860	0.321730
C621	C62	0.586070	0.078960	0.285910
C631	C63	0.586330	0.112600	0.494330
C641	C64	0.549000	0.086600	0.349400
C651	C65	0.042240	0.699870	0.590230
C661	C66	0.834170	0.590150	0.580660
C671	C67	0.071390	0.649080	0.609730
C681	C68	0.021170	0.633270	0.606440
C691	C69	0.821730	0.650810	0.563860
C701	C70	0.785910	0.586070	0.578960
C711	C71	0.994330	0.586330	0.612600
C721	C72	0.849400	0.549000	0.586600
C731	C73	0.890360	0.800130	0.842370
C741	C74	0.990510	0.909850	0.744020
C751	C75	0.960650	0.850920	0.922310
C761	C76	0.973170	0.866730	0.887900
C771	C77	0.913050	0.849190	0.670920
C781	C78	0.992890	0.913930	0.699840
C791	C79	0.026270	0.913670	0.908000
C801	C80	0.037600	0.951000	0.800400
C811	C81	0.457760	0.047990	0.657630
C821	C82	0.665830	0.246490	0.755980
C831	C83	0.428610	0.038340	0.577690
C841	C84	0.478830	0.085270	0.612100
C851	C85	0.678270	0.242130	0.829080
C861	C86	0.714090	0.293050	0.800160
C871	C87	0.505670	0.118270	0.592000
C881	C88	0.650600	0.237200	0.699600
C891	C89	0.609640	0.452010	0.909770
C901	C90	0.509490	0.253510	0.919340
C911	C91	0.539350	0.461660	0.890270
C921	C92	0.526830	0.414730	0.893560
C931	C93	0.586950	0.257870	0.936140
C941	C94	0.507110	0.206950	0.921040
C951	C95	0.473730	0.381730	0.887400
C961	C96	0.462400	0.262800	0.913400
C971	C97	0.609640	0.157630	0.199870
C981	C98	0.509490	0.255980	0.090150
C991	C99	0.539350	0.077690	0.149080
C1001	C100	0.526830	0.112100	0.133270
C1011	C101	0.586950	0.329080	0.150810
C1021	C102	0.507110	0.300160	0.086070
C1031	C103	0.473730	0.092000	0.086330
C1041	C104	0.462400	0.199600	0.049000
C1051	C105	0.457760	0.409770	0.300130
C1061	C106	0.665830	0.419340	0.409850
C1071	C107	0.428610	0.390270	0.350920
C1081	C108	0.478830	0.393560	0.366730
C1091	C109	0.678270	0.436140	0.349190
C1101	C110	0.714090	0.421040	0.413930
C1111	C111	0.505670	0.387400	0.413670
C1121	C112	0.650600	0.413400	0.451000
C1131	C113	0.890360	0.090230	0.547990
C1141	C114	0.990510	0.080660	0.746490
C1151	C115	0.960650	0.109730	0.538340
C1161	C116	0.973170	0.106440	0.585270
C1171	C117	0.913050	0.063860	0.742130
C1181	C118	0.992890	0.078960	0.793050
C1191	C119	0.026270	0.112600	0.618270
C1201	C120	0.037600	0.086600	0.737200
C1211	C121	0.042240	0.342370	0.952010
C1221	C122	0.834170	0.244020	0.753510
C1231	C123	0.071390	0.422310	0.961660
C1241	C124	0.021170	0.387900	0.914730
C1251	C125	0.821730	0.170920	0.757870
C1261	C126	0.785910	0.199840	0.706950
C1271	C127	0.994330	0.408000	0.881730
C1281	C128	0.849400	0.300400	0.762800
C1291	C129	0.090230	0.047990	0.390360
C1301	C130	0.080660	0.246490	0.490510
C1311	C131	0.109730	0.038340	0.460650
C1321	C132	0.106440	0.085270	0.473170
C1331	C133	0.063860	0.242130	0.413050
C1341	C134	0.078960	0.293050	0.492890
C1351	C135	0.112600	0.118270	0.526270
C1361	C136	0.086600	0.237200	0.537600
C1371	C137	0.342370	0.452010	0.542240
C1381	C138	0.244020	0.253510	0.334170
C1391	C139	0.422310	0.461660	0.571390
C1401	C140	0.387900	0.414730	0.521170
C1411	C141	0.170920	0.257870	0.321730
C1421	C142	0.199840	0.206950	0.285910
C1431	C143	0.408000	0.381730	0.494330
C1441	C144	0.300400	0.262800	0.349400
C1451	C145	0.157630	0.699870	0.109640
C1461	C146	0.255980	0.590150	0.009490
C1471	C147	0.077690	0.649080	0.039350
C1481	C148	0.112100	0.633270	0.026830
C1491	C149	0.329080	0.650810	0.086950
C1501	C150	0.300160	0.586070	0.007110
C1511	C151	0.092000	0.586330	0.973730
C1521	C152	0.199600	0.549000	0.962400
C1531	C153	0.409770	0.800130	0.957760
C1541	C154	0.419340	0.909850	0.165830
C1551	C155	0.390270	0.850920	0.928610
C1561	C156	0.393560	0.866730	0.978830
C1571	C157	0.436140	0.849190	0.178270
C1581	C158	0.421040	0.913930	0.214090
C1591	C159	0.387400	0.913670	0.005670
C1601	C160	0.413400	0.951000	0.150600
C1611	C161	0.800130	0.457760	0.909770
C1621	C162	0.909850	0.665830	0.919340
C1631	C163	0.850920	0.428610	0.890270
C1641	C164	0.866730	0.478830	0.893560
C1651	C165	0.849190	0.678270	0.936140
C1661	C166	0.913930	0.714090	0.921040
C1671	C167	0.913670	0.505670	0.887400
C1681	C168	0.951000	0.650600	0.913400
C1691	C169	0.699870	0.609640	0.657630
C1701	C170	0.590150	0.509490	0.755980
C1711	C171	0.649080	0.539350	0.577690
C1721	C172	0.633270	0.526830	0.612100
C1731	C173	0.650810	0.586950	0.829080
C1741	C174	0.586070	0.507110	0.800160
C1751	C175	0.586330	0.473730	0.592000
C1761	C176	0.549000	0.462400	0.699600
C1771	C177	0.452010	0.042240	0.842370
C1781	C178	0.253510	0.834170	0.744020
C1791	C179	0.461660	0.071390	0.922310
C1801	C180	0.414730	0.021170	0.887900
C1811	C181	0.257870	0.821730	0.670920
C1821	C182	0.206950	0.785910	0.699840
C1831	C183	0.381730	0.994330	0.908000
C1841	C184	0.262800	0.849400	0.800400
C1851	C185	0.047990	0.890360	0.590230
C1861	C186	0.246490	0.990510	0.580660
C1871	C187	0.038340	0.960650	0.609730
C1881	C188	0.085270	0.973170	0.606440
C1891	C189	0.242130	0.913050	0.563860
C1901	C190	0.293050	0.992890	0.578960
C1911	C191	0.118270	0.026270	0.612600
C1921	C192	0.237200	0.037600	0.586600
C1931	C193	0.657630	0.109640	0.699870
C1941	C194	0.755980	0.009490	0.590150
C1951	C195	0.577690	0.039350	0.649080
C1961	C196	0.612100	0.026830	0.633270
C1971	C197	0.829080	0.086950	0.650810
C1981	C198	0.800160	0.007110	0.586070
C1991	C199	0.592000	0.973730	0.586330
C2001	C200	0.699600	0.962400	0.549000
C2011	C201	0.909770	0.957760	0.800130
C2021	C202	0.919340	0.165830	0.909850
C2031	C203	0.890270	0.928610	0.850920
C2041	C204	0.893560	0.978830	0.866730
C2051	C205	0.936140	0.178270	0.849190
C2061	C206	0.921040	0.214090	0.913930
C2071	C207	0.887400	0.005670	0.913670
C2081	C208	0.913400	0.150600	0.951000
C2091	C209	0.590230	0.390360	0.047990
C2101	C210	0.580660	0.490510	0.246490
C2111	C211	0.609730	0.460650	0.038340
C2121	C212	0.606440	0.473170	0.085270
C2131	C213	0.563860	0.413050	0.242130
C2141	C214	0.578960	0.492890	0.293050
C2151	C215	0.612600	0.526270	0.118270
C2161	C216	0.586600	0.537600	0.237200
C2171	C217	0.842370	0.542240	0.452010
C2181	C218	0.744020	0.334170	0.253510
C2191	C219	0.922310	0.571390	0.461660
C2201	C220	0.887900	0.521170	0.414730
C2211	C221	0.670920	0.321730	0.257870
C2221	C222	0.699840	0.285910	0.206950
C2231	C223	0.908000	0.494330	0.381730
C2241	C224	0.800400	0.349400	0.262800
C2251	C225	0.547990	0.590230	0.890360
C2261	C226	0.746490	0.580660	0.990510
C2271	C227	0.538340	0.609730	0.960650
C2281	C228	0.585270	0.606440	0.973170
C2291	C229	0.742130	0.563860	0.913050
C2301	C230	0.793050	0.578960	0.992890
C2311	C231	0.618270	0.612600	0.026270
C2321	C232	0.737200	0.586600	0.037600
C2331	C233	0.952010	0.842370	0.042240
C2341	C234	0.753510	0.744020	0.834170
C2351	C235	0.961660	0.922310	0.071390
C2361	C236	0.914730	0.887900	0.021170
C2371	C237	0.757870	0.670920	0.821730
C2381	C238	0.706950	0.699840	0.785910
C2391	C239	0.881730	0.908000	0.994330
C2401	C240	0.762800	0.800400	0.849400
C2411	C241	0.199870	0.657630	0.609640
C2421	C242	0.090150	0.755980	0.509490
C2431	C243	0.149080	0.577690	0.539350
C2441	C244	0.133270	0.612100	0.526830
C2451	C245	0.150810	0.829080	0.586950
C2461	C246	0.086070	0.800160	0.507110
C2471	C247	0.086330	0.592000	0.473730
C2481	C248	0.049000	0.699600	0.462400
C2491	C249	0.300130	0.909770	0.457760
C2501	C250	0.409850	0.919340	0.665830
C2511	C251	0.350920	0.890270	0.428610
C2521	C252	0.366730	0.893560	0.478830
C2531	C253	0.349190	0.936140	0.678270
C2541	C254	0.413930	0.921040	0.714090
C2551	C255	0.413670	0.887400	0.505670
C2561	C256	0.451000	0.913400	0.650600
C2571	C257	0.957760	0.300130	0.409770
C2581	C258	0.165830	0.409850	0.419340
C2591	C259	0.928610	0.350920	0.390270
C2601	C260	0.978830	0.366730	0.393560
C2611	C261	0.178270	0.349190	0.436140
C2621	C262	0.214090	0.413930	0.421040
C2631	C263	0.005670	0.413670	0.387400
C2641	C264	0.150600	0.451000	0.413400
C2651	C265	0.109640	0.199870	0.157630
C2661	C266	0.009490	0.090150	0.255980
C2671	C267	0.039350	0.149080	0.077690
C2681	C268	0.026830	0.133270	0.112100
C2691	C269	0.086950	0.150810	0.329080
C2701	C270	0.007110	0.086070	0.300160
C2711	C271	0.973730	0.086330	0.092000
C2721	C272	0.962400	0.049000	0.199600
C2731	C273	0.542240	0.952010	0.342370
C2741	C274	0.334170	0.753510	0.244020
C2751	C275	0.571390	0.961660	0.422310
C2761	C276	0.521170	0.914730	0.387900
C2771	C277	0.321730	0.757870	0.170920
C2781	C278	0.285910	0.706950	0.199840
C2791	C279	0.494330	0.881730	0.408000
C2801	C280	0.349400	0.762800	0.300400
C2811	C281	0.390360	0.547990	0.090230
C2821	C282	0.490510	0.746490	0.080660
C2831	C283	0.460650	0.538340	0.109730
C2841	C284	0.473170	0.585270	0.106440
C2851	C285	0.413050	0.742130	0.063860
C2861	C286	0.492890	0.793050	0.078960
C2871	C287	0.526270	0.618270	0.112600
C2881	C288	0.537600	0.737200	0.086600
C2891	C289	0.390360	0.842370	0.800130
C2901	C290	0.490510	0.744020	0.909850
C2911	C291	0.460650	0.922310	0.850920
C2921	C292	0.473170	0.887900	0.866730
C2931	C293	0.413050	0.670920	0.849190
C2941	C294	0.492890	0.699840	0.913930
C2951	C295	0.526270	0.908000	0.913670
C2961	C296	0.537600	0.800400	0.951000
C2971	C297	0.542240	0.590230	0.699870
C2981	C298	0.334170	0.580660	0.590150
C2991	C299	0.571390	0.609730	0.649080
C3001	C300	0.521170	0.606440	0.633270
C3011	C301	0.321730	0.563860	0.650810
C3021	C302	0.285910	0.578960	0.586070
C3031	C303	0.494330	0.612600	0.586330
C3041	C304	0.349400	0.586600	0.549000
C3051	C305	0.109640	0.909770	0.452010
C3061	C306	0.009490	0.919340	0.253510
C3071	C307	0.039350	0.890270	0.461660
C3081	C308	0.026830	0.893560	0.414730
C3091	C309	0.086950	0.936140	0.257870
C3101	C310	0.007110	0.921040	0.206950
C3111	C311	0.973730	0.887400	0.381730
C3121	C312	0.962400	0.913400	0.262800
C3131	C313	0.957760	0.657630	0.047990
C3141	C314	0.165830	0.755980	0.246490
C3151	C315	0.928610	0.577690	0.038340
C3161	C316	0.978830	0.612100	0.085270
C3171	C317	0.178270	0.829080	0.242130
C3181	C318	0.214090	0.800160	0.293050
C3191	C319	0.005670	0.592000	0.118270
C3201	C320	0.150600	0.699600	0.237200
C3211	C321	0.909770	0.952010	0.609640
C3221	C322	0.919340	0.753510	0.509490
C3231	C323	0.890270	0.961660	0.539350
C3241	C324	0.893560	0.914730	0.526830
C3251	C325	0.936140	0.757870	0.586950
C3261	C326	0.921040	0.706950	0.507110
C3271	C327	0.887400	0.881730	0.473730
C3281	C328	0.913400	0.762800	0.462400
C3291	C329	0.657630	0.547990	0.457760
C3301	C330	0.755980	0.746490	0.665830
C3311	C331	0.577690	0.538340	0.428610
C3321	C332	0.612100	0.585270	0.478830
C3331	C333	0.829080	0.742130	0.678270
C3341	C334	0.800160	0.793050	0.714090
C3351	C335	0.592000	0.618270	0.505670
C3361	C336	0.699600	0.737200	0.650600
C3371	C337	0.842370	0.300130	0.890360
C3381	C338	0.744020	0.409850	0.990510
C3391	C339	0.922310	0.350920	0.960650
C3401	C340	0.887900	0.366730	0.973170
C3411	C341	0.670920	0.349190	0.913050
C3421	C342	0.699840	0.413930	0.992890
C3431	C343	0.908000	0.413670	0.026270
C3441	C344	0.800400	0.451000	0.037600
C3451	C345	0.590230	0.199870	0.042240
C3461	C346	0.580660	0.090150	0.834170
C3471	C347	0.609730	0.149080	0.071390
C3481	C348	0.606440	0.133270	0.021170
C3491	C349	0.563860	0.150810	0.821730
C3501	C350	0.578960	0.086070	0.785910
C3511	C351	0.612600	0.086330	0.994330
C3521	C352	0.586600	0.049000	0.849400
C3531	C353	0.199870	0.542240	0.090230
C3541	C354	0.090150	0.334170	0.080660
C3551	C355	0.149080	0.571390	0.109730
C3561	C356	0.133270	0.521170	0.106440
C3571	C357	0.150810	0.321730	0.063860
C3581	C358	0.086070	0.285910	0.078960
C3591	C359	0.086330	0.494330	0.112600
C3601	C360	0.049000	0.349400	0.086600
C3611	C361	0.300130	0.390360	0.342370
C3621	C362	0.409850	0.490510	0.244020
C3631	C363	0.350920	0.460650	0.422310
C3641	C364	0.366730	0.473170	0.387900
C3651	C365	0.349190	0.413050	0.170920
C3661	C366	0.413930	0.492890	0.199840
C3671	C367	0.413670	0.526270	0.408000
C3681	C368	0.451000	0.537600	0.300400
C3691	C369	0.547990	0.957760	0.157630
C3701	C370	0.746490	0.165830	0.255980
C3711	C371	0.538340	0.928610	0.077690
C3721	C372	0.585270	0.978830	0.112100
C3731	C373	0.742130	0.178270	0.329080
C3741	C374	0.793050	0.214090	0.300160
C3751	C375	0.618270	0.005670	0.092000
C3761	C376	0.737200	0.150600	0.199600
C3771	C377	0.952010	0.109640	0.409770
C3781	C378	0.753510	0.009490	0.419340
C3791	C379	0.961660	0.039350	0.390270
C3801	C380	0.914730	0.026830	0.393560
C3811	C381	0.757870	0.086950	0.436140
C3821	C382	0.706950	0.007110	0.421040
C3831	C383	0.881730	0.973730	0.387400
C3841	C384	0.762800	0.962400	0.413400
N11	N1	0.336100	0.927630	0.333370
N21	N2	0.393620	0.908270	0.308810
N31	N3	0.224740	0.939210	0.367970
N41	N4	0.153730	0.944320	0.375370
N51	N5	0.327300	0.006950	0.410050
N61	N6	0.383260	0.044850	0.436970
N71	N7	0.094260	0.002730	0.166630
N81	N8	0.099460	0.084810	0.191190
N91	N9	0.071240	0.856770	0.132030
N101	N10	0.068950	0.778360	0.124630
N111	N11	0.096900	0.917250	0.089950
N121	N12	0.107880	0.946290	0.063030
N131	N13	0.405740	0.572370	0.908470
N141	N14	0.400540	0.591730	0.985350
N151	N15	0.428760	0.560790	0.785530
N161	N16	0.431050	0.555680	0.709410
N171	N17	0.403100	0.493050	0.820350
N181	N18	0.392120	0.455150	0.838410
N191	N19	0.163900	0.497270	0.591530
N201	N20	0.106380	0.415190	0.514650
N211	N21	0.275260	0.643230	0.714470
N221	N22	0.346270	0.721640	0.790590
N231	N23	0.172700	0.582750	0.679650
N241	N24	0.116740	0.553710	0.661590
N251	N25	0.408470	0.405740	0.072370
N261	N26	0.485350	0.400540	0.091730
N271	N27	0.285530	0.428760	0.060790
N281	N28	0.209410	0.431050	0.055680
N291	N29	0.320350	0.403100	0.993050
N301	N30	0.338410	0.392120	0.955150
N311	N31	0.091530	0.163900	0.997270
N321	N32	0.014650	0.106380	0.915190
N331	N33	0.214470	0.275260	0.143230
N341	N34	0.290590	0.346270	0.221640
N351	N35	0.179650	0.172700	0.082750
N361	N36	0.161590	0.116740	0.053710
N371	N37	0.833370	0.336100	0.427630
N381	N38	0.808810	0.393620	0.408270
N391	N39	0.867970	0.224740	0.439210
N401	N40	0.875370	0.153730	0.444320
N411	N41	0.910050	0.327300	0.506950
N421	N42	0.936970	0.383260	0.544850
N431	N43	0.666630	0.094260	0.502730
N441	N44	0.691190	0.099460	0.584810
N451	N45	0.632030	0.071240	0.356770
N461	N46	0.624630	0.068950	0.278360
N471	N47	0.589950	0.096900	0.417250
N481	N48	0.563030	0.107880	0.446290
N491	N49	0.002730	0.666630	0.594260
N501	N50	0.084810	0.691190	0.599460
N511	N51	0.856770	0.632030	0.571240
N521	N52	0.778360	0.624630	0.568950
N531	N53	0.917250	0.589950	0.596900
N541	N54	0.946290	0.563030	0.607880
N551	N55	0.927630	0.833370	0.836100
N561	N56	0.908270	0.808810	0.893620
N571	N57	0.939210	0.867970	0.724740
N581	N58	0.944320	0.875370	0.653730
N591	N59	0.006950	0.910050	0.827300
N601	N60	0.044850	0.936970	0.883260
N611	N61	0.497270	0.091530	0.663900
N621	N62	0.415190	0.014650	0.606380
N631	N63	0.643230	0.214470	0.775260
N641	N64	0.721640	0.290590	0.846270
N651	N65	0.582750	0.179650	0.672700
N661	N66	0.553710	0.161590	0.616740
N671	N67	0.572370	0.408470	0.905740
N681	N68	0.591730	0.485350	0.900540
N691	N69	0.560790	0.285530	0.928760
N701	N70	0.555680	0.209410	0.931050
N711	N71	0.493050	0.320350	0.903100
N721	N72	0.455150	0.338410	0.892120
N731	N73	0.572370	0.163900	0.166630
N741	N74	0.591730	0.106380	0.191190
N751	N75	0.560790	0.275260	0.132030
N761	N76	0.555680	0.346270	0.124630
N771	N77	0.493050	0.172700	0.089950
N781	N78	0.455150	0.116740	0.063030
N791	N79	0.497270	0.405740	0.333370
N801	N80	0.415190	0.400540	0.308810
N811	N81	0.643230	0.428760	0.367970
N821	N82	0.721640	0.431050	0.375370
N831	N83	0.582750	0.403100	0.410050
N841	N84	0.553710	0.392120	0.436970
N851	N85	0.927630	0.094260	0.591530
N861	N86	0.908270	0.099460	0.514650
N871	N87	0.939210	0.071240	0.714470
N881	N88	0.944320	0.068950	0.790590
N891	N89	0.006950	0.096900	0.679650
N901	N90	0.044850	0.107880	0.661590
N911	N91	0.002730	0.336100	0.908470
N921	N92	0.084810	0.393620	0.985350
N931	N93	0.856770	0.224740	0.785530
N941	N94	0.778360	0.153730	0.709410
N951	N95	0.917250	0.327300	0.820350
N961	N96	0.946290	0.383260	0.838410
N971	N97	0.094260	0.091530	0.427630
N981	N98	0.099460	0.014650	0.408270
N991	N99	0.071240	0.214470	0.439210
N1001	N100	0.068950	0.290590	0.444320
N1011	N101	0.096900	0.179650	0.506950
N1021	N102	0.107880	0.161590	0.544850
N1031	N103	0.336100	0.408470	0.502730
N1041	N104	0.393620	0.485350	0.584810
N1051	N105	0.224740	0.285530	0.356770
N1061	N106	0.153730	0.209410	0.278360
N1071	N107	0.327300	0.320350	0.417250
N1081	N108	0.383260	0.338410	0.446290
N1091	N109	0.163900	0.666630	0.072370
N1101	N110	0.106380	0.691190	0.091730
N1111	N111	0.275260	0.632030	0.060790
N1121	N112	0.346270	0.624630	0.055680
N1131	N113	0.172700	0.589950	0.993050
N1141	N114	0.116740	0.563030	0.955150
N1151	N115	0.405740	0.833370	0.997270
N1161	N116	0.400540	0.808810	0.915190
N1171	N117	0.428760	0.867970	0.143230
N1181	N118	0.431050	0.875370	0.221640
N1191	N119	0.403100	0.910050	0.082750
N1201	N120	0.392120	0.936970	0.053710
N1211	N121	0.833370	0.497270	0.905740
N1221	N122	0.808810	0.415190	0.900540
N1231	N123	0.867970	0.643230	0.928760
N1241	N124	0.875370	0.721640	0.931050
N1251	N125	0.910050	0.582750	0.903100
N1261	N126	0.936970	0.553710	0.892120
N1271	N127	0.666630	0.572370	0.663900
N1281	N128	0.691190	0.591730	0.606380
N1291	N129	0.632030	0.560790	0.775260
N1301	N130	0.624630	0.555680	0.846270
N1311	N131	0.589950	0.493050	0.672700
N1321	N132	0.563030	0.455150	0.616740
N1331	N133	0.408470	0.002730	0.836100
N1341	N134	0.485350	0.084810	0.893620
N1351	N135	0.285530	0.856770	0.724740
N1361	N136	0.209410	0.778360	0.653730
N1371	N137	0.320350	0.917250	0.827300
N1381	N138	0.338410	0.946290	0.883260
N1391	N139	0.091530	0.927630	0.594260
N1401	N140	0.014650	0.908270	0.599460
N1411	N141	0.214470	0.939210	0.571240
N1421	N142	0.290590	0.944320	0.568950
N1431	N143	0.179650	0.006950	0.596900
N1441	N144	0.161590	0.044850	0.607880
N1451	N145	0.663900	0.072370	0.666630
N1461	N146	0.606380	0.091730	0.691190
N1471	N147	0.775260	0.060790	0.632030
N1481	N148	0.846270	0.055680	0.624630
N1491	N149	0.672700	0.993050	0.589950
N1501	N150	0.616740	0.955150	0.563030
N1511	N151	0.905740	0.997270	0.833370
N1521	N152	0.900540	0.915190	0.808810
N1531	N153	0.928760	0.143230	0.867970
N1541	N154	0.931050	0.221640	0.875370
N1551	N155	0.903100	0.082750	0.910050
N1561	N156	0.892120	0.053710	0.936970
N1571	N157	0.594260	0.427630	0.091530
N1581	N158	0.599460	0.408270	0.014650
N1591	N159	0.571240	0.439210	0.214470
N1601	N160	0.568950	0.444320	0.290590
N1611	N161	0.596900	0.506950	0.179650
N1621	N162	0.607880	0.544850	0.161590
N1631	N163	0.836100	0.502730	0.408470
N1641	N164	0.893620	0.584810	0.485350
N1651	N165	0.724740	0.356770	0.285530
N1661	N166	0.653730	0.278360	0.209410
N1671	N167	0.827300	0.417250	0.320350
N1681	N168	0.883260	0.446290	0.338410
N1691	N169	0.591530	0.594260	0.927630
N1701	N170	0.514650	0.599460	0.908270
N1711	N171	0.714470	0.571240	0.939210
N1721	N172	0.790590	0.568950	0.944320
N1731	N173	0.679650	0.596900	0.006950
N1741	N174	0.661590	0.607880	0.044850
N1751	N175	0.908470	0.836100	0.002730
N1761	N176	0.985350	0.893620	0.084810
N1771	N177	0.785530	0.724740	0.856770
N1781	N178	0.709410	0.653730	0.778360
N1791	N179	0.820350	0.827300	0.917250
N1801	N180	0.838410	0.883260	0.946290
N1811	N181	0.166630	0.663900	0.572370
N1821	N182	0.191190	0.606380	0.591730
N1831	N183	0.132030	0.775260	0.560790
N1841	N184	0.124630	0.846270	0.555680
N1851	N185	0.089950	0.672700	0.493050
N1861	N186	0.063030	0.616740	0.455150
N1871	N187	0.333370	0.905740	0.497270
N1881	N188	0.308810	0.900540	0.415190
N1891	N189	0.367970	0.928760	0.643230
N1901	N190	0.375370	0.931050	0.721640
N1911	N191	0.410050	0.903100	0.582750
N1921	N192	0.436970	0.892120	0.553710
N1931	N193	0.997270	0.333370	0.405740
N1941	N194	0.915190	0.308810	0.400540
N1951	N195	0.143230	0.367970	0.428760
N1961	N196	0.221640	0.375370	0.431050
N1971	N197	0.082750	0.410050	0.403100
N1981	N198	0.053710	0.436970	0.392120
N1991	N199	0.072370	0.166630	0.163900
N2001	N200	0.091730	0.191190	0.106380
N2011	N201	0.060790	0.132030	0.275260
N2021	N202	0.055680	0.124630	0.346270
N2031	N203	0.993050	0.089950	0.172700
N2041	N204	0.955150	0.063030	0.116740
N2051	N205	0.502730	0.908470	0.336100
N2061	N206	0.584810	0.985350	0.393620
N2071	N207	0.356770	0.785530	0.224740
N2081	N208	0.278360	0.709410	0.153730
N2091	N209	0.417250	0.820350	0.327300
N2101	N210	0.446290	0.838410	0.383260
N2111	N211	0.427630	0.591530	0.094260
N2121	N212	0.408270	0.514650	0.099460
N2131	N213	0.439210	0.714470	0.071240
N2141	N214	0.444320	0.790590	0.068950
N2151	N215	0.506950	0.679650	0.096900
N2161	N216	0.544850	0.661590	0.107880
N2171	N217	0.427630	0.836100	0.833370
N2181	N218	0.408270	0.893620	0.808810
N2191	N219	0.439210	0.724740	0.867970
N2201	N220	0.444320	0.653730	0.875370
N2211	N221	0.506950	0.827300	0.910050
N2221	N222	0.544850	0.883260	0.936970
N2231	N223	0.502730	0.594260	0.666630
N2241	N224	0.584810	0.599460	0.691190
N2251	N225	0.356770	0.571240	0.632030
N2261	N226	0.278360	0.568950	0.624630
N2271	N227	0.417250	0.596900	0.589950
N2281	N228	0.446290	0.607880	0.563030
N2291	N229	0.072370	0.905740	0.408470
N2301	N230	0.091730	0.900540	0.485350
N2311	N231	0.060790	0.928760	0.285530
N2321	N232	0.055680	0.931050	0.209410
N2331	N233	0.993050	0.903100	0.320350
N2341	N234	0.955150	0.892120	0.338410
N2351	N235	0.997270	0.663900	0.091530
N2361	N236	0.915190	0.606380	0.014650
N2371	N237	0.143230	0.775260	0.214470
N2381	N238	0.221640	0.846270	0.290590
N2391	N239	0.082750	0.672700	0.179650
N2401	N240	0.053710	0.616740	0.161590
N2411	N241	0.905740	0.908470	0.572370
N2421	N242	0.900540	0.985350	0.591730
N2431	N243	0.928760	0.785530	0.560790
N2441	N244	0.931050	0.709410	0.555680
N2451	N245	0.903100	0.820350	0.493050
N2461	N246	0.892120	0.838410	0.455150
N2471	N247	0.663900	0.591530	0.497270
N2481	N248	0.606380	0.514650	0.415190
N2491	N249	0.775260	0.714470	0.643230
N2501	N250	0.846270	0.790590	0.721640
N2511	N251	0.672700	0.679650	0.582750
N2521	N252	0.616740	0.661590	0.553710
N2531	N253	0.836100	0.333370	0.927630
N2541	N254	0.893620	0.308810	0.908270
N2551	N255	0.724740	0.367970	0.939210
N2561	N256	0.653730	0.375370	0.944320
N2571	N257	0.827300	0.410050	0.006950
N2581	N258	0.883260	0.436970	0.044850
N2591	N259	0.594260	0.166630	0.002730
N2601	N260	0.599460	0.191190	0.084810
N2611	N261	0.571240	0.132030	0.856770
N2621	N262	0.568950	0.124630	0.778360
N2631	N263	0.596900	0.089950	0.917250
N2641	N264	0.607880	0.063030	0.946290
N2651	N265	0.166630	0.502730	0.094260
N2661	N266	0.191190	0.584810	0.099460
N2671	N267	0.132030	0.356770	0.071240
N2681	N268	0.124630	0.278360	0.068950
N2691	N269	0.089950	0.417250	0.096900
N2701	N270	0.063030	0.446290	0.107880
N2711	N271	0.333370	0.427630	0.336100
N2721	N272	0.308810	0.408270	0.393620
N2731	N273	0.367970	0.439210	0.224740
N2741	N274	0.375370	0.444320	0.153730
N2751	N275	0.410050	0.506950	0.327300
N2761	N276	0.436970	0.544850	0.383260
N2771	N277	0.591530	0.997270	0.163900
N2781	N278	0.514650	0.915190	0.106380
N2791	N279	0.714470	0.143230	0.275260
N2801	N280	0.790590	0.221640	0.346270
N2811	N281	0.679650	0.082750	0.172700
N2821	N282	0.661590	0.053710	0.116740
N2831	N283	0.908470	0.072370	0.405740
N2841	N284	0.985350	0.091730	0.400540
N2851	N285	0.785530	0.060790	0.428760
N2861	N286	0.709410	0.055680	0.431050
N2871	N287	0.820350	0.993050	0.403100
N2881	N288	0.838410	0.955150	0.392120
