data_YARDEC_freeONLY_PM
_symmetry_space_group_name_H-M	'P1'
_cell_length_a	11.548000
_cell_length_b	11.797300
_cell_length_c	14.061700
_cell_angle_alpha	112.924000
_cell_angle_beta	90.000000
_cell_angle_gamma	119.303000
_symmetry_Int_Tables_number 1

loop_
_symmetry_equiv_pos_as_xyz
'x,y,z'

loop_
_atom_site_label
_atom_site_type_symbol
_atom_site_fract_x
_atom_site_fract_y
_atom_site_fract_z
Zn11	Zn1	0.011750	0.000000	0.750000
Zn21	Zn2	0.988250	0.000000	0.250000
H11	H1	0.945000	0.161400	0.965400
H21	H2	0.802800	0.744200	0.804200
H31	H3	0.699000	0.776400	0.956400
H41	H4	0.759200	0.023600	0.135400
H51	H5	0.831400	0.167000	0.121500
H61	H6	0.698100	0.200600	0.007000
H71	H7	0.512700	0.854800	0.066200
H81	H8	0.457300	0.296000	0.850700
H91	H9	0.321800	0.529600	0.049800
H101	H10	0.783600	0.838600	0.534600
H111	H11	0.058600	0.255800	0.695800
H121	H12	0.922600	0.223600	0.543600
H131	H13	0.735600	0.976400	0.364600
H141	H14	0.664400	0.833000	0.378500
H151	H15	0.497500	0.799400	0.493000
H161	H16	0.657900	0.145200	0.433800
H171	H17	0.161300	0.704000	0.649300
H181	H18	0.792200	0.470400	0.450200
H191	H19	0.055000	0.838600	0.034600
H201	H20	0.197200	0.255800	0.195800
H211	H21	0.301000	0.223600	0.043600
H221	H22	0.240800	0.976400	0.864600
H231	H23	0.168600	0.833000	0.878500
H241	H24	0.301900	0.799400	0.993000
H251	H25	0.487300	0.145200	0.933800
H261	H26	0.542700	0.704000	0.149300
H271	H27	0.678200	0.470400	0.950200
H281	H28	0.216400	0.161400	0.465400
H291	H29	0.941400	0.744200	0.304200
H301	H30	0.077400	0.776400	0.456400
H311	H31	0.264400	0.023600	0.635400
H321	H32	0.335600	0.167000	0.621500
H331	H33	0.502500	0.200600	0.507000
H341	H34	0.342100	0.854800	0.566200
H351	H35	0.838700	0.296000	0.350700
H361	H36	0.207800	0.529600	0.549800
C11	C1	0.897250	0.061740	0.943750
C21	C2	0.818600	0.832400	0.855520
C31	C3	0.761020	0.849240	0.939500
C41	C4	0.765900	0.063040	0.085200
C51	C5	0.627340	0.033300	0.044750
C61	C6	0.618870	0.119940	0.004500
C71	C7	0.507980	0.913760	0.039600
C81	C8	0.221410	0.278420	0.878990
C91	C9	0.366000	0.394460	0.940180
C101	C10	0.474300	0.377900	0.910770
C111	C11	0.393230	0.517420	0.029660
C121	C12	0.835510	0.938260	0.556250
C131	C13	0.986200	0.167600	0.644480
C141	C14	0.911780	0.150760	0.560500
C151	C15	0.702860	0.936960	0.414800
C161	C16	0.594040	0.966700	0.455250
C171	C17	0.498930	0.880060	0.495500
C181	C18	0.594220	0.086240	0.460400
C191	C19	0.942990	0.721580	0.621010
C201	C20	0.971540	0.605540	0.559820
C211	C21	0.096400	0.622100	0.589230
C221	C22	0.875810	0.482580	0.470340
C231	C23	0.102750	0.938260	0.056250
C241	C24	0.181400	0.167600	0.144480
C251	C25	0.238980	0.150760	0.060500
C261	C26	0.234100	0.936960	0.914800
C271	C27	0.372660	0.966700	0.955250
C281	C28	0.381130	0.880060	0.995500
C291	C29	0.492020	0.086240	0.960400
C301	C30	0.778590	0.721580	0.121010
C311	C31	0.634000	0.605540	0.059820
C321	C32	0.525700	0.622100	0.089230
C331	C33	0.606770	0.482580	0.970340
C341	C34	0.164490	0.061740	0.443750
C351	C35	0.013800	0.832400	0.355520
C361	C36	0.088220	0.849240	0.439500
C371	C37	0.297140	0.063040	0.585200
C381	C38	0.405960	0.033300	0.544750
C391	C39	0.501070	0.119940	0.504500
C401	C40	0.405780	0.913760	0.539600
C411	C41	0.057010	0.278420	0.378990
C421	C42	0.028460	0.394460	0.440180
C431	C43	0.903600	0.377900	0.410770
C441	C44	0.124190	0.517420	0.529660
N11	N1	0.904500	0.965920	0.857490
N21	N2	0.812110	0.995040	0.994710
N31	N3	0.938580	0.034080	0.642510
N41	N4	0.817070	0.004960	0.505290
N51	N5	0.095500	0.034080	0.142510
N61	N6	0.187890	0.004960	0.005290
N71	N7	0.061420	0.965920	0.357490
N81	N8	0.182930	0.995040	0.494710
O11	O1	0.204150	0.156700	0.813890
O21	O2	0.128920	0.303280	0.894640
O31	O3	0.047450	0.843300	0.686110
O41	O4	0.825640	0.696720	0.605360
O51	O5	0.795850	0.843300	0.186110
O61	O6	0.871080	0.696720	0.105360
O71	O7	0.952550	0.156700	0.313890
O81	O8	0.174360	0.303280	0.394640
