data_YARYEV_freeONLY_PM
_symmetry_space_group_name_H-M	'P1'
_cell_length_a	8.569200
_cell_length_b	8.569200
_cell_length_c	14.621000
_cell_angle_alpha	90.687000
_cell_angle_beta	90.687000
_cell_angle_gamma	90.524800
_symmetry_Int_Tables_number 1

loop_
_symmetry_equiv_pos_as_xyz
'x,y,z'

loop_
_atom_site_label
_atom_site_type_symbol
_atom_site_fract_x
_atom_site_fract_y
_atom_site_fract_z
Cd11	Cd1	0.493480	0.506520	0.750000
Cd21	Cd2	0.506520	0.493480	0.250000
Cd31	Cd3	0.000000	0.500000	0.000000
Cd41	Cd4	0.500000	0.000000	0.500000
H11	H1	0.099640	0.186700	0.950580
H21	H2	0.892030	0.188790	0.946390
H31	H3	0.991500	0.174000	0.053440
H41	H4	0.813300	0.900360	0.549420
H51	H5	0.811210	0.107970	0.553610
H61	H6	0.826000	0.008500	0.446560
H71	H7	0.900360	0.813300	0.049420
H81	H8	0.107970	0.811210	0.053610
H91	H9	0.008500	0.826000	0.946560
H101	H10	0.186700	0.099640	0.450580
H111	H11	0.188790	0.892030	0.446390
H121	H12	0.174000	0.991500	0.553440
C11	C1	0.285900	0.507100	0.836400
C21	C2	0.491600	0.301000	0.658600
C31	C3	0.492900	0.714100	0.663600
C41	C4	0.699000	0.508400	0.841400
C51	C5	0.714100	0.492900	0.163600
C61	C6	0.508400	0.699000	0.341400
C71	C7	0.507100	0.285900	0.336400
C81	C8	0.301000	0.491600	0.158600
N11	N1	0.183500	0.511500	0.883900
N21	N2	0.199600	0.490200	0.108500
N31	N3	0.995100	0.225500	0.985700
N41	N4	0.488500	0.816500	0.616100
N51	N5	0.509800	0.800400	0.391500
N61	N6	0.774500	0.004900	0.514300
N71	N7	0.816500	0.488500	0.116100
N81	N8	0.800400	0.509800	0.891500
N91	N9	0.004900	0.774500	0.014300
N101	N10	0.511500	0.183500	0.383900
N111	N11	0.490200	0.199600	0.608500
N121	N12	0.225500	0.995100	0.485700
