data_YARYOF_freeONLY_PM
_symmetry_space_group_name_H-M	'P1'
_cell_length_a	8.176800
_cell_length_b	8.176800
_cell_length_c	15.837000
_cell_angle_alpha	91.388200
_cell_angle_beta	91.388200
_cell_angle_gamma	95.202800
_symmetry_Int_Tables_number 1

loop_
_symmetry_equiv_pos_as_xyz
'x,y,z'

loop_
_atom_site_label
_atom_site_type_symbol
_atom_site_fract_x
_atom_site_fract_y
_atom_site_fract_z
Cd11	Cd1	0.492690	0.514110	0.749560
Cd21	Cd2	0.003670	0.496330	0.000000
Cd31	Cd3	0.514110	0.492690	0.249560
Cd41	Cd4	0.496330	0.003670	0.500000
H11	H1	0.819510	0.196110	0.959580
H21	H2	0.000770	0.208070	0.899210
H31	H3	0.147820	0.122180	0.018400
H41	H4	0.960860	0.100460	0.073990
H51	H5	0.042440	0.899280	0.920280
H61	H6	0.855410	0.877590	0.975810
H71	H7	0.000130	0.790930	0.092160
H81	H8	0.179930	0.801070	0.030700
H91	H9	0.196110	0.819510	0.459580
H101	H10	0.208070	0.000770	0.399210
H111	H11	0.122180	0.147820	0.518400
H121	H12	0.100460	0.960860	0.573990
H131	H13	0.899280	0.042440	0.420280
H141	H14	0.877590	0.855410	0.475810
H151	H15	0.790930	0.000130	0.592160
H161	H16	0.801070	0.179930	0.530700
C11	C1	0.286700	0.503300	0.838200
C21	C2	0.729400	0.479800	0.164200
C31	C3	0.481100	0.307500	0.653100
C41	C4	0.698800	0.530600	0.843000
C51	C5	0.016200	0.087200	0.012500
C61	C6	0.987100	0.912500	0.981700
C71	C7	0.503300	0.286700	0.338200
C81	C8	0.479800	0.729400	0.664200
C91	C9	0.307500	0.481100	0.153100
C101	C10	0.530600	0.698800	0.343000
C111	C11	0.087200	0.016200	0.512500
C121	C12	0.912500	0.987100	0.481700
N11	N1	0.184400	0.507000	0.890700
N21	N2	0.812000	0.478600	0.111100
N31	N3	0.471600	0.211000	0.601200
N41	N4	0.796200	0.534400	0.896400
N51	N5	0.953300	0.213900	0.962800
N61	N6	0.046100	0.786300	0.028200
N71	N7	0.507000	0.184400	0.390700
N81	N8	0.478600	0.812000	0.611100
N91	N9	0.211000	0.471600	0.101200
N101	N10	0.534400	0.796200	0.396400
N111	N11	0.213900	0.953300	0.462800
N121	N12	0.786300	0.046100	0.528200
