data_YASNAJ_freeONLY_PM
_symmetry_space_group_name_H-M	'P1'
_cell_length_a	15.616700
_cell_length_b	15.616700
_cell_length_c	16.717800
_cell_angle_alpha	100.835000
_cell_angle_beta	100.835000
_cell_angle_gamma	119.905000
_symmetry_Int_Tables_number 1

loop_
_symmetry_equiv_pos_as_xyz
'x,y,z'

loop_
_atom_site_label
_atom_site_type_symbol
_atom_site_fract_x
_atom_site_fract_y
_atom_site_fract_z
Co11	Co1	0.504950	0.068770	0.620810
Co21	Co2	0.931230	0.495050	0.879190
Co31	Co3	0.495050	0.931230	0.379190
Co41	Co4	0.068770	0.504950	0.120810
H11	H1	0.662800	0.304400	0.653900
H21	H2	0.668300	0.452700	0.657600
H31	H3	0.357200	0.285400	0.579800
H41	H4	0.359300	0.139300	0.575200
H51	H5	0.649900	0.566300	0.601100
H61	H6	0.647300	0.711900	0.603500
H71	H7	0.374300	0.579100	0.646100
H81	H8	0.378600	0.434000	0.646800
H91	H9	0.663200	0.863600	0.677800
H101	H10	0.655300	0.005300	0.679500
H111	H11	0.353300	0.830500	0.580500
H121	H12	0.352400	0.683800	0.575500
H131	H13	0.775600	0.045800	0.463100
H141	H14	0.949400	0.135600	0.474100
H151	H15	0.008300	0.376900	0.662100
H161	H16	0.835200	0.283800	0.656400
H171	H17	0.106400	0.249800	0.402500
H181	H18	0.086600	0.295400	0.280700
H191	H19	0.127600	0.558200	0.419600
H201	H20	0.142400	0.511800	0.540600
H211	H21	0.695600	0.337200	0.846100
H221	H22	0.547300	0.331700	0.842400
H231	H23	0.714600	0.642800	0.920200
H241	H24	0.860700	0.640700	0.924800
H251	H25	0.433700	0.350100	0.898900
H261	H26	0.288100	0.352700	0.896500
H271	H27	0.420900	0.625700	0.853900
H281	H28	0.566000	0.621400	0.853200
H291	H29	0.136400	0.336800	0.822200
H301	H30	0.994700	0.344700	0.820500
H311	H31	0.169500	0.646700	0.919500
H321	H32	0.316200	0.647600	0.924500
H331	H33	0.954200	0.224400	0.036900
H341	H34	0.864400	0.050600	0.025900
H351	H35	0.623100	0.991700	0.837900
H361	H36	0.716200	0.164800	0.843600
H371	H37	0.750200	0.893600	0.097500
H381	H38	0.704600	0.913400	0.219300
H391	H39	0.441800	0.872400	0.080400
H401	H40	0.488200	0.857600	0.959400
H411	H41	0.337200	0.695600	0.346100
H421	H42	0.331700	0.547300	0.342400
H431	H43	0.642800	0.714600	0.420200
H441	H44	0.640700	0.860700	0.424800
H451	H45	0.350100	0.433700	0.398900
H461	H46	0.352700	0.288100	0.396500
H471	H47	0.625700	0.420900	0.353900
H481	H48	0.621400	0.566000	0.353200
H491	H49	0.336800	0.136400	0.322200
H501	H50	0.344700	0.994700	0.320500
H511	H51	0.646700	0.169500	0.419500
H521	H52	0.647600	0.316200	0.424500
H531	H53	0.224400	0.954200	0.536900
H541	H54	0.050600	0.864400	0.525900
H551	H55	0.991700	0.623100	0.337900
H561	H56	0.164800	0.716200	0.343600
H571	H57	0.893600	0.750200	0.597500
H581	H58	0.913400	0.704600	0.719300
H591	H59	0.872400	0.441800	0.580400
H601	H60	0.857600	0.488200	0.459400
H611	H61	0.304400	0.662800	0.153900
H621	H62	0.452700	0.668300	0.157600
H631	H63	0.285400	0.357200	0.079800
H641	H64	0.139300	0.359300	0.075200
H651	H65	0.566300	0.649900	0.101100
H661	H66	0.711900	0.647300	0.103500
H671	H67	0.579100	0.374300	0.146100
H681	H68	0.434000	0.378600	0.146800
H691	H69	0.863600	0.663200	0.177800
H701	H70	0.005300	0.655300	0.179500
H711	H71	0.830500	0.353300	0.080500
H721	H72	0.683800	0.352400	0.075500
H731	H73	0.045800	0.775600	0.963100
H741	H74	0.135600	0.949400	0.974100
H751	H75	0.376900	0.008300	0.162100
H761	H76	0.283800	0.835200	0.156400
H771	H77	0.249800	0.106400	0.902500
H781	H78	0.295400	0.086600	0.780700
H791	H79	0.558200	0.127600	0.919600
H801	H80	0.511800	0.142400	0.040600
C11	C1	0.599950	0.300050	0.638600
C21	C2	0.603890	0.389710	0.641100
C31	C3	0.512820	0.387780	0.619500
C41	C4	0.420890	0.291510	0.595000
C51	C5	0.422900	0.203700	0.593000
C61	C6	0.513190	0.483010	0.622500
C71	C7	0.594010	0.568390	0.610300
C81	C8	0.592350	0.655650	0.611700
C91	C9	0.510420	0.661380	0.625100
C101	C10	0.430470	0.577130	0.637400
C111	C11	0.432680	0.489520	0.637000
C121	C12	0.508600	0.755200	0.626100
C131	C13	0.598510	0.854290	0.657100
C141	C14	0.593180	0.939420	0.657600
C151	C15	0.416990	0.837410	0.599800
C161	C16	0.415730	0.748670	0.597000
C171	C17	0.674450	0.096150	0.552600
C181	C18	0.788220	0.155180	0.559590
C191	C19	0.822760	0.111840	0.504300
C201	C20	0.925550	0.165450	0.510000
C211	C21	0.993800	0.264800	0.569700
C221	C22	0.961300	0.309500	0.623100
C231	C23	0.857920	0.254280	0.619100
C241	C24	0.123640	0.375960	0.483500
C251	C25	0.108920	0.311080	0.405500
C261	C26	0.097980	0.339020	0.333300
C271	C27	0.103630	0.430370	0.337200
C281	C28	0.121710	0.495290	0.416000
C291	C29	0.131040	0.467960	0.488100
C301	C30	0.088510	0.458290	0.256600
C311	C31	0.699950	0.400050	0.861400
C321	C32	0.610290	0.396110	0.858900
C331	C33	0.612220	0.487180	0.880500
C341	C34	0.708490	0.579110	0.905000
C351	C35	0.796300	0.577100	0.907000
C361	C36	0.516990	0.486810	0.877500
C371	C37	0.431610	0.405990	0.889700
C381	C38	0.344350	0.407650	0.888300
C391	C39	0.338620	0.489580	0.874900
C401	C40	0.422870	0.569530	0.862600
C411	C41	0.510480	0.567320	0.863000
C421	C42	0.244800	0.491400	0.873900
C431	C43	0.145710	0.401490	0.842900
C441	C44	0.060580	0.406820	0.842400
C451	C45	0.162590	0.583010	0.900200
C461	C46	0.251330	0.584270	0.903000
C471	C47	0.903850	0.325550	0.947400
C481	C48	0.844820	0.211780	0.940410
C491	C49	0.888160	0.177240	0.995700
C501	C50	0.834550	0.074450	0.990000
C511	C51	0.735200	0.006200	0.930300
C521	C52	0.690500	0.038700	0.876900
C531	C53	0.745720	0.142080	0.880900
C541	C54	0.624040	0.876360	0.016500
C551	C55	0.688920	0.891080	0.094500
C561	C56	0.660980	0.902020	0.166700
C571	C57	0.569630	0.896370	0.162800
C581	C58	0.504710	0.878290	0.084000
C591	C59	0.532040	0.868960	0.011900
C601	C60	0.541710	0.911490	0.243400
C611	C61	0.400050	0.699950	0.361400
C621	C62	0.396110	0.610290	0.358900
C631	C63	0.487180	0.612220	0.380500
C641	C64	0.579110	0.708490	0.405000
C651	C65	0.577100	0.796300	0.407000
C661	C66	0.486810	0.516990	0.377500
C671	C67	0.405990	0.431610	0.389700
C681	C68	0.407650	0.344350	0.388300
C691	C69	0.489580	0.338620	0.374900
C701	C70	0.569530	0.422870	0.362600
C711	C71	0.567320	0.510480	0.363000
C721	C72	0.491400	0.244800	0.373900
C731	C73	0.401490	0.145710	0.342900
C741	C74	0.406820	0.060580	0.342400
C751	C75	0.583010	0.162590	0.400200
C761	C76	0.584270	0.251330	0.403000
C771	C77	0.325550	0.903850	0.447400
C781	C78	0.211780	0.844820	0.440410
C791	C79	0.177240	0.888160	0.495700
C801	C80	0.074450	0.834550	0.490000
C811	C81	0.006200	0.735200	0.430300
C821	C82	0.038700	0.690500	0.376900
C831	C83	0.142080	0.745720	0.380900
C841	C84	0.876360	0.624040	0.516500
C851	C85	0.891080	0.688920	0.594500
C861	C86	0.902020	0.660980	0.666700
C871	C87	0.896370	0.569630	0.662800
C881	C88	0.878290	0.504710	0.584000
C891	C89	0.868960	0.532040	0.511900
C901	C90	0.911490	0.541710	0.743400
C911	C91	0.300050	0.599950	0.138600
C921	C92	0.389710	0.603890	0.141100
C931	C93	0.387780	0.512820	0.119500
C941	C94	0.291510	0.420890	0.095000
C951	C95	0.203700	0.422900	0.093000
C961	C96	0.483010	0.513190	0.122500
C971	C97	0.568390	0.594010	0.110300
C981	C98	0.655650	0.592350	0.111700
C991	C99	0.661380	0.510420	0.125100
C1001	C100	0.577130	0.430470	0.137400
C1011	C101	0.489520	0.432680	0.137000
C1021	C102	0.755200	0.508600	0.126100
C1031	C103	0.854290	0.598510	0.157100
C1041	C104	0.939420	0.593180	0.157600
C1051	C105	0.837410	0.416990	0.099800
C1061	C106	0.748670	0.415730	0.097000
C1071	C107	0.096150	0.674450	0.052600
C1081	C108	0.155180	0.788220	0.059590
C1091	C109	0.111840	0.822760	0.004300
C1101	C110	0.165450	0.925550	0.010000
C1111	C111	0.264800	0.993800	0.069700
C1121	C112	0.309500	0.961300	0.123100
C1131	C113	0.254280	0.857920	0.119100
C1141	C114	0.375960	0.123640	0.983500
C1151	C115	0.311080	0.108920	0.905500
C1161	C116	0.339020	0.097980	0.833300
C1171	C117	0.430370	0.103630	0.837200
C1181	C118	0.495290	0.121710	0.916000
C1191	C119	0.467960	0.131040	0.988100
C1201	C120	0.458290	0.088510	0.756600
S11	S1	0.127520	0.336020	0.575370
S21	S2	0.663980	0.872480	0.924630
S31	S3	0.872480	0.663980	0.424630
S41	S4	0.336020	0.127520	0.075370
N11	N1	0.510810	0.206310	0.615250
N21	N2	0.503630	0.932870	0.628400
N31	N3	0.793690	0.489190	0.884750
N41	N4	0.067130	0.496370	0.871600
N51	N5	0.489190	0.793690	0.384750
N61	N6	0.496370	0.067130	0.371600
N71	N7	0.206310	0.510810	0.115250
N81	N8	0.932870	0.503630	0.128400
O11	O1	0.613860	0.011640	0.492480
O21	O2	0.649490	0.135770	0.608590
O31	O3	0.160570	0.266230	0.565000
O41	O4	0.184900	0.427100	0.650200
O51	O5	0.035460	0.387080	0.186330
O61	O6	0.129190	0.552590	0.261630
O71	O7	0.988360	0.386140	0.007520
O81	O8	0.864230	0.350510	0.891410
O91	O9	0.733770	0.839430	0.935000
O101	O10	0.572900	0.815100	0.849800
O111	O11	0.612920	0.964540	0.313670
O121	O12	0.447410	0.870810	0.238370
O131	O13	0.386140	0.988360	0.507520
O141	O14	0.350510	0.864230	0.391410
O151	O15	0.839430	0.733770	0.435000
O161	O16	0.815100	0.572900	0.349800
O171	O17	0.964540	0.612920	0.813670
O181	O18	0.870810	0.447410	0.738370
O191	O19	0.011640	0.613860	0.992480
O201	O20	0.135770	0.649490	0.108590
O211	O21	0.266230	0.160570	0.065000
O221	O22	0.427100	0.184900	0.150200
O231	O23	0.387080	0.035460	0.686330
O241	O24	0.552590	0.129190	0.761630
