data_YAZWOM_freeONLY_PM
_symmetry_space_group_name_H-M	'P1'
_cell_length_a	8.677700
_cell_length_b	15.915000
_cell_length_c	15.915000
_cell_angle_alpha	120.000000
_cell_angle_beta	90.000000
_cell_angle_gamma	90.000000
_symmetry_Int_Tables_number 1

loop_
_symmetry_equiv_pos_as_xyz
'x,y,z'

loop_
_atom_site_label
_atom_site_type_symbol
_atom_site_fract_x
_atom_site_fract_y
_atom_site_fract_z
Cu11	Cu1	0.890000	0.381410	0.590950
Cu21	Cu2	0.223330	0.209540	0.618590
Cu31	Cu3	0.556670	0.409050	0.790460
Cu41	Cu4	0.890000	0.618590	0.409050
Cu51	Cu5	0.223330	0.790460	0.381410
Cu61	Cu6	0.556670	0.590950	0.209540
H11	H1	0.588400	0.874200	0.095500
H21	H2	0.580300	0.852800	0.181500
H31	H3	0.430300	0.848000	0.124300
H41	H4	0.165300	0.518600	0.769000
H51	H5	0.183300	0.605200	0.875400
H61	H6	0.242100	0.501600	0.848400
H71	H7	0.314800	0.615000	0.704800
H81	H8	0.482400	0.650400	0.742700
H91	H9	0.340600	0.702200	0.810000
H101	H10	0.418000	0.733000	0.931000
H111	H11	0.670000	0.719000	0.040000
H121	H12	0.401400	0.443300	0.678100
H131	H13	0.559000	0.506900	0.730600
H141	H14	0.921730	0.221300	0.125800
H151	H15	0.913630	0.328700	0.147200
H161	H16	0.763630	0.276300	0.152000
H171	H17	0.498630	0.250400	0.481400
H181	H18	0.516630	0.270200	0.394800
H191	H19	0.575430	0.346800	0.498400
H201	H20	0.648130	0.089800	0.385000
H211	H21	0.815730	0.092300	0.349600
H221	H22	0.673930	0.107800	0.297800
H231	H23	0.751330	0.198000	0.267000
H241	H24	0.003330	0.321000	0.281000
H251	H25	0.734730	0.234800	0.556700
H261	H26	0.892330	0.223700	0.493100
H271	H27	0.255070	0.904500	0.778700
H281	H28	0.246970	0.818500	0.671300
H291	H29	0.096970	0.875700	0.723700
H301	H30	0.831970	0.231000	0.749600
H311	H31	0.849970	0.124600	0.729800
H321	H32	0.908770	0.151600	0.653200
H331	H33	0.981470	0.295200	0.910200
H341	H34	0.149070	0.257300	0.907700
H351	H35	0.007270	0.190000	0.892200
H361	H36	0.084670	0.069000	0.802000
H371	H37	0.336670	0.960000	0.679000
H381	H38	0.068070	0.321900	0.765200
H391	H39	0.225670	0.269400	0.776300
H401	H40	0.588400	0.125800	0.904500
H411	H41	0.580300	0.147200	0.818500
H421	H42	0.430300	0.152000	0.875700
H431	H43	0.165300	0.481400	0.231000
H441	H44	0.183300	0.394800	0.124600
H451	H45	0.242100	0.498400	0.151600
H461	H46	0.314800	0.385000	0.295200
H471	H47	0.482400	0.349600	0.257300
H481	H48	0.340600	0.297800	0.190000
H491	H49	0.418000	0.267000	0.069000
H501	H50	0.670000	0.281000	0.960000
H511	H51	0.401400	0.556700	0.321900
H521	H52	0.559000	0.493100	0.269400
H531	H53	0.921730	0.778700	0.874200
H541	H54	0.913630	0.671300	0.852800
H551	H55	0.763630	0.723700	0.848000
H561	H56	0.498630	0.749600	0.518600
H571	H57	0.516630	0.729800	0.605200
H581	H58	0.575430	0.653200	0.501600
H591	H59	0.648130	0.910200	0.615000
H601	H60	0.815730	0.907700	0.650400
H611	H61	0.673930	0.892200	0.702200
H621	H62	0.751330	0.802000	0.733000
H631	H63	0.003330	0.679000	0.719000
H641	H64	0.734730	0.765200	0.443300
H651	H65	0.892330	0.776300	0.506900
H661	H66	0.255070	0.095500	0.221300
H671	H67	0.246970	0.181500	0.328700
H681	H68	0.096970	0.124300	0.276300
H691	H69	0.831970	0.769000	0.250400
H701	H70	0.849970	0.875400	0.270200
H711	H71	0.908770	0.848400	0.346800
H721	H72	0.981470	0.704800	0.089800
H731	H73	0.149070	0.742700	0.092300
H741	H74	0.007270	0.810000	0.107800
H751	H75	0.084670	0.931000	0.198000
H761	H76	0.336670	0.040000	0.321000
H771	H77	0.068070	0.678100	0.234800
H781	H78	0.225670	0.730600	0.223700
C11	C1	0.517700	0.331300	0.906600
C21	C2	0.569000	0.271700	0.951900
C31	C3	0.539200	0.835800	0.118900
C41	C4	0.488600	0.394500	0.111400
C51	C5	0.388600	0.570400	0.799600
C61	C6	0.229900	0.546700	0.825500
C71	C7	0.380900	0.641100	0.760600
C81	C8	0.851030	0.575300	0.668700
C91	C9	0.902330	0.680200	0.728300
C101	C10	0.872530	0.283100	0.164200
C111	C11	0.821930	0.716900	0.605500
C121	C12	0.721930	0.229200	0.429600
C131	C13	0.563230	0.278800	0.453300
C141	C14	0.714230	0.119500	0.358900
C151	C15	0.184370	0.093400	0.424700
C161	C16	0.235670	0.048100	0.319800
C171	C17	0.205870	0.881100	0.716900
C181	C18	0.155270	0.888600	0.283100
C191	C19	0.055270	0.200400	0.770800
C201	C20	0.896570	0.174500	0.721200
C211	C21	0.047570	0.239400	0.880500
C221	C22	0.517700	0.668700	0.093400
C231	C23	0.569000	0.728300	0.048100
C241	C24	0.539200	0.164200	0.881100
C251	C25	0.488600	0.605500	0.888600
C261	C26	0.388600	0.429600	0.200400
C271	C27	0.229900	0.453300	0.174500
C281	C28	0.380900	0.358900	0.239400
C291	C29	0.851030	0.424700	0.331300
C301	C30	0.902330	0.319800	0.271700
C311	C31	0.872530	0.716900	0.835800
C321	C32	0.821930	0.283100	0.394500
C331	C33	0.721930	0.770800	0.570400
C341	C34	0.563230	0.721200	0.546700
C351	C35	0.714230	0.880500	0.641100
C361	C36	0.184370	0.906600	0.575300
C371	C37	0.235670	0.951900	0.680200
C381	C38	0.205870	0.118900	0.283100
C391	C39	0.155270	0.111400	0.716900
C401	C40	0.055270	0.799600	0.229200
C411	C41	0.896570	0.825500	0.278800
C421	C42	0.047570	0.760600	0.119500
N11	N1	0.462100	0.476300	0.726900
N21	N2	0.484300	0.302600	0.043200
N31	N3	0.795430	0.250600	0.523700
N41	N4	0.817630	0.740600	0.697400
N51	N5	0.128770	0.273100	0.749400
N61	N6	0.150970	0.956800	0.259400
N71	N7	0.462100	0.523700	0.273100
N81	N8	0.484300	0.697400	0.956800
N91	N9	0.795430	0.749400	0.476300
N101	N10	0.817630	0.259400	0.302600
N111	N11	0.128770	0.726900	0.250600
N121	N12	0.150970	0.043200	0.740600
Cl11	Cl1	0.844600	0.415070	0.746630
Cl21	Cl2	0.177930	0.331560	0.584930
Cl31	Cl3	0.511270	0.253370	0.668440
Cl41	Cl4	0.844600	0.584930	0.253370
Cl51	Cl5	0.177930	0.668440	0.415070
Cl61	Cl6	0.511270	0.746630	0.331560
O11	O1	0.629000	0.358900	0.872200
O21	O2	0.566600	0.453600	0.099900
O31	O3	0.379800	0.345900	0.900400
O41	O4	0.962330	0.513300	0.641100
O51	O5	0.899930	0.646300	0.546400
O61	O6	0.713130	0.554500	0.654100
O71	O7	0.295670	0.127800	0.486700
O81	O8	0.233270	0.900100	0.353700
O91	O9	0.046470	0.099600	0.445500
O101	O10	0.629000	0.641100	0.127800
O111	O11	0.566600	0.546400	0.900100
O121	O12	0.379800	0.654100	0.099600
O131	O13	0.962330	0.486700	0.358900
O141	O14	0.899930	0.353700	0.453600
O151	O15	0.713130	0.445500	0.345900
O161	O16	0.295670	0.872200	0.513300
O171	O17	0.233270	0.099900	0.646300
O181	O18	0.046470	0.900400	0.554500
