data_YEGCUJ_freeONLY_PM
_symmetry_space_group_name_H-M	'P1'
_cell_length_a	16.279200
_cell_length_b	16.279200
_cell_length_c	16.279200
_cell_angle_alpha	90.000000
_cell_angle_beta	90.000000
_cell_angle_gamma	90.000000
_symmetry_Int_Tables_number 1

loop_
_symmetry_equiv_pos_as_xyz
'x,y,z'

loop_
_atom_site_label
_atom_site_type_symbol
_atom_site_fract_x
_atom_site_fract_y
_atom_site_fract_z
H11	H1	0.419400	0.245700	0.592800
H21	H2	0.080600	0.254300	0.592800
H31	H3	0.080600	0.245700	0.907200
H41	H4	0.419400	0.254300	0.907200
H51	H5	0.592800	0.419400	0.245700
H61	H6	0.592800	0.080600	0.254300
H71	H7	0.907200	0.080600	0.245700
H81	H8	0.907200	0.419400	0.254300
H91	H9	0.245700	0.592800	0.419400
H101	H10	0.254300	0.592800	0.080600
H111	H11	0.245700	0.907200	0.080600
H121	H12	0.254300	0.907200	0.419400
H131	H13	0.745700	0.919400	0.407200
H141	H14	0.754300	0.580600	0.407200
H151	H15	0.745700	0.580600	0.092800
H161	H16	0.754300	0.919400	0.092800
H171	H17	0.919400	0.092800	0.754300
H181	H18	0.580600	0.092800	0.745700
H191	H19	0.580600	0.407200	0.754300
H201	H20	0.919400	0.407200	0.745700
H211	H21	0.092800	0.745700	0.580600
H221	H22	0.092800	0.754300	0.919400
H231	H23	0.407200	0.745700	0.919400
H241	H24	0.407200	0.754300	0.580600
H251	H25	0.580600	0.754300	0.407200
H261	H26	0.919400	0.745700	0.407200
H271	H27	0.919400	0.754300	0.092800
H281	H28	0.580600	0.745700	0.092800
H291	H29	0.407200	0.580600	0.754300
H301	H30	0.407200	0.919400	0.745700
H311	H31	0.092800	0.919400	0.754300
H321	H32	0.092800	0.580600	0.745700
H331	H33	0.754300	0.407200	0.580600
H341	H34	0.745700	0.407200	0.919400
H351	H35	0.754300	0.092800	0.919400
H361	H36	0.745700	0.092800	0.580600
H371	H37	0.254300	0.080600	0.592800
H381	H38	0.245700	0.419400	0.592800
H391	H39	0.254300	0.419400	0.907200
H401	H40	0.245700	0.080600	0.907200
H411	H41	0.080600	0.907200	0.245700
H421	H42	0.419400	0.907200	0.254300
H431	H43	0.419400	0.592800	0.245700
H441	H44	0.080600	0.592800	0.254300
H451	H45	0.907200	0.254300	0.419400
H461	H46	0.907200	0.245700	0.080600
H471	H47	0.592800	0.254300	0.080600
H481	H48	0.592800	0.245700	0.419400
H491	H49	0.311160	0.311160	0.528560
H501	H50	0.188840	0.188840	0.528560
H511	H51	0.188840	0.311160	0.971440
H521	H52	0.311160	0.188840	0.971440
H531	H53	0.528560	0.311160	0.311160
H541	H54	0.528560	0.188840	0.188840
H551	H55	0.971440	0.188840	0.311160
H561	H56	0.971440	0.311160	0.188840
H571	H57	0.311160	0.528560	0.311160
H581	H58	0.188840	0.528560	0.188840
H591	H59	0.311160	0.971440	0.188840
H601	H60	0.188840	0.971440	0.311160
H611	H61	0.811160	0.811160	0.471440
H621	H62	0.688840	0.688840	0.471440
H631	H63	0.811160	0.688840	0.028560
H641	H64	0.688840	0.811160	0.028560
H651	H65	0.811160	0.028560	0.688840
H661	H66	0.688840	0.028560	0.811160
H671	H67	0.688840	0.471440	0.688840
H681	H68	0.811160	0.471440	0.811160
H691	H69	0.028560	0.811160	0.688840
H701	H70	0.028560	0.688840	0.811160
H711	H71	0.471440	0.811160	0.811160
H721	H72	0.471440	0.688840	0.688840
Pd11	Pd1	0.500000	0.250000	0.750000
Pd21	Pd2	0.000000	0.250000	0.750000
Pd31	Pd3	0.750000	0.500000	0.250000
Pd41	Pd4	0.750000	0.000000	0.250000
Pd51	Pd5	0.250000	0.750000	0.500000
Pd61	Pd6	0.250000	0.750000	0.000000
Pd71	Pd7	0.500000	0.750000	0.250000
Pd81	Pd8	0.000000	0.750000	0.250000
Pd91	Pd9	0.250000	0.500000	0.750000
Pd101	Pd10	0.250000	0.000000	0.750000
Pd111	Pd11	0.750000	0.250000	0.500000
Pd121	Pd12	0.750000	0.250000	0.000000
C11	C1	0.392530	0.290330	0.619110
C21	C2	0.107470	0.209670	0.619110
C31	C3	0.107470	0.290330	0.880890
C41	C4	0.392530	0.209670	0.880890
C51	C5	0.619110	0.392530	0.290330
C61	C6	0.619110	0.107470	0.209670
C71	C7	0.880890	0.107470	0.290330
C81	C8	0.880890	0.392530	0.209670
C91	C9	0.290330	0.619110	0.392530
C101	C10	0.209670	0.619110	0.107470
C111	C11	0.290330	0.880890	0.107470
C121	C12	0.209670	0.880890	0.392530
C131	C13	0.790330	0.892530	0.380890
C141	C14	0.709670	0.607470	0.380890
C151	C15	0.790330	0.607470	0.119110
C161	C16	0.709670	0.892530	0.119110
C171	C17	0.892530	0.119110	0.709670
C181	C18	0.607470	0.119110	0.790330
C191	C19	0.607470	0.380890	0.709670
C201	C20	0.892530	0.380890	0.790330
C211	C21	0.119110	0.790330	0.607470
C221	C22	0.119110	0.709670	0.892530
C231	C23	0.380890	0.790330	0.892530
C241	C24	0.380890	0.709670	0.607470
C251	C25	0.607470	0.709670	0.380890
C261	C26	0.892530	0.790330	0.380890
C271	C27	0.892530	0.709670	0.119110
C281	C28	0.607470	0.790330	0.119110
C291	C29	0.380890	0.607470	0.709670
C301	C30	0.380890	0.892530	0.790330
C311	C31	0.119110	0.892530	0.709670
C321	C32	0.119110	0.607470	0.790330
C331	C33	0.709670	0.380890	0.607470
C341	C34	0.790330	0.380890	0.892530
C351	C35	0.709670	0.119110	0.892530
C361	C36	0.790330	0.119110	0.607470
C371	C37	0.209670	0.107470	0.619110
C381	C38	0.290330	0.392530	0.619110
C391	C39	0.209670	0.392530	0.880890
C401	C40	0.290330	0.107470	0.880890
C411	C41	0.107470	0.880890	0.290330
C421	C42	0.392530	0.880890	0.209670
C431	C43	0.392530	0.619110	0.290330
C441	C44	0.107470	0.619110	0.209670
C451	C45	0.880890	0.209670	0.392530
C461	C46	0.880890	0.290330	0.107470
C471	C47	0.619110	0.209670	0.107470
C481	C48	0.619110	0.290330	0.392530
C491	C49	0.379440	0.379440	0.732270
C501	C50	0.328840	0.328840	0.581290
C511	C51	0.120560	0.120560	0.732270
C521	C52	0.171160	0.171160	0.581290
C531	C53	0.120560	0.379440	0.767730
C541	C54	0.171160	0.328840	0.918710
C551	C55	0.379440	0.120560	0.767730
C561	C56	0.328840	0.171160	0.918710
C571	C57	0.732270	0.379440	0.379440
C581	C58	0.581290	0.328840	0.328840
C591	C59	0.732270	0.120560	0.120560
C601	C60	0.581290	0.171160	0.171160
C611	C61	0.767730	0.120560	0.379440
C621	C62	0.918710	0.171160	0.328840
C631	C63	0.767730	0.379440	0.120560
C641	C64	0.918710	0.328840	0.171160
C651	C65	0.379440	0.732270	0.379440
C661	C66	0.328840	0.581290	0.328840
C671	C67	0.120560	0.732270	0.120560
C681	C68	0.171160	0.581290	0.171160
C691	C69	0.379440	0.767730	0.120560
C701	C70	0.328840	0.918710	0.171160
C711	C71	0.120560	0.767730	0.379440
C721	C72	0.171160	0.918710	0.328840
C731	C73	0.879440	0.879440	0.267730
C741	C74	0.828840	0.828840	0.418710
C751	C75	0.620560	0.620560	0.267730
C761	C76	0.671160	0.671160	0.418710
C771	C77	0.879440	0.620560	0.232270
C781	C78	0.828840	0.671160	0.081290
C791	C79	0.620560	0.879440	0.232270
C801	C80	0.671160	0.828840	0.081290
C811	C81	0.879440	0.232270	0.620560
C821	C82	0.828840	0.081290	0.671160
C831	C83	0.620560	0.232270	0.879440
C841	C84	0.671160	0.081290	0.828840
C851	C85	0.620560	0.267730	0.620560
C861	C86	0.671160	0.418710	0.671160
C871	C87	0.879440	0.267730	0.879440
C881	C88	0.828840	0.418710	0.828840
C891	C89	0.232270	0.879440	0.620560
C901	C90	0.081290	0.828840	0.671160
C911	C91	0.232270	0.620560	0.879440
C921	C92	0.081290	0.671160	0.828840
C931	C93	0.267730	0.879440	0.879440
C941	C94	0.418710	0.828840	0.828840
C951	C95	0.267730	0.620560	0.620560
C961	C96	0.418710	0.671160	0.671160
N11	N1	0.418090	0.315610	0.694450
N21	N2	0.081910	0.184390	0.694450
N31	N3	0.081910	0.315610	0.805550
N41	N4	0.418090	0.184390	0.805550
N51	N5	0.694450	0.418090	0.315610
N61	N6	0.694450	0.081910	0.184390
N71	N7	0.805550	0.081910	0.315610
N81	N8	0.805550	0.418090	0.184390
N91	N9	0.315610	0.694450	0.418090
N101	N10	0.184390	0.694450	0.081910
N111	N11	0.315610	0.805550	0.081910
N121	N12	0.184390	0.805550	0.418090
N131	N13	0.815610	0.918090	0.305550
N141	N14	0.684390	0.581910	0.305550
N151	N15	0.815610	0.581910	0.194450
N161	N16	0.684390	0.918090	0.194450
N171	N17	0.918090	0.194450	0.684390
N181	N18	0.581910	0.194450	0.815610
N191	N19	0.581910	0.305550	0.684390
N201	N20	0.918090	0.305550	0.815610
N211	N21	0.194450	0.815610	0.581910
N221	N22	0.194450	0.684390	0.918090
N231	N23	0.305550	0.815610	0.918090
N241	N24	0.305550	0.684390	0.581910
N251	N25	0.581910	0.684390	0.305550
N261	N26	0.918090	0.815610	0.305550
N271	N27	0.918090	0.684390	0.194450
N281	N28	0.581910	0.815610	0.194450
N291	N29	0.305550	0.581910	0.684390
N301	N30	0.305550	0.918090	0.815610
N311	N31	0.194450	0.918090	0.684390
N321	N32	0.194450	0.581910	0.815610
N331	N33	0.684390	0.305550	0.581910
N341	N34	0.815610	0.305550	0.918090
N351	N35	0.684390	0.194450	0.918090
N361	N36	0.815610	0.194450	0.581910
N371	N37	0.184390	0.081910	0.694450
N381	N38	0.315610	0.418090	0.694450
N391	N39	0.184390	0.418090	0.805550
N401	N40	0.315610	0.081910	0.805550
N411	N41	0.081910	0.805550	0.315610
N421	N42	0.418090	0.805550	0.184390
N431	N43	0.418090	0.694450	0.315610
N441	N44	0.081910	0.694450	0.184390
N451	N45	0.805550	0.184390	0.418090
N461	N46	0.805550	0.315610	0.081910
N471	N47	0.694450	0.184390	0.081910
N481	N48	0.694450	0.315610	0.418090
O11	O1	0.402700	0.402700	0.801650
O21	O2	0.097300	0.097300	0.801650
O31	O3	0.097300	0.402700	0.698350
O41	O4	0.402700	0.097300	0.698350
O51	O5	0.801650	0.402700	0.402700
O61	O6	0.801650	0.097300	0.097300
O71	O7	0.698350	0.097300	0.402700
O81	O8	0.698350	0.402700	0.097300
O91	O9	0.402700	0.801650	0.402700
O101	O10	0.097300	0.801650	0.097300
O111	O11	0.402700	0.698350	0.097300
O121	O12	0.097300	0.698350	0.402700
O131	O13	0.902700	0.902700	0.198350
O141	O14	0.597300	0.597300	0.198350
O151	O15	0.902700	0.597300	0.301650
O161	O16	0.597300	0.902700	0.301650
O171	O17	0.902700	0.301650	0.597300
O181	O18	0.597300	0.301650	0.902700
O191	O19	0.597300	0.198350	0.597300
O201	O20	0.902700	0.198350	0.902700
O211	O21	0.301650	0.902700	0.597300
O221	O22	0.301650	0.597300	0.902700
O231	O23	0.198350	0.902700	0.902700
O241	O24	0.198350	0.597300	0.597300
