data_YEGTAG_freeONLY_PM
_symmetry_space_group_name_H-M	'P1'
_cell_length_a	4.714300
_cell_length_b	11.734400
_cell_length_c	13.682300
_cell_angle_alpha	67.666000
_cell_angle_beta	89.269000
_cell_angle_gamma	82.096000
_symmetry_Int_Tables_number 1

loop_
_symmetry_equiv_pos_as_xyz
'x,y,z'

loop_
_atom_site_label
_atom_site_type_symbol
_atom_site_fract_x
_atom_site_fract_y
_atom_site_fract_z
Ag11	Ag1	0.730200	0.950960	0.935770
Ag21	Ag2	0.325990	0.129730	0.782310
Ag31	Ag3	0.613780	0.421060	0.647010
Ag41	Ag4	0.269800	0.049040	0.064230
Ag51	Ag5	0.674010	0.870270	0.217690
Ag61	Ag6	0.386220	0.578940	0.352990
H11	H1	0.438600	0.521100	0.906900
H21	H2	0.549900	0.790500	0.625200
H31	H3	0.071900	0.460600	0.721600
H41	H4	0.072200	0.323300	0.913000
H51	H5	0.798100	0.338600	0.979100
H61	H6	0.104200	0.803200	0.720400
H71	H7	0.092200	0.708800	0.840300
H81	H8	0.007100	0.770300	0.538500
H91	H9	0.191600	0.635800	0.569600
H101	H10	0.561400	0.478900	0.093100
H111	H11	0.450100	0.209500	0.374800
H121	H12	0.928100	0.539400	0.278400
H131	H13	0.927800	0.676700	0.087000
H141	H14	0.201900	0.661400	0.020900
H151	H15	0.895800	0.196800	0.279600
H161	H16	0.907800	0.291200	0.159700
H171	H17	0.992900	0.229700	0.461500
H181	H18	0.808400	0.364200	0.430400
C11	C1	0.769700	0.471000	0.827800
C21	C2	0.541000	0.549800	0.843900
C31	C3	0.460000	0.669600	0.769600
C41	C4	0.606900	0.709200	0.676700
C51	C5	0.834100	0.633900	0.656900
C61	C6	0.916100	0.513500	0.733600
C71	C7	0.860300	0.341000	0.909000
C81	C8	0.741600	0.238200	0.887200
C91	C9	0.219100	0.757900	0.787400
C101	C10	0.321100	0.852500	0.825600
C111	C11	0.993800	0.681200	0.556200
C121	C12	0.862600	0.668300	0.460900
C131	C13	0.230300	0.529000	0.172200
C141	C14	0.459000	0.450200	0.156100
C151	C15	0.540000	0.330400	0.230400
C161	C16	0.393100	0.290800	0.323300
C171	C17	0.165900	0.366100	0.343100
C181	C18	0.083900	0.486500	0.266400
C191	C19	0.139700	0.659000	0.091000
C201	C20	0.258400	0.761800	0.112800
C211	C21	0.780900	0.242100	0.212600
C221	C22	0.678900	0.147500	0.174400
C231	C23	0.006200	0.318800	0.443800
C241	C24	0.137400	0.331700	0.539100
O11	O1	0.864600	0.128200	0.936800
O21	O2	0.529700	0.266900	0.824300
O31	O3	0.551900	0.821600	0.879900
O41	O4	0.157200	0.954900	0.801000
O51	O5	0.966300	0.725200	0.372300
O61	O6	0.668400	0.601500	0.474200
O71	O7	0.135400	0.871800	0.063200
O81	O8	0.470300	0.733100	0.175700
O91	O9	0.448100	0.178400	0.120100
O101	O10	0.842800	0.045100	0.199000
O111	O11	0.033700	0.274800	0.627700
O121	O12	0.331600	0.398500	0.525800
