data_YEKQOW_freeONLY_PM
_symmetry_space_group_name_H-M	'P1'
_cell_length_a	26.832600
_cell_length_b	26.832600
_cell_length_c	26.832600
_cell_angle_alpha	109.471000
_cell_angle_beta	109.471000
_cell_angle_gamma	109.471000
_symmetry_Int_Tables_number 1

loop_
_symmetry_equiv_pos_as_xyz
'x,y,z'

loop_
_atom_site_label
_atom_site_type_symbol
_atom_site_fract_x
_atom_site_fract_y
_atom_site_fract_z
Zn11	Zn1	0.760410	0.213700	0.557730
Zn21	Zn2	0.230520	0.779550	0.558630
Zn31	Zn3	0.034540	0.946360	0.670660
Zn41	Zn4	0.963690	0.051130	0.363240
Zn51	Zn5	0.655970	0.202680	0.442270
Zn61	Zn6	0.220920	0.671890	0.441370
Zn71	Zn7	0.275700	0.363880	0.329340
Zn81	Zn8	0.687890	0.600450	0.636760
Zn91	Zn9	0.344030	0.786300	0.546710
Zn101	Zn10	0.779080	0.220450	0.450970
Zn111	Zn11	0.724300	0.053640	0.088180
Zn121	Zn12	0.312110	0.948870	0.912560
Zn131	Zn13	0.239590	0.797320	0.453290
Zn141	Zn14	0.769480	0.328110	0.549030
Zn151	Zn15	0.965460	0.636120	0.911820
Zn161	Zn16	0.036310	0.399550	0.087440
Zn171	Zn17	0.546710	0.344030	0.786300
Zn181	Zn18	0.450970	0.779080	0.220450
Zn191	Zn19	0.088180	0.724300	0.053640
Zn201	Zn20	0.912560	0.312110	0.948870
Zn211	Zn21	0.453290	0.239590	0.797320
Zn221	Zn22	0.549030	0.769480	0.328110
Zn231	Zn23	0.911820	0.965460	0.636120
Zn241	Zn24	0.087440	0.036310	0.399550
Zn251	Zn25	0.557730	0.760410	0.213700
Zn261	Zn26	0.558630	0.230520	0.779550
Zn271	Zn27	0.670660	0.034540	0.946360
Zn281	Zn28	0.363240	0.963690	0.051130
Zn291	Zn29	0.442270	0.655970	0.202680
Zn301	Zn30	0.441370	0.220920	0.671890
Zn311	Zn31	0.329340	0.275700	0.363880
Zn321	Zn32	0.636760	0.687890	0.600450
Zn331	Zn33	0.202680	0.442270	0.655970
Zn341	Zn34	0.671890	0.441370	0.220920
Zn351	Zn35	0.363880	0.329340	0.275700
Zn361	Zn36	0.600450	0.636760	0.687890
Zn371	Zn37	0.213700	0.557730	0.760410
Zn381	Zn38	0.779550	0.558630	0.230520
Zn391	Zn39	0.946360	0.670660	0.034540
Zn401	Zn40	0.051130	0.363240	0.963690
Zn411	Zn41	0.797320	0.453290	0.239590
Zn421	Zn42	0.328110	0.549030	0.769480
Zn431	Zn43	0.636120	0.911820	0.965460
Zn441	Zn44	0.399550	0.087440	0.036310
Zn451	Zn45	0.786300	0.546710	0.344030
Zn461	Zn46	0.220450	0.450970	0.779080
Zn471	Zn47	0.053640	0.088180	0.724300
Zn481	Zn48	0.948870	0.912560	0.312110
Zn491	Zn49	0.000000	0.000000	0.519240
Zn501	Zn50	0.480760	0.480760	0.480760
Zn511	Zn51	0.519240	0.000000	0.000000
Zn521	Zn52	0.000000	0.519240	0.000000
H11	H1	0.926800	0.746300	0.607300
H21	H2	0.884400	0.128500	0.602300
H31	H3	0.935400	0.071500	0.568700
H41	H4	0.558500	0.929900	0.498400
H51	H5	0.612400	0.044000	0.556600
H61	H6	0.129900	0.892900	0.440400
H71	H7	0.064500	0.931100	0.467400
H81	H8	0.842300	0.661700	0.597000
H91	H9	0.139000	0.319500	0.392700
H101	H10	0.526200	0.282100	0.397700
H111	H11	0.502800	0.366700	0.431300
H121	H12	0.431500	0.060100	0.501600
H131	H13	0.487400	0.055800	0.443400
H141	H14	0.452500	0.689500	0.559600
H151	H15	0.463700	0.597100	0.532600
H161	H16	0.064700	0.245300	0.403000
H171	H17	0.861000	0.253700	0.180500
H181	H18	0.473800	0.871500	0.755900
H191	H19	0.497200	0.928500	0.863900
H201	H20	0.568500	0.070100	0.628600
H211	H21	0.512600	0.956000	0.568400
H221	H22	0.547500	0.107100	0.237000
H231	H23	0.536300	0.068900	0.133400
H241	H24	0.935300	0.338300	0.180600
H251	H25	0.073200	0.680500	0.819500
H261	H26	0.115600	0.717900	0.244100
H271	H27	0.064600	0.633300	0.136100
H281	H28	0.441500	0.939900	0.371400
H291	H29	0.387600	0.944200	0.431600
H301	H30	0.870100	0.310500	0.763000
H311	H31	0.935500	0.402900	0.866600
H321	H32	0.157700	0.754700	0.819400
H331	H33	0.180500	0.861000	0.253700
H341	H34	0.755900	0.473800	0.871500
H351	H35	0.863900	0.497200	0.928500
H361	H36	0.628600	0.568500	0.070100
H371	H37	0.568400	0.512600	0.956000
H381	H38	0.237000	0.547500	0.107100
H391	H39	0.133400	0.536300	0.068900
H401	H40	0.180600	0.935300	0.338300
H411	H41	0.819500	0.073200	0.680500
H421	H42	0.244100	0.115600	0.717900
H431	H43	0.136100	0.064600	0.633300
H441	H44	0.371400	0.441500	0.939900
H451	H45	0.431600	0.387600	0.944200
H461	H46	0.763000	0.870100	0.310500
H471	H47	0.866600	0.935500	0.402900
H481	H48	0.819400	0.157700	0.754700
H491	H49	0.607300	0.926800	0.746300
H501	H50	0.602300	0.884400	0.128500
H511	H51	0.568700	0.935400	0.071500
H521	H52	0.498400	0.558500	0.929900
H531	H53	0.556600	0.612400	0.044000
H541	H54	0.440400	0.129900	0.892900
H551	H55	0.467400	0.064500	0.931100
H561	H56	0.597000	0.842300	0.661700
H571	H57	0.392700	0.139000	0.319500
H581	H58	0.397700	0.526200	0.282100
H591	H59	0.431300	0.502800	0.366700
H601	H60	0.501600	0.431500	0.060100
H611	H61	0.443400	0.487400	0.055800
H621	H62	0.559600	0.452500	0.689500
H631	H63	0.532600	0.463700	0.597100
H641	H64	0.403000	0.064700	0.245300
H651	H65	0.319500	0.392700	0.139000
H661	H66	0.282100	0.397700	0.526200
H671	H67	0.366700	0.431300	0.502800
H681	H68	0.060100	0.501600	0.431500
H691	H69	0.055800	0.443400	0.487400
H701	H70	0.689500	0.559600	0.452500
H711	H71	0.597100	0.532600	0.463700
H721	H72	0.245300	0.403000	0.064700
H731	H73	0.746300	0.607300	0.926800
H741	H74	0.128500	0.602300	0.884400
H751	H75	0.071500	0.568700	0.935400
H761	H76	0.929900	0.498400	0.558500
H771	H77	0.044000	0.556600	0.612400
H781	H78	0.892900	0.440400	0.129900
H791	H79	0.931100	0.467400	0.064500
H801	H80	0.661700	0.597000	0.842300
H811	H81	0.680500	0.819500	0.073200
H821	H82	0.717900	0.244100	0.115600
H831	H83	0.633300	0.136100	0.064600
H841	H84	0.939900	0.371400	0.441500
H851	H85	0.944200	0.431600	0.387600
H861	H86	0.310500	0.763000	0.870100
H871	H87	0.402900	0.866600	0.935500
H881	H88	0.754700	0.819400	0.157700
H891	H89	0.253700	0.180500	0.861000
H901	H90	0.871500	0.755900	0.473800
H911	H91	0.928500	0.863900	0.497200
H921	H92	0.070100	0.628600	0.568500
H931	H93	0.956000	0.568400	0.512600
H941	H94	0.107100	0.237000	0.547500
H951	H95	0.068900	0.133400	0.536300
H961	H96	0.338300	0.180600	0.935300
H971	H97	0.000000	0.000000	0.623000
H981	H98	0.000000	0.000000	0.413600
H991	H99	0.377000	0.377000	0.377000
H1001	H100	0.586400	0.586400	0.586400
H1011	H101	0.623000	0.000000	0.000000
H1021	H102	0.413600	0.000000	0.000000
H1031	H103	0.000000	0.623000	0.000000
H1041	H104	0.000000	0.413600	0.000000
C11	C1	0.892000	0.745600	0.607400
C21	C2	0.888900	0.120800	0.568100
C31	C3	0.917600	0.089100	0.549500
C41	C4	0.937700	0.066700	0.458600
C51	C5	0.868500	0.138600	0.525900
C61	C6	0.092600	0.917800	0.540200
C71	C7	0.913800	0.089100	0.497300
C81	C8	0.837300	0.173700	0.520400
C91	C9	0.064000	0.935100	0.577700
C101	C10	0.636300	0.039400	0.493900
C111	C11	0.580300	0.955700	0.488000
C121	C12	0.587300	0.936900	0.437800
C131	C13	0.676900	0.099100	0.499400
C141	C14	0.186000	0.850600	0.519000
C151	C15	0.610900	0.020100	0.521200
C161	C16	0.576020	0.882600	0.387820
C171	C17	0.123600	0.896100	0.473100
C181	C18	0.087600	0.918300	0.488700
C191	C19	0.147800	0.879700	0.514300
C201	C20	0.912300	0.854000	0.621300
C211	C21	0.878300	0.791400	0.613300
C221	C22	0.844800	0.698400	0.601400
C231	C23	0.802800	0.715400	0.603400
C241	C24	0.741400	0.683900	0.599100
C251	C25	0.138200	0.284600	0.392600
C261	C26	0.552700	0.320800	0.431900
C271	C27	0.539600	0.368100	0.450500
C281	C28	0.608100	0.479100	0.541400
C291	C29	0.612700	0.342600	0.474100
C301	C30	0.377600	0.552400	0.459800
C311	C31	0.591800	0.416500	0.502700
C321	C32	0.653300	0.316900	0.479600
C331	C33	0.357400	0.486300	0.422300
C341	C34	0.545500	0.142400	0.506100
C351	C35	0.467700	0.092300	0.512000
C361	C36	0.499100	0.149500	0.562200
C371	C37	0.599700	0.177500	0.500600
C381	C38	0.331600	0.667000	0.481000
C391	C39	0.498900	0.089700	0.478800
C401	C40	0.494780	0.188200	0.612180
C411	C41	0.423000	0.650500	0.526900
C421	C42	0.429600	0.598900	0.511300
C431	C43	0.365400	0.633500	0.485700
C441	C44	0.232700	0.291000	0.378700
C451	C45	0.178100	0.265000	0.386700
C461	C46	0.097000	0.243400	0.398600
C471	C47	0.112000	0.199400	0.396600
C481	C48	0.084800	0.142300	0.400900
C491	C49	0.861800	0.254400	0.146400
C501	C50	0.447300	0.879200	0.768100
C511	C51	0.460400	0.910900	0.828500
C521	C52	0.391900	0.933300	0.871000
C531	C53	0.387300	0.861400	0.729900
C541	C54	0.622400	0.082200	0.174800
C551	C55	0.408200	0.910900	0.824700
C561	C56	0.346700	0.826300	0.663600
C571	C57	0.642600	0.064900	0.128900
C581	C58	0.454500	0.960600	0.596900
C591	C59	0.532300	0.044300	0.624600
C601	C60	0.500900	0.063100	0.650400
C611	C61	0.400300	0.900900	0.577800
C621	C62	0.668400	0.149400	0.335400
C631	C63	0.501100	0.979900	0.590800
C641	C64	0.505220	0.117400	0.693420
C651	C65	0.577000	0.103900	0.227500
C661	C66	0.570400	0.081700	0.169300
C671	C67	0.634600	0.120300	0.268100
C681	C68	0.767300	0.146000	0.058300
C691	C69	0.821900	0.208600	0.086900
C701	C70	0.903000	0.301600	0.146400
C711	C71	0.888000	0.284600	0.087400
C721	C72	0.915200	0.316100	0.057500
C731	C73	0.108000	0.715400	0.853600
C741	C74	0.111100	0.679200	0.231900
C751	C75	0.082400	0.631900	0.171500
C761	C76	0.062300	0.520900	0.129000
C771	C77	0.131500	0.657400	0.270100
C781	C78	0.907400	0.447600	0.825200
C791	C79	0.086200	0.583500	0.175300
C801	C80	0.162700	0.683100	0.336400
C811	C81	0.936000	0.513700	0.871100
C821	C82	0.363700	0.857600	0.403100
C831	C83	0.419700	0.907700	0.375400
C841	C84	0.412700	0.850500	0.349600
C851	C85	0.323100	0.822500	0.422200
C861	C86	0.814000	0.333000	0.664600
C871	C87	0.389100	0.910300	0.409200
C881	C88	0.423980	0.811800	0.306580
C891	C89	0.876400	0.349500	0.772500
C901	C90	0.912400	0.401100	0.830700
C911	C91	0.852200	0.366500	0.731900
C921	C92	0.087700	0.709000	0.941700
C931	C93	0.121700	0.735000	0.913100
C941	C94	0.155200	0.756600	0.853600
C951	C95	0.197200	0.800600	0.912600
C961	C96	0.258600	0.857700	0.942500
C971	C97	0.146400	0.861800	0.254400
C981	C98	0.768100	0.447300	0.879200
C991	C99	0.828500	0.460400	0.910900
C1001	C100	0.871000	0.391900	0.933300
C1011	C101	0.729900	0.387300	0.861400
C1021	C102	0.174800	0.622400	0.082200
C1031	C103	0.824700	0.408200	0.910900
C1041	C104	0.663600	0.346700	0.826300
C1051	C105	0.128900	0.642600	0.064900
C1061	C106	0.596900	0.454500	0.960600
C1071	C107	0.624600	0.532300	0.044300
C1081	C108	0.650400	0.500900	0.063100
C1091	C109	0.577800	0.400300	0.900900
C1101	C110	0.335400	0.668400	0.149400
C1111	C111	0.590800	0.501100	0.979900
C1121	C112	0.693420	0.505220	0.117400
C1131	C113	0.227500	0.577000	0.103900
C1141	C114	0.169300	0.570400	0.081700
C1151	C115	0.268100	0.634600	0.120300
C1161	C116	0.058300	0.767300	0.146000
C1171	C117	0.086900	0.821900	0.208600
C1181	C118	0.146400	0.903000	0.301600
C1191	C119	0.087400	0.888000	0.284600
C1201	C120	0.057500	0.915200	0.316100
C1211	C121	0.853600	0.108000	0.715400
C1221	C122	0.231900	0.111100	0.679200
C1231	C123	0.171500	0.082400	0.631900
C1241	C124	0.129000	0.062300	0.520900
C1251	C125	0.270100	0.131500	0.657400
C1261	C126	0.825200	0.907400	0.447600
C1271	C127	0.175300	0.086200	0.583500
C1281	C128	0.336400	0.162700	0.683100
C1291	C129	0.871100	0.936000	0.513700
C1301	C130	0.403100	0.363700	0.857600
C1311	C131	0.375400	0.419700	0.907700
C1321	C132	0.349600	0.412700	0.850500
C1331	C133	0.422200	0.323100	0.822500
C1341	C134	0.664600	0.814000	0.333000
C1351	C135	0.409200	0.389100	0.910300
C1361	C136	0.306580	0.423980	0.811800
C1371	C137	0.772500	0.876400	0.349500
C1381	C138	0.830700	0.912400	0.401100
C1391	C139	0.731900	0.852200	0.366500
C1401	C140	0.941700	0.087700	0.709000
C1411	C141	0.913100	0.121700	0.735000
C1421	C142	0.853600	0.155200	0.756600
C1431	C143	0.912600	0.197200	0.800600
C1441	C144	0.942500	0.258600	0.857700
C1451	C145	0.607400	0.892000	0.745600
C1461	C146	0.568100	0.888900	0.120800
C1471	C147	0.549500	0.917600	0.089100
C1481	C148	0.458600	0.937700	0.066700
C1491	C149	0.525900	0.868500	0.138600
C1501	C150	0.540200	0.092600	0.917800
C1511	C151	0.497300	0.913800	0.089100
C1521	C152	0.520400	0.837300	0.173700
C1531	C153	0.577700	0.064000	0.935100
C1541	C154	0.493900	0.636300	0.039400
C1551	C155	0.488000	0.580300	0.955700
C1561	C156	0.437800	0.587300	0.936900
C1571	C157	0.499400	0.676900	0.099100
C1581	C158	0.519000	0.186000	0.850600
C1591	C159	0.521200	0.610900	0.020100
C1601	C160	0.387820	0.576020	0.882600
C1611	C161	0.473100	0.123600	0.896100
C1621	C162	0.488700	0.087600	0.918300
C1631	C163	0.514300	0.147800	0.879700
C1641	C164	0.621300	0.912300	0.854000
C1651	C165	0.613300	0.878300	0.791400
C1661	C166	0.601400	0.844800	0.698400
C1671	C167	0.603400	0.802800	0.715400
C1681	C168	0.599100	0.741400	0.683900
C1691	C169	0.392600	0.138200	0.284600
C1701	C170	0.431900	0.552700	0.320800
C1711	C171	0.450500	0.539600	0.368100
C1721	C172	0.541400	0.608100	0.479100
C1731	C173	0.474100	0.612700	0.342600
C1741	C174	0.459800	0.377600	0.552400
C1751	C175	0.502700	0.591800	0.416500
C1761	C176	0.479600	0.653300	0.316900
C1771	C177	0.422300	0.357400	0.486300
C1781	C178	0.506100	0.545500	0.142400
C1791	C179	0.512000	0.467700	0.092300
C1801	C180	0.562200	0.499100	0.149500
C1811	C181	0.500600	0.599700	0.177500
C1821	C182	0.481000	0.331600	0.667000
C1831	C183	0.478800	0.498900	0.089700
C1841	C184	0.612180	0.494780	0.188200
C1851	C185	0.526900	0.423000	0.650500
C1861	C186	0.511300	0.429600	0.598900
C1871	C187	0.485700	0.365400	0.633500
C1881	C188	0.378700	0.232700	0.291000
C1891	C189	0.386700	0.178100	0.265000
C1901	C190	0.398600	0.097000	0.243400
C1911	C191	0.396600	0.112000	0.199400
C1921	C192	0.400900	0.084800	0.142300
C1931	C193	0.284600	0.392600	0.138200
C1941	C194	0.320800	0.431900	0.552700
C1951	C195	0.368100	0.450500	0.539600
C1961	C196	0.479100	0.541400	0.608100
C1971	C197	0.342600	0.474100	0.612700
C1981	C198	0.552400	0.459800	0.377600
C1991	C199	0.416500	0.502700	0.591800
C2001	C200	0.316900	0.479600	0.653300
C2011	C201	0.486300	0.422300	0.357400
C2021	C202	0.142400	0.506100	0.545500
C2031	C203	0.092300	0.512000	0.467700
C2041	C204	0.149500	0.562200	0.499100
C2051	C205	0.177500	0.500600	0.599700
C2061	C206	0.667000	0.481000	0.331600
C2071	C207	0.089700	0.478800	0.498900
C2081	C208	0.188200	0.612180	0.494780
C2091	C209	0.650500	0.526900	0.423000
C2101	C210	0.598900	0.511300	0.429600
C2111	C211	0.633500	0.485700	0.365400
C2121	C212	0.291000	0.378700	0.232700
C2131	C213	0.265000	0.386700	0.178100
C2141	C214	0.243400	0.398600	0.097000
C2151	C215	0.199400	0.396600	0.112000
C2161	C216	0.142300	0.400900	0.084800
C2171	C217	0.745600	0.607400	0.892000
C2181	C218	0.120800	0.568100	0.888900
C2191	C219	0.089100	0.549500	0.917600
C2201	C220	0.066700	0.458600	0.937700
C2211	C221	0.138600	0.525900	0.868500
C2221	C222	0.917800	0.540200	0.092600
C2231	C223	0.089100	0.497300	0.913800
C2241	C224	0.173700	0.520400	0.837300
C2251	C225	0.935100	0.577700	0.064000
C2261	C226	0.039400	0.493900	0.636300
C2271	C227	0.955700	0.488000	0.580300
C2281	C228	0.936900	0.437800	0.587300
C2291	C229	0.099100	0.499400	0.676900
C2301	C230	0.850600	0.519000	0.186000
C2311	C231	0.020100	0.521200	0.610900
C2321	C232	0.882600	0.387820	0.576020
C2331	C233	0.896100	0.473100	0.123600
C2341	C234	0.918300	0.488700	0.087600
C2351	C235	0.879700	0.514300	0.147800
C2361	C236	0.854000	0.621300	0.912300
C2371	C237	0.791400	0.613300	0.878300
C2381	C238	0.698400	0.601400	0.844800
C2391	C239	0.715400	0.603400	0.802800
C2401	C240	0.683900	0.599100	0.741400
C2411	C241	0.715400	0.853600	0.108000
C2421	C242	0.679200	0.231900	0.111100
C2431	C243	0.631900	0.171500	0.082400
C2441	C244	0.520900	0.129000	0.062300
C2451	C245	0.657400	0.270100	0.131500
C2461	C246	0.447600	0.825200	0.907400
C2471	C247	0.583500	0.175300	0.086200
C2481	C248	0.683100	0.336400	0.162700
C2491	C249	0.513700	0.871100	0.936000
C2501	C250	0.857600	0.403100	0.363700
C2511	C251	0.907700	0.375400	0.419700
C2521	C252	0.850500	0.349600	0.412700
C2531	C253	0.822500	0.422200	0.323100
C2541	C254	0.333000	0.664600	0.814000
C2551	C255	0.910300	0.409200	0.389100
C2561	C256	0.811800	0.306580	0.423980
C2571	C257	0.349500	0.772500	0.876400
C2581	C258	0.401100	0.830700	0.912400
C2591	C259	0.366500	0.731900	0.852200
C2601	C260	0.709000	0.941700	0.087700
C2611	C261	0.735000	0.913100	0.121700
C2621	C262	0.756600	0.853600	0.155200
C2631	C263	0.800600	0.912600	0.197200
C2641	C264	0.857700	0.942500	0.258600
C2651	C265	0.254400	0.146400	0.861800
C2661	C266	0.879200	0.768100	0.447300
C2671	C267	0.910900	0.828500	0.460400
C2681	C268	0.933300	0.871000	0.391900
C2691	C269	0.861400	0.729900	0.387300
C2701	C270	0.082200	0.174800	0.622400
C2711	C271	0.910900	0.824700	0.408200
C2721	C272	0.826300	0.663600	0.346700
C2731	C273	0.064900	0.128900	0.642600
C2741	C274	0.960600	0.596900	0.454500
C2751	C275	0.044300	0.624600	0.532300
C2761	C276	0.063100	0.650400	0.500900
C2771	C277	0.900900	0.577800	0.400300
C2781	C278	0.149400	0.335400	0.668400
C2791	C279	0.979900	0.590800	0.501100
C2801	C280	0.117400	0.693420	0.505220
C2811	C281	0.103900	0.227500	0.577000
C2821	C282	0.081700	0.169300	0.570400
C2831	C283	0.120300	0.268100	0.634600
C2841	C284	0.146000	0.058300	0.767300
C2851	C285	0.208600	0.086900	0.821900
C2861	C286	0.301600	0.146400	0.903000
C2871	C287	0.284600	0.087400	0.888000
C2881	C288	0.316100	0.057500	0.915200
O11	O1	0.958100	0.865400	0.620300
O21	O2	0.887500	0.882400	0.630700
O31	O3	0.824970	0.191240	0.561530
O41	O4	0.932060	0.079080	0.417720
O51	O5	0.202480	0.839910	0.560590
O61	O6	0.071480	0.922540	0.620040
O71	O7	0.963250	0.037220	0.469710
O81	O8	0.035930	0.960450	0.565620
O91	O9	0.821060	0.176970	0.472890
O101	O10	0.885750	0.120730	0.482780
O111	O11	0.198210	0.840470	0.476760
O121	O12	0.689430	0.101110	0.462080
O131	O13	0.698240	0.146690	0.552830
O141	O14	0.623890	0.990760	0.441170
O151	O15	0.588930	0.884660	0.350510
O161	O16	0.128150	0.892240	0.557730
O171	O17	0.550730	0.834990	0.392800
O181	O18	0.823700	0.771800	0.610700
O191	O19	0.715700	0.712700	0.602600
O201	O20	0.728500	0.634200	0.593900
O211	O21	0.020100	0.952500	0.745200
O221	O22	0.245100	0.337800	0.379700
O231	O23	0.251700	0.256800	0.369300
O241	O24	0.629710	0.263440	0.438470
O251	O25	0.661360	0.514340	0.582280
O261	O26	0.279320	0.641890	0.439410
O271	O27	0.302500	0.451440	0.379960
O281	O28	0.567510	0.493540	0.530290
O291	O29	0.394830	0.470310	0.434380
O301	O30	0.704080	0.348170	0.527110
O311	O31	0.637950	0.402970	0.517220
O321	O32	0.363710	0.721450	0.523240
O331	O33	0.639030	0.227350	0.537920
O341	O34	0.593860	0.145410	0.447170
O351	O35	0.549590	0.182720	0.558830
O361	O36	0.534150	0.238420	0.649490
O371	O37	0.334510	0.570420	0.442270
O381	O38	0.442190	0.157930	0.607200
O391	O39	0.161100	0.213000	0.389300
O401	O40	0.110100	0.113100	0.397400
O411	O41	0.040300	0.134600	0.406100
O421	O42	0.207300	0.274900	0.254800
O431	O43	0.754900	0.134600	0.092700
O441	O44	0.748300	0.117600	0.005100
O451	O45	0.370290	0.808760	0.633730
O461	O46	0.338640	0.920920	0.852980
O471	O47	0.720680	0.160090	0.362570
O481	O48	0.697500	0.077460	0.148940
O491	O49	0.432490	0.962780	0.926030
O501	O50	0.605170	0.039550	0.075480
O511	O51	0.295920	0.823030	0.644090
O521	O52	0.362050	0.879270	0.765020
O531	O53	0.636290	0.159530	0.357740
O541	O54	0.360970	0.898890	0.588320
O551	O55	0.406140	0.853310	0.551550
O561	O56	0.450410	0.009240	0.633130
O571	O57	0.465850	0.115340	0.704270
O581	O58	0.665490	0.107760	0.235910
O591	O59	0.557810	0.165010	0.715740
O601	O60	0.838900	0.228200	0.051900
O611	O61	0.889900	0.287300	0.003000
O621	O62	0.959700	0.365800	0.094300
O631	O63	0.792700	0.047500	0.067600
O641	O64	0.041900	0.662200	0.907300
O651	O65	0.112500	0.743200	0.994900
O661	O66	0.175030	0.736560	0.366270
O671	O67	0.067940	0.485660	0.147020
O681	O68	0.797520	0.358110	0.637430
O691	O69	0.928520	0.548560	0.851060
O701	O70	0.036750	0.506460	0.073970
O711	O71	0.964070	0.529690	0.924520
O721	O72	0.178940	0.651830	0.355910
O731	O73	0.114250	0.597030	0.234980
O741	O74	0.801790	0.278550	0.642260
O751	O75	0.310570	0.772650	0.411680
O761	O76	0.301760	0.854590	0.448450
O771	O77	0.376110	0.817280	0.366870
O781	O78	0.411070	0.761580	0.295730
O791	O79	0.871850	0.429580	0.764090
O801	O80	0.449270	0.842070	0.284260
O811	O81	0.176300	0.787000	0.948100
O821	O82	0.284300	0.886900	0.997000
O831	O83	0.271500	0.865400	0.905700
O841	O84	0.979900	0.725100	0.932400
O851	O85	0.092700	0.754900	0.134600
O861	O86	0.005100	0.748300	0.117600
O871	O87	0.633730	0.370290	0.808760
O881	O88	0.852980	0.338640	0.920920
O891	O89	0.362570	0.720680	0.160090
O901	O90	0.148940	0.697500	0.077460
O911	O91	0.926030	0.432490	0.962780
O921	O92	0.075480	0.605170	0.039550
O931	O93	0.644090	0.295920	0.823030
O941	O94	0.765020	0.362050	0.879270
O951	O95	0.357740	0.636290	0.159530
O961	O96	0.588320	0.360970	0.898890
O971	O97	0.551550	0.406140	0.853310
O981	O98	0.633130	0.450410	0.009240
O991	O99	0.704270	0.465850	0.115340
O1001	O100	0.235910	0.665490	0.107760
O1011	O101	0.715740	0.557810	0.165010
O1021	O102	0.051900	0.838900	0.228200
O1031	O103	0.003000	0.889900	0.287300
O1041	O104	0.094300	0.959700	0.365800
O1051	O105	0.067600	0.792700	0.047500
O1061	O106	0.907300	0.041900	0.662200
O1071	O107	0.994900	0.112500	0.743200
O1081	O108	0.366270	0.175030	0.736560
O1091	O109	0.147020	0.067940	0.485660
O1101	O110	0.637430	0.797520	0.358110
O1111	O111	0.851060	0.928520	0.548560
O1121	O112	0.073970	0.036750	0.506460
O1131	O113	0.924520	0.964070	0.529690
O1141	O114	0.355910	0.178940	0.651830
O1151	O115	0.234980	0.114250	0.597030
O1161	O116	0.642260	0.801790	0.278550
O1171	O117	0.411680	0.310570	0.772650
O1181	O118	0.448450	0.301760	0.854590
O1191	O119	0.366870	0.376110	0.817280
O1201	O120	0.295730	0.411070	0.761580
O1211	O121	0.764090	0.871850	0.429580
O1221	O122	0.284260	0.449270	0.842070
O1231	O123	0.948100	0.176300	0.787000
O1241	O124	0.997000	0.284300	0.886900
O1251	O125	0.905700	0.271500	0.865400
O1261	O126	0.932400	0.979900	0.725100
O1271	O127	0.620300	0.958100	0.865400
O1281	O128	0.630700	0.887500	0.882400
O1291	O129	0.561530	0.824970	0.191240
O1301	O130	0.417720	0.932060	0.079080
O1311	O131	0.560590	0.202480	0.839910
O1321	O132	0.620040	0.071480	0.922540
O1331	O133	0.469710	0.963250	0.037220
O1341	O134	0.565620	0.035930	0.960450
O1351	O135	0.472890	0.821060	0.176970
O1361	O136	0.482780	0.885750	0.120730
O1371	O137	0.476760	0.198210	0.840470
O1381	O138	0.462080	0.689430	0.101110
O1391	O139	0.552830	0.698240	0.146690
O1401	O140	0.441170	0.623890	0.990760
O1411	O141	0.350510	0.588930	0.884660
O1421	O142	0.557730	0.128150	0.892240
O1431	O143	0.392800	0.550730	0.834990
O1441	O144	0.610700	0.823700	0.771800
O1451	O145	0.602600	0.715700	0.712700
O1461	O146	0.593900	0.728500	0.634200
O1471	O147	0.745200	0.020100	0.952500
O1481	O148	0.379700	0.245100	0.337800
O1491	O149	0.369300	0.251700	0.256800
O1501	O150	0.438470	0.629710	0.263440
O1511	O151	0.582280	0.661360	0.514340
O1521	O152	0.439410	0.279320	0.641890
O1531	O153	0.379960	0.302500	0.451440
O1541	O154	0.530290	0.567510	0.493540
O1551	O155	0.434380	0.394830	0.470310
O1561	O156	0.527110	0.704080	0.348170
O1571	O157	0.517220	0.637950	0.402970
O1581	O158	0.523240	0.363710	0.721450
O1591	O159	0.537920	0.639030	0.227350
O1601	O160	0.447170	0.593860	0.145410
O1611	O161	0.558830	0.549590	0.182720
O1621	O162	0.649490	0.534150	0.238420
O1631	O163	0.442270	0.334510	0.570420
O1641	O164	0.607200	0.442190	0.157930
O1651	O165	0.389300	0.161100	0.213000
O1661	O166	0.397400	0.110100	0.113100
O1671	O167	0.406100	0.040300	0.134600
O1681	O168	0.254800	0.207300	0.274900
O1691	O169	0.337800	0.379700	0.245100
O1701	O170	0.256800	0.369300	0.251700
O1711	O171	0.263440	0.438470	0.629710
O1721	O172	0.514340	0.582280	0.661360
O1731	O173	0.641890	0.439410	0.279320
O1741	O174	0.451440	0.379960	0.302500
O1751	O175	0.493540	0.530290	0.567510
O1761	O176	0.470310	0.434380	0.394830
O1771	O177	0.348170	0.527110	0.704080
O1781	O178	0.402970	0.517220	0.637950
O1791	O179	0.721450	0.523240	0.363710
O1801	O180	0.227350	0.537920	0.639030
O1811	O181	0.145410	0.447170	0.593860
O1821	O182	0.182720	0.558830	0.549590
O1831	O183	0.238420	0.649490	0.534150
O1841	O184	0.570420	0.442270	0.334510
O1851	O185	0.157930	0.607200	0.442190
O1861	O186	0.213000	0.389300	0.161100
O1871	O187	0.113100	0.397400	0.110100
O1881	O188	0.134600	0.406100	0.040300
O1891	O189	0.274900	0.254800	0.207300
O1901	O190	0.865400	0.620300	0.958100
O1911	O191	0.882400	0.630700	0.887500
O1921	O192	0.191240	0.561530	0.824970
O1931	O193	0.079080	0.417720	0.932060
O1941	O194	0.839910	0.560590	0.202480
O1951	O195	0.922540	0.620040	0.071480
O1961	O196	0.037220	0.469710	0.963250
O1971	O197	0.960450	0.565620	0.035930
O1981	O198	0.176970	0.472890	0.821060
O1991	O199	0.120730	0.482780	0.885750
O2001	O200	0.840470	0.476760	0.198210
O2011	O201	0.101110	0.462080	0.689430
O2021	O202	0.146690	0.552830	0.698240
O2031	O203	0.990760	0.441170	0.623890
O2041	O204	0.884660	0.350510	0.588930
O2051	O205	0.892240	0.557730	0.128150
O2061	O206	0.834990	0.392800	0.550730
O2071	O207	0.771800	0.610700	0.823700
O2081	O208	0.712700	0.602600	0.715700
O2091	O209	0.634200	0.593900	0.728500
O2101	O210	0.952500	0.745200	0.020100
O2111	O211	0.662200	0.907300	0.041900
O2121	O212	0.743200	0.994900	0.112500
O2131	O213	0.736560	0.366270	0.175030
O2141	O214	0.485660	0.147020	0.067940
O2151	O215	0.358110	0.637430	0.797520
O2161	O216	0.548560	0.851060	0.928520
O2171	O217	0.506460	0.073970	0.036750
O2181	O218	0.529690	0.924520	0.964070
O2191	O219	0.651830	0.355910	0.178940
O2201	O220	0.597030	0.234980	0.114250
O2211	O221	0.278550	0.642260	0.801790
O2221	O222	0.772650	0.411680	0.310570
O2231	O223	0.854590	0.448450	0.301760
O2241	O224	0.817280	0.366870	0.376110
O2251	O225	0.761580	0.295730	0.411070
O2261	O226	0.429580	0.764090	0.871850
O2271	O227	0.842070	0.284260	0.449270
O2281	O228	0.787000	0.948100	0.176300
O2291	O229	0.886900	0.997000	0.284300
O2301	O230	0.865400	0.905700	0.271500
O2311	O231	0.725100	0.932400	0.979900
O2321	O232	0.134600	0.092700	0.754900
O2331	O233	0.117600	0.005100	0.748300
O2341	O234	0.808760	0.633730	0.370290
O2351	O235	0.920920	0.852980	0.338640
O2361	O236	0.160090	0.362570	0.720680
O2371	O237	0.077460	0.148940	0.697500
O2381	O238	0.962780	0.926030	0.432490
O2391	O239	0.039550	0.075480	0.605170
O2401	O240	0.823030	0.644090	0.295920
O2411	O241	0.879270	0.765020	0.362050
O2421	O242	0.159530	0.357740	0.636290
O2431	O243	0.898890	0.588320	0.360970
O2441	O244	0.853310	0.551550	0.406140
O2451	O245	0.009240	0.633130	0.450410
O2461	O246	0.115340	0.704270	0.465850
O2471	O247	0.107760	0.235910	0.665490
O2481	O248	0.165010	0.715740	0.557810
O2491	O249	0.228200	0.051900	0.838900
O2501	O250	0.287300	0.003000	0.889900
O2511	O251	0.365800	0.094300	0.959700
O2521	O252	0.047500	0.067600	0.792700
O2531	O253	0.000000	0.000000	0.659580
O2541	O254	0.000000	0.000000	0.377100
O2551	O255	0.340420	0.340420	0.340420
O2561	O256	0.622900	0.622900	0.622900
O2571	O257	0.659580	0.000000	0.000000
O2581	O258	0.377100	0.000000	0.000000
O2591	O259	0.000000	0.659580	0.000000
O2601	O260	0.000000	0.377100	0.000000
O2611	O261	0.743430	0.243430	0.500000
O2621	O262	0.256570	0.756570	0.500000
O2631	O263	0.500000	0.256570	0.756570
O2641	O264	0.500000	0.743430	0.243430
O2651	O265	0.243430	0.500000	0.743430
O2661	O266	0.756570	0.500000	0.256570
