data_YEKXOD_freeONLY_PM
_symmetry_space_group_name_H-M	'P1'
_cell_length_a	16.672700
_cell_length_b	17.591600
_cell_length_c	18.734000
_cell_angle_alpha	77.826700
_cell_angle_beta	63.577700
_cell_angle_gamma	61.713500
_symmetry_Int_Tables_number 1

loop_
_symmetry_equiv_pos_as_xyz
'x,y,z'

loop_
_atom_site_label
_atom_site_type_symbol
_atom_site_fract_x
_atom_site_fract_y
_atom_site_fract_z
Cu11	Cu1	0.000800	0.936880	0.052200
Cu21	Cu2	0.947000	0.563120	0.052200
Cu31	Cu3	0.562320	0.936880	0.447800
Cu41	Cu4	0.989880	0.563120	0.447800
Cu51	Cu5	0.999200	0.063120	0.947800
Cu61	Cu6	0.053000	0.436880	0.947800
Cu71	Cu7	0.437680	0.063120	0.552200
Cu81	Cu8	0.010120	0.436880	0.552200
H11	H1	0.091100	0.003400	0.205400
H21	H2	0.140800	0.058000	0.270200
H31	H3	0.103100	0.266000	0.128000
H41	H4	0.057100	0.210000	0.061000
H51	H5	0.320200	0.954000	0.786400
H61	H6	0.490700	0.882000	0.731400
H71	H7	0.482500	0.725800	0.921800
H81	H8	0.312200	0.794600	0.974800
H91	H9	0.121900	0.790200	0.157000
H101	H10	0.258600	0.618600	0.040600
H111	H11	0.197300	0.567000	0.056000
H121	H12	0.236500	0.564600	0.119000
H131	H13	0.982700	0.711600	0.209600
H141	H14	0.060400	0.622000	0.225600
H151	H15	0.015900	0.628800	0.165000
H161	H16	0.703500	0.496600	0.205400
H171	H17	0.589000	0.442000	0.270200
H181	H18	0.768900	0.234000	0.128000
H191	H19	0.881900	0.290000	0.061000
H201	H20	0.893400	0.546000	0.786400
H211	H21	0.777900	0.618000	0.731400
H221	H22	0.595700	0.774200	0.921800
H231	H23	0.713000	0.705400	0.974800
H241	H24	0.721100	0.709800	0.157000
H251	H25	0.700800	0.881400	0.040600
H261	H26	0.746700	0.933000	0.056000
H271	H27	0.644500	0.935400	0.119000
H281	H28	0.807700	0.788400	0.209600
H291	H29	0.714000	0.878000	0.225600
H301	H30	0.819100	0.871200	0.165000
H311	H31	0.405500	0.003400	0.294600
H321	H32	0.301200	0.058000	0.229800
H331	H33	0.130900	0.266000	0.372000
H341	H34	0.232900	0.210000	0.439000
H351	H35	0.225800	0.954000	0.713600
H361	H36	0.127300	0.882000	0.768600
H371	H37	0.291700	0.725800	0.578200
H381	H38	0.393200	0.794600	0.525200
H391	H39	0.587900	0.790200	0.343000
H401	H40	0.622800	0.618600	0.459400
H411	H41	0.735700	0.567000	0.444000
H421	H42	0.698900	0.564600	0.381000
H431	H43	0.805700	0.711600	0.290400
H441	H44	0.817600	0.622000	0.274400
H451	H45	0.855300	0.628800	0.335000
H461	H46	0.299900	0.496600	0.294600
H471	H47	0.469000	0.442000	0.229800
H481	H48	0.497100	0.234000	0.372000
H491	H49	0.328100	0.290000	0.439000
H501	H50	0.060600	0.546000	0.713600
H511	H51	0.104100	0.618000	0.768600
H521	H52	0.130100	0.774200	0.578200
H531	H53	0.081600	0.705400	0.525200
H541	H54	0.069100	0.709800	0.343000
H551	H55	0.917800	0.881400	0.459400
H561	H56	0.820300	0.933000	0.444000
H571	H57	0.920100	0.935400	0.381000
H581	H58	0.903900	0.788400	0.290400
H591	H59	0.908000	0.878000	0.274400
H601	H60	0.809700	0.871200	0.335000
H611	H61	0.908900	0.996600	0.794600
H621	H62	0.859200	0.942000	0.729800
H631	H63	0.896900	0.734000	0.872000
H641	H64	0.942900	0.790000	0.939000
H651	H65	0.679800	0.046000	0.213600
H661	H66	0.509300	0.118000	0.268600
H671	H67	0.517500	0.274200	0.078200
H681	H68	0.687800	0.205400	0.025200
H691	H69	0.878100	0.209800	0.843000
H701	H70	0.741400	0.381400	0.959400
H711	H71	0.802700	0.433000	0.944000
H721	H72	0.763500	0.435400	0.881000
H731	H73	0.017300	0.288400	0.790400
H741	H74	0.939600	0.378000	0.774400
H751	H75	0.984100	0.371200	0.835000
H761	H76	0.296500	0.503400	0.794600
H771	H77	0.411000	0.558000	0.729800
H781	H78	0.231100	0.766000	0.872000
H791	H79	0.118100	0.710000	0.939000
H801	H80	0.106600	0.454000	0.213600
H811	H81	0.222100	0.382000	0.268600
H821	H82	0.404300	0.225800	0.078200
H831	H83	0.287000	0.294600	0.025200
H841	H84	0.278900	0.290200	0.843000
H851	H85	0.299200	0.118600	0.959400
H861	H86	0.253300	0.067000	0.944000
H871	H87	0.355500	0.064600	0.881000
H881	H88	0.192300	0.211600	0.790400
H891	H89	0.286000	0.122000	0.774400
H901	H90	0.180900	0.128800	0.835000
H911	H91	0.594500	0.996600	0.705400
H921	H92	0.698800	0.942000	0.770200
H931	H93	0.869100	0.734000	0.628000
H941	H94	0.767100	0.790000	0.561000
H951	H95	0.774200	0.046000	0.286400
H961	H96	0.872700	0.118000	0.231400
H971	H97	0.708300	0.274200	0.421800
H981	H98	0.606800	0.205400	0.474800
H991	H99	0.412100	0.209800	0.657000
H1001	H100	0.377200	0.381400	0.540600
H1011	H101	0.264300	0.433000	0.556000
H1021	H102	0.301100	0.435400	0.619000
H1031	H103	0.194300	0.288400	0.709600
H1041	H104	0.182400	0.378000	0.725600
H1051	H105	0.144700	0.371200	0.665000
H1061	H106	0.700100	0.503400	0.705400
H1071	H107	0.531000	0.558000	0.770200
H1081	H108	0.502900	0.766000	0.628000
H1091	H109	0.671900	0.710000	0.561000
H1101	H110	0.939400	0.454000	0.286400
H1111	H111	0.895900	0.382000	0.231400
H1121	H112	0.869900	0.225800	0.421800
H1131	H113	0.918400	0.294600	0.474800
H1141	H114	0.930900	0.290200	0.657000
H1151	H115	0.082200	0.118600	0.540600
H1161	H116	0.179700	0.067000	0.556000
H1171	H117	0.079900	0.064600	0.619000
H1181	H118	0.096100	0.211600	0.709600
H1191	H119	0.092000	0.122000	0.725600
H1201	H120	0.190300	0.128800	0.665000
H1211	H121	0.118100	0.263800	0.250000
H1221	H122	0.631900	0.236200	0.250000
H1231	H123	0.881900	0.736200	0.750000
H1241	H124	0.368100	0.763800	0.750000
H1251	H125	0.634300	0.750000	0.731400
H1261	H126	0.115700	0.750000	0.768600
H1271	H127	0.365700	0.250000	0.268600
H1281	H128	0.884300	0.250000	0.231400
C11	C1	0.069960	0.099840	0.125040
C21	C2	0.094360	0.056040	0.189240
C31	C3	0.122770	0.089120	0.228740
C41	C4	0.125190	0.169140	0.207280
C51	C5	0.100800	0.213060	0.143540
C61	C6	0.073460	0.179460	0.103220
C71	C7	0.039090	0.063620	0.082400
C81	C8	0.186580	0.926040	0.922800
C91	C9	0.297960	0.881660	0.886620
C101	C10	0.352760	0.907560	0.813320
C111	C11	0.455040	0.864420	0.780500
C121	C12	0.506210	0.794920	0.819460
C131	C13	0.450210	0.770760	0.893820
C141	C14	0.348100	0.812740	0.925960
C151	C15	0.090500	0.773000	0.137600
C161	C16	0.210600	0.600000	0.080600
C171	C17	0.037300	0.657800	0.186000
C181	C18	0.805000	0.400160	0.125040
C191	C19	0.716400	0.443960	0.189240
C201	C20	0.648490	0.410880	0.228740
C211	C21	0.667530	0.330860	0.207280
C221	C22	0.755660	0.286940	0.143540
C231	C23	0.823320	0.320540	0.103220
C241	C24	0.878510	0.436380	0.082400
C251	C25	0.890620	0.573960	0.922800
C261	C26	0.815420	0.618340	0.886620
C271	C27	0.833920	0.592440	0.813320
C281	C28	0.764460	0.635580	0.780500
C291	C29	0.674330	0.705080	0.819460
C301	C30	0.655970	0.729240	0.893820
C311	C31	0.725940	0.687260	0.925960
C321	C32	0.771900	0.727000	0.137600
C331	C33	0.708800	0.900000	0.080600
C341	C34	0.776700	0.842200	0.186000
C351	C35	0.330200	0.099840	0.374960
C361	C36	0.349600	0.056040	0.310760
C371	C37	0.288110	0.089120	0.271260
C381	C38	0.205670	0.169140	0.292720
C391	C39	0.186140	0.213060	0.356460
C401	C40	0.247080	0.179460	0.396780
C411	C41	0.397290	0.063620	0.417600
C421	C42	0.387380	0.926040	0.577200
C431	C43	0.320380	0.881660	0.613380
C441	C44	0.239680	0.907560	0.686680
C451	C45	0.180540	0.864420	0.719500
C461	C46	0.198870	0.794920	0.680540
C471	C47	0.279030	0.770760	0.606180
C481	C48	0.339160	0.812740	0.574040
C491	C49	0.636500	0.773000	0.362400
C501	C50	0.689400	0.600000	0.419400
C511	C51	0.804900	0.657800	0.314000
C521	C52	0.294840	0.400160	0.374960
C531	C53	0.339640	0.443960	0.310760
C541	C54	0.440630	0.410880	0.271260
C551	C55	0.501610	0.330860	0.292720
C561	C56	0.457400	0.286940	0.356460
C571	C57	0.356140	0.320540	0.396780
C581	C58	0.185110	0.436380	0.417600
C591	C59	0.035420	0.573960	0.577200
C601	C60	0.066240	0.618340	0.613380
C611	C61	0.073640	0.592440	0.686680
C621	C62	0.099960	0.635580	0.719500
C631	C63	0.120590	0.705080	0.680540
C641	C64	0.114790	0.729240	0.606180
C651	C65	0.086800	0.687260	0.574040
C661	C66	0.001100	0.727000	0.362400
C671	C67	0.891200	0.900000	0.419400
C681	C68	0.881100	0.842200	0.314000
C691	C69	0.930040	0.900160	0.874960
C701	C70	0.905640	0.943960	0.810760
C711	C71	0.877230	0.910880	0.771260
C721	C72	0.874810	0.830860	0.792720
C731	C73	0.899200	0.786940	0.856460
C741	C74	0.926540	0.820540	0.896780
C751	C75	0.960910	0.936380	0.917600
C761	C76	0.813420	0.073960	0.077200
C771	C77	0.702040	0.118340	0.113380
C781	C78	0.647240	0.092440	0.186680
C791	C79	0.544960	0.135580	0.219500
C801	C80	0.493790	0.205080	0.180540
C811	C81	0.549790	0.229240	0.106180
C821	C82	0.651900	0.187260	0.074040
C831	C83	0.909500	0.227000	0.862400
C841	C84	0.789400	0.400000	0.919400
C851	C85	0.962700	0.342200	0.814000
C861	C86	0.195000	0.599840	0.874960
C871	C87	0.283600	0.556040	0.810760
C881	C88	0.351510	0.589120	0.771260
C891	C89	0.332470	0.669140	0.792720
C901	C90	0.244340	0.713060	0.856460
C911	C91	0.176680	0.679460	0.896780
C921	C92	0.121490	0.563620	0.917600
C931	C93	0.109380	0.426040	0.077200
C941	C94	0.184580	0.381660	0.113380
C951	C95	0.166080	0.407560	0.186680
C961	C96	0.235540	0.364420	0.219500
C971	C97	0.325670	0.294920	0.180540
C981	C98	0.344030	0.270760	0.106180
C991	C99	0.274060	0.312740	0.074040
C1001	C100	0.228100	0.273000	0.862400
C1011	C101	0.291200	0.100000	0.919400
C1021	C102	0.223300	0.157800	0.814000
C1031	C103	0.669800	0.900160	0.625040
C1041	C104	0.650400	0.943960	0.689240
C1051	C105	0.711890	0.910880	0.728740
C1061	C106	0.794330	0.830860	0.707280
C1071	C107	0.813860	0.786940	0.643540
C1081	C108	0.752920	0.820540	0.603220
C1091	C109	0.602710	0.936380	0.582400
C1101	C110	0.612620	0.073960	0.422800
C1111	C111	0.679620	0.118340	0.386620
C1121	C112	0.760320	0.092440	0.313320
C1131	C113	0.819460	0.135580	0.280500
C1141	C114	0.801130	0.205080	0.319460
C1151	C115	0.720970	0.229240	0.393820
C1161	C116	0.660840	0.187260	0.425960
C1171	C117	0.363500	0.227000	0.637600
C1181	C118	0.310600	0.400000	0.580600
C1191	C119	0.195100	0.342200	0.686000
C1201	C120	0.705160	0.599840	0.625040
C1211	C121	0.660360	0.556040	0.689240
C1221	C122	0.559370	0.589120	0.728740
C1231	C123	0.498390	0.669140	0.707280
C1241	C124	0.542600	0.713060	0.643540
C1251	C125	0.643860	0.679460	0.603220
C1261	C126	0.814890	0.563620	0.582400
C1271	C127	0.964580	0.426040	0.422800
C1281	C128	0.933760	0.381660	0.386620
C1291	C129	0.926360	0.407560	0.313320
C1301	C130	0.900040	0.364420	0.280500
C1311	C131	0.879410	0.294920	0.319460
C1321	C132	0.885210	0.270760	0.393820
C1331	C133	0.913200	0.312740	0.425960
C1341	C134	0.998900	0.273000	0.637600
C1351	C135	0.108800	0.100000	0.580600
C1361	C136	0.118900	0.157800	0.686000
N11	N1	0.119400	0.674600	0.120200
N21	N2	0.760400	0.825400	0.120200
N31	N3	0.706000	0.674600	0.379800
N41	N4	0.914200	0.825400	0.379800
N51	N5	0.880600	0.325400	0.879800
N61	N6	0.239600	0.174600	0.879800
N71	N7	0.294000	0.325400	0.620200
N81	N8	0.085800	0.174600	0.620200
N91	N9	0.145820	0.208360	0.250000
N101	N10	0.604180	0.291640	0.250000
N111	N11	0.854180	0.791640	0.750000
N121	N12	0.395820	0.708360	0.750000
N131	N13	0.608680	0.750000	0.782640
N141	N14	0.141320	0.750000	0.717360
N151	N15	0.391320	0.250000	0.217360
N161	N16	0.858680	0.250000	0.282640
O11	O1	0.143410	0.890260	0.983120
O21	O2	0.026520	0.996440	0.110720
O31	O3	0.026600	0.102820	0.020980
O41	O4	0.021230	0.818920	0.120640
O51	O5	0.143380	0.995580	0.891660
O61	O6	0.873470	0.609740	0.983120
O71	O7	0.862760	0.503560	0.110720
O81	O8	0.952420	0.397180	0.020980
O91	O9	0.858130	0.681080	0.120640
O101	O10	0.964960	0.504420	0.891660
O111	O11	0.466330	0.890260	0.516880
O121	O12	0.477040	0.996440	0.389280
O131	O13	0.370580	0.102820	0.479020
O141	O14	0.659850	0.818920	0.379360
O151	O15	0.361040	0.995580	0.608340
O161	O16	0.016790	0.609740	0.516880
O171	O17	0.133680	0.503560	0.389280
O181	O18	0.150400	0.397180	0.479020
O191	O19	0.960790	0.681080	0.379360
O201	O20	0.030620	0.504420	0.608340
O211	O21	0.856590	0.109740	0.016880
O221	O22	0.973480	0.003560	0.889280
O231	O23	0.973400	0.897180	0.979020
O241	O24	0.978770	0.181080	0.879360
O251	O25	0.856620	0.004420	0.108340
O261	O26	0.126530	0.390260	0.016880
O271	O27	0.137240	0.496440	0.889280
O281	O28	0.047580	0.602820	0.979020
O291	O29	0.141870	0.318920	0.879360
O301	O30	0.035040	0.495580	0.108340
O311	O31	0.533670	0.109740	0.483120
O321	O32	0.522960	0.003560	0.610720
O331	O33	0.629420	0.897180	0.520980
O341	O34	0.340150	0.181080	0.620640
O351	O35	0.638960	0.004420	0.391660
O361	O36	0.983210	0.390260	0.483120
O371	O37	0.866320	0.496440	0.610720
O381	O38	0.849600	0.602820	0.520980
O391	O39	0.039210	0.318920	0.620640
O401	O40	0.969380	0.495580	0.391660
