data_YEVQOG_freeONLY_PM
_symmetry_space_group_name_H-M	'P1'
_cell_length_a	23.510000
_cell_length_b	23.510000
_cell_length_c	23.510000
_cell_angle_alpha	109.471000
_cell_angle_beta	109.471000
_cell_angle_gamma	109.471000
_symmetry_Int_Tables_number 1

loop_
_symmetry_equiv_pos_as_xyz
'x,y,z'

loop_
_atom_site_label
_atom_site_type_symbol
_atom_site_fract_x
_atom_site_fract_y
_atom_site_fract_z
Ag11	Ag1	0.016080	0.596040	0.051740
Ag21	Ag2	0.635810	0.644200	0.051110
Ag31	Ag3	0.044300	0.964340	0.448260
Ag41	Ag4	0.093090	0.584700	0.448890
Ag51	Ag5	0.455700	0.903960	0.920040
Ag61	Ag6	0.406910	0.855800	0.491610
Ag71	Ag7	0.483920	0.535660	0.579960
Ag81	Ag8	0.864190	0.915300	0.008390
Ag91	Ag9	0.420040	0.455700	0.403960
Ag101	Ag10	0.991610	0.406910	0.355800
Ag111	Ag11	0.079960	0.483920	0.035660
Ag121	Ag12	0.508390	0.864190	0.415300
Ag131	Ag13	0.551740	0.016080	0.096040
Ag141	Ag14	0.551110	0.635810	0.144200
Ag151	Ag15	0.948260	0.044300	0.464340
Ag161	Ag16	0.948890	0.093090	0.084700
Ag171	Ag17	0.964340	0.948260	0.544300
Ag181	Ag18	0.584700	0.948890	0.593090
Ag191	Ag19	0.596040	0.551740	0.516080
Ag201	Ag20	0.644200	0.551110	0.135810
Ag211	Ag21	0.535660	0.079960	0.983920
Ag221	Ag22	0.915300	0.508390	0.364190
Ag231	Ag23	0.903960	0.420040	0.955700
Ag241	Ag24	0.855800	0.991610	0.906910
H11	H1	0.888000	0.681000	0.096600
H21	H2	0.915200	0.685500	0.044100
H31	H3	0.961400	0.687300	0.112100
H41	H4	0.709200	0.406500	0.951500
H51	H5	0.762500	0.378600	0.960700
H61	H6	0.726600	0.380100	0.891500
H71	H7	0.693300	0.622400	0.949300
H81	H8	0.753500	0.607800	0.945700
H91	H9	0.772000	0.677000	0.008400
H101	H10	0.708400	0.451200	0.087400
H111	H11	0.775900	0.519800	0.153100
H121	H12	0.780700	0.475300	0.089200
H131	H13	0.084400	0.791400	0.403400
H141	H14	0.141400	0.871100	0.455900
H151	H15	0.075200	0.849300	0.387900
H161	H16	0.955000	0.757700	0.548500
H171	H17	0.917900	0.801800	0.539300
H181	H18	0.988600	0.835100	0.608500
H191	H19	0.173100	0.744000	0.550700
H201	H20	0.162100	0.807800	0.554300
H211	H21	0.168600	0.763600	0.491600
H221	H22	0.863800	0.621000	0.412600
H231	H23	0.866700	0.622800	0.346900
H241	H24	0.886100	0.691500	0.410800
H251	H25	0.415600	0.819000	0.707000
H261	H26	0.358600	0.814500	0.729700
H271	H27	0.424800	0.812700	0.774100
H281	H28	0.545000	0.093500	0.802700
H291	H29	0.582100	0.121400	0.883900
H301	H30	0.511400	0.119900	0.846500
H311	H31	0.326900	0.877600	0.570900
H321	H32	0.337900	0.892200	0.645700
H331	H33	0.331400	0.823000	0.595000
H341	H34	0.636200	0.048800	0.757200
H351	H35	0.633300	0.980200	0.756100
H361	H36	0.613900	0.024700	0.805400
H371	H37	0.612000	0.708600	0.793000
H381	H38	0.584800	0.628900	0.770300
H391	H39	0.538600	0.650700	0.725900
H401	H40	0.790800	0.742300	0.697300
H411	H41	0.737500	0.698200	0.616100
H421	H42	0.773400	0.664900	0.653500
H431	H43	0.806700	0.756000	0.929100
H441	H44	0.746500	0.692200	0.854300
H451	H45	0.728000	0.736400	0.905000
H461	H46	0.791600	0.879000	0.742800
H471	H47	0.724100	0.877200	0.743900
H481	H48	0.719300	0.808500	0.694600
H491	H49	0.207000	0.415600	0.319000
H501	H50	0.229700	0.358600	0.314500
H511	H51	0.274100	0.424800	0.312700
H521	H52	0.302700	0.545000	0.593500
H531	H53	0.383900	0.582100	0.621400
H541	H54	0.346500	0.511400	0.619900
H551	H55	0.070900	0.326900	0.377600
H561	H56	0.145700	0.337900	0.392200
H571	H57	0.095000	0.331400	0.323000
H581	H58	0.257200	0.636200	0.548800
H591	H59	0.256100	0.633300	0.480200
H601	H60	0.305400	0.613900	0.524700
H611	H61	0.293000	0.612000	0.208600
H621	H62	0.270300	0.584800	0.128900
H631	H63	0.225900	0.538600	0.150700
H641	H64	0.197300	0.790800	0.242300
H651	H65	0.116100	0.737500	0.198200
H661	H66	0.153500	0.773400	0.164900
H671	H67	0.429100	0.806700	0.256000
H681	H68	0.354300	0.746500	0.192200
H691	H69	0.405000	0.728000	0.236400
H701	H70	0.242800	0.791600	0.379000
H711	H71	0.243900	0.724100	0.377200
H721	H72	0.194600	0.719300	0.308500
H731	H73	0.596600	0.888000	0.181000
H741	H74	0.544100	0.915200	0.185500
H751	H75	0.612100	0.961400	0.187300
H761	H76	0.451500	0.709200	0.906500
H771	H77	0.460700	0.762500	0.878600
H781	H78	0.391500	0.726600	0.880100
H791	H79	0.449300	0.693300	0.122400
H801	H80	0.445700	0.753500	0.107800
H811	H81	0.508400	0.772000	0.177000
H821	H82	0.587400	0.708400	0.951200
H831	H83	0.653100	0.775900	0.019800
H841	H84	0.589200	0.780700	0.975300
H851	H85	0.903400	0.084400	0.291400
H861	H86	0.955900	0.141400	0.371100
H871	H87	0.887900	0.075200	0.349300
H881	H88	0.048500	0.955000	0.257700
H891	H89	0.039300	0.917900	0.301800
H901	H90	0.108500	0.988600	0.335100
H911	H91	0.050700	0.173100	0.244000
H921	H92	0.054300	0.162100	0.307800
H931	H93	0.991600	0.168600	0.263600
H941	H94	0.912600	0.863800	0.121000
H951	H95	0.846900	0.866700	0.122800
H961	H96	0.910800	0.886100	0.191500
H971	H97	0.791400	0.903400	0.584400
H981	H98	0.871100	0.955900	0.641400
H991	H99	0.849300	0.887900	0.575200
H1001	H100	0.757700	0.048500	0.455000
H1011	H101	0.801800	0.039300	0.417900
H1021	H102	0.835100	0.108500	0.488600
H1031	H103	0.744000	0.050700	0.673100
H1041	H104	0.807800	0.054300	0.662100
H1051	H105	0.763600	0.991600	0.668600
H1061	H106	0.621000	0.912600	0.363800
H1071	H107	0.622800	0.846900	0.366700
H1081	H108	0.691500	0.910800	0.386100
H1091	H109	0.681000	0.596600	0.388000
H1101	H110	0.685500	0.544100	0.415200
H1111	H111	0.687300	0.612100	0.461400
H1121	H112	0.406500	0.451500	0.209200
H1131	H113	0.378600	0.460700	0.262500
H1141	H114	0.380100	0.391500	0.226600
H1151	H115	0.622400	0.449300	0.193300
H1161	H116	0.607800	0.445700	0.253500
H1171	H117	0.677000	0.508400	0.272000
H1181	H118	0.451200	0.587400	0.208400
H1191	H119	0.519800	0.653100	0.275900
H1201	H120	0.475300	0.589200	0.280700
H1211	H121	0.708600	0.293000	0.112000
H1221	H122	0.628900	0.270300	0.084800
H1231	H123	0.650700	0.225900	0.038600
H1241	H124	0.742300	0.197300	0.290800
H1251	H125	0.698200	0.116100	0.237500
H1261	H126	0.664900	0.153500	0.273400
H1271	H127	0.756000	0.429100	0.306700
H1281	H128	0.692200	0.354300	0.246500
H1291	H129	0.736400	0.405000	0.228000
H1301	H130	0.879000	0.242800	0.291600
H1311	H131	0.877200	0.243900	0.224100
H1321	H132	0.808500	0.194600	0.219300
H1331	H133	0.819000	0.207000	0.915600
H1341	H134	0.814500	0.229700	0.858600
H1351	H135	0.812700	0.274100	0.924800
H1361	H136	0.093500	0.302700	0.045000
H1371	H137	0.121400	0.383900	0.082100
H1381	H138	0.119900	0.346500	0.011400
H1391	H139	0.877600	0.070900	0.826900
H1401	H140	0.892200	0.145700	0.837900
H1411	H141	0.823000	0.095000	0.831400
H1421	H142	0.048800	0.257200	0.136200
H1431	H143	0.980200	0.256100	0.133300
H1441	H144	0.024700	0.305400	0.113900
C11	C1	0.914200	0.667800	0.075800
C21	C2	0.880200	0.590200	0.036600
C31	C3	0.811500	0.539600	0.012900
C41	C4	0.806400	0.479100	0.974900
C51	C5	0.745400	0.403900	0.941500
C61	C6	0.738100	0.627800	0.976500
C71	C7	0.731300	0.591400	0.017300
C81	C8	0.759800	0.552500	0.031300
C91	C9	0.736900	0.532300	0.070800
C101	C10	0.751700	0.491100	0.102800
C111	C11	0.092000	0.838400	0.424200
C121	C12	0.053600	0.843600	0.463400
C131	C13	0.026700	0.798600	0.487100
C141	C14	0.004200	0.831500	0.525100
C151	C15	0.962400	0.803900	0.558500
C161	C16	0.151300	0.761600	0.523500
C171	C17	0.074100	0.714000	0.482700
C181	C18	0.021200	0.728500	0.468700
C191	C19	0.961500	0.666100	0.429200
C201	C20	0.888300	0.648900	0.397200
C211	C21	0.408000	0.832200	0.746400
C221	C22	0.446400	0.909800	0.790000
C231	C23	0.473300	0.960400	0.771900
C241	C24	0.495800	0.020900	0.827300
C251	C25	0.537600	0.096100	0.841500
C261	C26	0.348700	0.872200	0.610300
C271	C27	0.425900	0.908600	0.639900
C281	C28	0.478800	0.947500	0.707300
C291	C29	0.538500	0.967700	0.704600
C301	C30	0.611700	0.008900	0.760600
C311	C31	0.585800	0.661600	0.753600
C321	C32	0.619800	0.656400	0.710000
C331	C33	0.688500	0.701400	0.728100
C341	C34	0.693600	0.668500	0.672700
C351	C35	0.754600	0.696100	0.658500
C361	C36	0.761900	0.738400	0.889700
C371	C37	0.768700	0.786000	0.860100
C381	C38	0.740200	0.771500	0.792700
C391	C39	0.763100	0.833900	0.795400
C401	C40	0.748300	0.851100	0.739400
C411	C41	0.246400	0.408000	0.332200
C421	C42	0.290000	0.446400	0.409800
C431	C43	0.271900	0.473300	0.460400
C441	C44	0.327300	0.495800	0.520900
C451	C45	0.341500	0.537600	0.596100
C461	C46	0.110300	0.348700	0.372200
C471	C47	0.139900	0.425900	0.408600
C481	C48	0.207300	0.478800	0.447500
C491	C49	0.204600	0.538500	0.467700
C501	C50	0.260600	0.611700	0.508900
C511	C51	0.253600	0.585800	0.161600
C521	C52	0.210000	0.619800	0.156400
C531	C53	0.228100	0.688500	0.201400
C541	C54	0.172700	0.693600	0.168500
C551	C55	0.158500	0.754600	0.196100
C561	C56	0.389700	0.761900	0.238400
C571	C57	0.360100	0.768700	0.286000
C581	C58	0.292700	0.740200	0.271500
C591	C59	0.295400	0.763100	0.333900
C601	C60	0.239400	0.748300	0.351100
C611	C61	0.575800	0.914200	0.167800
C621	C62	0.536600	0.880200	0.090200
C631	C63	0.512900	0.811500	0.039600
C641	C64	0.474900	0.806400	0.979100
C651	C65	0.441500	0.745400	0.903900
C661	C66	0.476500	0.738100	0.127800
C671	C67	0.517300	0.731300	0.091400
C681	C68	0.531300	0.759800	0.052500
C691	C69	0.570800	0.736900	0.032300
C701	C70	0.602800	0.751700	0.991100
C711	C71	0.924200	0.092000	0.338400
C721	C72	0.963400	0.053600	0.343600
C731	C73	0.987100	0.026700	0.298600
C741	C74	0.025100	0.004200	0.331500
C751	C75	0.058500	0.962400	0.303900
C761	C76	0.023500	0.151300	0.261600
C771	C77	0.982700	0.074100	0.214000
C781	C78	0.968700	0.021200	0.228500
C791	C79	0.929200	0.961500	0.166100
C801	C80	0.897200	0.888300	0.148900
C811	C81	0.838400	0.924200	0.592000
C821	C82	0.843600	0.963400	0.553600
C831	C83	0.798600	0.987100	0.526700
C841	C84	0.831500	0.025100	0.504200
C851	C85	0.803900	0.058500	0.462400
C861	C86	0.761600	0.023500	0.651300
C871	C87	0.714000	0.982700	0.574100
C881	C88	0.728500	0.968700	0.521200
C891	C89	0.666100	0.929200	0.461500
C901	C90	0.648900	0.897200	0.388300
C911	C91	0.667800	0.575800	0.414200
C921	C92	0.590200	0.536600	0.380200
C931	C93	0.539600	0.512900	0.311500
C941	C94	0.479100	0.474900	0.306400
C951	C95	0.403900	0.441500	0.245400
C961	C96	0.627800	0.476500	0.238100
C971	C97	0.591400	0.517300	0.231300
C981	C98	0.552500	0.531300	0.259800
C991	C99	0.532300	0.570800	0.236900
C1001	C100	0.491100	0.602800	0.251700
C1011	C101	0.661600	0.253600	0.085800
C1021	C102	0.656400	0.210000	0.119800
C1031	C103	0.701400	0.228100	0.188500
C1041	C104	0.668500	0.172700	0.193600
C1051	C105	0.696100	0.158500	0.254600
C1061	C106	0.738400	0.389700	0.261900
C1071	C107	0.786000	0.360100	0.268700
C1081	C108	0.771500	0.292700	0.240200
C1091	C109	0.833900	0.295400	0.263100
C1101	C110	0.851100	0.239400	0.248300
C1111	C111	0.832200	0.246400	0.908000
C1121	C112	0.909800	0.290000	0.946400
C1131	C113	0.960400	0.271900	0.973300
C1141	C114	0.020900	0.327300	0.995800
C1151	C115	0.096100	0.341500	0.037600
C1161	C116	0.872200	0.110300	0.848700
C1171	C117	0.908600	0.139900	0.925900
C1181	C118	0.947500	0.207300	0.978800
C1191	C119	0.967700	0.204600	0.038500
C1201	C120	0.008900	0.260600	0.111700
N11	N1	0.911600	0.557500	0.011900
N21	N2	0.865900	0.486500	0.974800
N31	N3	0.694100	0.596400	0.050100
N41	N4	0.697600	0.557900	0.082900
N51	N5	0.045600	0.899700	0.488100
N61	N6	0.011700	0.891100	0.525200
N71	N7	0.046300	0.644000	0.449900
N81	N8	0.975000	0.614700	0.417100
N91	N9	0.454400	0.942500	0.854100
N101	N10	0.488300	0.013500	0.879400
N111	N11	0.453700	0.903600	0.597700
N121	N12	0.525000	0.942100	0.639700
N131	N13	0.588400	0.600300	0.645900
N141	N14	0.634100	0.608900	0.620600
N151	N15	0.805900	0.856000	0.902300
N161	N16	0.802400	0.885300	0.860300
N171	N17	0.354100	0.454400	0.442500
N181	N18	0.379400	0.488300	0.513500
N191	N19	0.097700	0.453700	0.403600
N201	N20	0.139700	0.525000	0.442100
N211	N21	0.145900	0.588400	0.100300
N221	N22	0.120600	0.634100	0.108900
N231	N23	0.402300	0.805900	0.356000
N241	N24	0.360300	0.802400	0.385300
N251	N25	0.511900	0.911600	0.057500
N261	N26	0.474800	0.865900	0.986500
N271	N27	0.550100	0.694100	0.096400
N281	N28	0.582900	0.697600	0.057900
N291	N29	0.988100	0.045600	0.399700
N301	N30	0.025200	0.011700	0.391100
N311	N31	0.949900	0.046300	0.144000
N321	N32	0.917100	0.975000	0.114700
N331	N33	0.899700	0.988100	0.545600
N341	N34	0.891100	0.025200	0.511700
N351	N35	0.644000	0.949900	0.546300
N361	N36	0.614700	0.917100	0.475000
N371	N37	0.557500	0.511900	0.411600
N381	N38	0.486500	0.474800	0.365900
N391	N39	0.596400	0.550100	0.194100
N401	N40	0.557900	0.582900	0.197600
N411	N41	0.600300	0.145900	0.088400
N421	N42	0.608900	0.120600	0.134100
N431	N43	0.856000	0.402300	0.305900
N441	N44	0.885300	0.360300	0.302400
N451	N45	0.942500	0.354100	0.954400
N461	N46	0.013500	0.379400	0.988300
N471	N47	0.903600	0.097700	0.953700
N481	N48	0.942100	0.139700	0.025000
Ag251	Ag25	0.464340	0.544300	0.948260
Ag261	Ag26	0.084700	0.593090	0.948890
Ag271	Ag27	0.096040	0.516080	0.551740
Ag281	Ag28	0.144200	0.135810	0.551110
Ag291	Ag29	0.035660	0.983920	0.079960
Ag301	Ag30	0.415300	0.364190	0.508390
Ag311	Ag31	0.403960	0.955700	0.420040
Ag321	Ag32	0.355800	0.906910	0.991610
Ag331	Ag33	0.516080	0.051740	0.596040
Ag341	Ag34	0.135810	0.051110	0.644200
Ag351	Ag35	0.544300	0.448260	0.964340
Ag361	Ag36	0.593090	0.448890	0.584700
Ag371	Ag37	0.955700	0.920040	0.903960
Ag381	Ag38	0.906910	0.491610	0.855800
Ag391	Ag39	0.983920	0.579960	0.535660
Ag401	Ag40	0.364190	0.008390	0.915300
Ag411	Ag41	0.920040	0.403960	0.455700
Ag421	Ag42	0.491610	0.355800	0.406910
Ag431	Ag43	0.579960	0.035660	0.483920
Ag441	Ag44	0.008390	0.415300	0.864190
Ag451	Ag45	0.051740	0.096040	0.016080
Ag461	Ag46	0.051110	0.144200	0.635810
Ag471	Ag47	0.448260	0.464340	0.044300
Ag481	Ag48	0.448890	0.084700	0.093090
H1451	H145	0.291400	0.584400	0.903400
H1461	H146	0.371100	0.641400	0.955900
H1471	H147	0.349300	0.575200	0.887900
H1481	H148	0.257700	0.455000	0.048500
H1491	H149	0.301800	0.417900	0.039300
H1501	H150	0.335100	0.488600	0.108500
H1511	H151	0.244000	0.673100	0.050700
H1521	H152	0.307800	0.662100	0.054300
H1531	H153	0.263600	0.668600	0.991600
H1541	H154	0.121000	0.363800	0.912600
H1551	H155	0.122800	0.366700	0.846900
H1561	H156	0.191500	0.386100	0.910800
H1571	H157	0.181000	0.388000	0.596600
H1581	H158	0.185500	0.415200	0.544100
H1591	H159	0.187300	0.461400	0.612100
H1601	H160	0.906500	0.209200	0.451500
H1611	H161	0.878600	0.262500	0.460700
H1621	H162	0.880100	0.226600	0.391500
H1631	H163	0.122400	0.193300	0.449300
H1641	H164	0.107800	0.253500	0.445700
H1651	H165	0.177000	0.272000	0.508400
H1661	H166	0.951200	0.208400	0.587400
H1671	H167	0.019800	0.275900	0.653100
H1681	H168	0.975300	0.280700	0.589200
H1691	H169	0.208600	0.112000	0.293000
H1701	H170	0.128900	0.084800	0.270300
H1711	H171	0.150700	0.038600	0.225900
H1721	H172	0.242300	0.290800	0.197300
H1731	H173	0.198200	0.237500	0.116100
H1741	H174	0.164900	0.273400	0.153500
H1751	H175	0.256000	0.306700	0.429100
H1761	H176	0.192200	0.246500	0.354300
H1771	H177	0.236400	0.228000	0.405000
H1781	H178	0.379000	0.291600	0.242800
H1791	H179	0.377200	0.224100	0.243900
H1801	H180	0.308500	0.219300	0.194600
H1811	H181	0.319000	0.915600	0.207000
H1821	H182	0.314500	0.858600	0.229700
H1831	H183	0.312700	0.924800	0.274100
H1841	H184	0.593500	0.045000	0.302700
H1851	H185	0.621400	0.082100	0.383900
H1861	H186	0.619900	0.011400	0.346500
H1871	H187	0.377600	0.826900	0.070900
H1881	H188	0.392200	0.837900	0.145700
H1891	H189	0.323000	0.831400	0.095000
H1901	H190	0.548800	0.136200	0.257200
H1911	H191	0.480200	0.133300	0.256100
H1921	H192	0.524700	0.113900	0.305400
H1931	H193	0.388000	0.096600	0.681000
H1941	H194	0.415200	0.044100	0.685500
H1951	H195	0.461400	0.112100	0.687300
H1961	H196	0.209200	0.951500	0.406500
H1971	H197	0.262500	0.960700	0.378600
H1981	H198	0.226600	0.891500	0.380100
H1991	H199	0.193300	0.949300	0.622400
H2001	H200	0.253500	0.945700	0.607800
H2011	H201	0.272000	0.008400	0.677000
H2021	H202	0.208400	0.087400	0.451200
H2031	H203	0.275900	0.153100	0.519800
H2041	H204	0.280700	0.089200	0.475300
H2051	H205	0.584400	0.403400	0.791400
H2061	H206	0.641400	0.455900	0.871100
H2071	H207	0.575200	0.387900	0.849300
H2081	H208	0.455000	0.548500	0.757700
H2091	H209	0.417900	0.539300	0.801800
H2101	H210	0.488600	0.608500	0.835100
H2111	H211	0.673100	0.550700	0.744000
H2121	H212	0.662100	0.554300	0.807800
H2131	H213	0.668600	0.491600	0.763600
H2141	H214	0.363800	0.412600	0.621000
H2151	H215	0.366700	0.346900	0.622800
H2161	H216	0.386100	0.410800	0.691500
H2171	H217	0.915600	0.707000	0.819000
H2181	H218	0.858600	0.729700	0.814500
H2191	H219	0.924800	0.774100	0.812700
H2201	H220	0.045000	0.802700	0.093500
H2211	H221	0.082100	0.883900	0.121400
H2221	H222	0.011400	0.846500	0.119900
H2231	H223	0.826900	0.570900	0.877600
H2241	H224	0.837900	0.645700	0.892200
H2251	H225	0.831400	0.595000	0.823000
H2261	H226	0.136200	0.757200	0.048800
H2271	H227	0.133300	0.756100	0.980200
H2281	H228	0.113900	0.805400	0.024700
H2291	H229	0.112000	0.793000	0.708600
H2301	H230	0.084800	0.770300	0.628900
H2311	H231	0.038600	0.725900	0.650700
H2321	H232	0.290800	0.697300	0.742300
H2331	H233	0.237500	0.616100	0.698200
H2341	H234	0.273400	0.653500	0.664900
H2351	H235	0.306700	0.929100	0.756000
H2361	H236	0.246500	0.854300	0.692200
H2371	H237	0.228000	0.905000	0.736400
H2381	H238	0.291600	0.742800	0.879000
H2391	H239	0.224100	0.743900	0.877200
H2401	H240	0.219300	0.694600	0.808500
H2411	H241	0.707000	0.319000	0.415600
H2421	H242	0.729700	0.314500	0.358600
H2431	H243	0.774100	0.312700	0.424800
H2441	H244	0.802700	0.593500	0.545000
H2451	H245	0.883900	0.621400	0.582100
H2461	H246	0.846500	0.619900	0.511400
H2471	H247	0.570900	0.377600	0.326900
H2481	H248	0.645700	0.392200	0.337900
H2491	H249	0.595000	0.323000	0.331400
H2501	H250	0.757200	0.548800	0.636200
H2511	H251	0.756100	0.480200	0.633300
H2521	H252	0.805400	0.524700	0.613900
H2531	H253	0.793000	0.208600	0.612000
H2541	H254	0.770300	0.128900	0.584800
H2551	H255	0.725900	0.150700	0.538600
H2561	H256	0.697300	0.242300	0.790800
H2571	H257	0.616100	0.198200	0.737500
H2581	H258	0.653500	0.164900	0.773400
H2591	H259	0.929100	0.256000	0.806700
H2601	H260	0.854300	0.192200	0.746500
H2611	H261	0.905000	0.236400	0.728000
H2621	H262	0.742800	0.379000	0.791600
H2631	H263	0.743900	0.377200	0.724100
H2641	H264	0.694600	0.308500	0.719300
H2651	H265	0.096600	0.181000	0.888000
H2661	H266	0.044100	0.185500	0.915200
H2671	H267	0.112100	0.187300	0.961400
H2681	H268	0.951500	0.906500	0.709200
H2691	H269	0.960700	0.878600	0.762500
H2701	H270	0.891500	0.880100	0.726600
H2711	H271	0.949300	0.122400	0.693300
H2721	H272	0.945700	0.107800	0.753500
H2731	H273	0.008400	0.177000	0.772000
H2741	H274	0.087400	0.951200	0.708400
H2751	H275	0.153100	0.019800	0.775900
H2761	H276	0.089200	0.975300	0.780700
H2771	H277	0.403400	0.291400	0.084400
H2781	H278	0.455900	0.371100	0.141400
H2791	H279	0.387900	0.349300	0.075200
H2801	H280	0.548500	0.257700	0.955000
H2811	H281	0.539300	0.301800	0.917900
H2821	H282	0.608500	0.335100	0.988600
H2831	H283	0.550700	0.244000	0.173100
H2841	H284	0.554300	0.307800	0.162100
H2851	H285	0.491600	0.263600	0.168600
H2861	H286	0.412600	0.121000	0.863800
H2871	H287	0.346900	0.122800	0.866700
H2881	H288	0.410800	0.191500	0.886100
C1211	C121	0.338400	0.592000	0.924200
C1221	C122	0.343600	0.553600	0.963400
C1231	C123	0.298600	0.526700	0.987100
C1241	C124	0.331500	0.504200	0.025100
C1251	C125	0.303900	0.462400	0.058500
C1261	C126	0.261600	0.651300	0.023500
C1271	C127	0.214000	0.574100	0.982700
C1281	C128	0.228500	0.521200	0.968700
C1291	C129	0.166100	0.461500	0.929200
C1301	C130	0.148900	0.388300	0.897200
C1311	C131	0.167800	0.414200	0.575800
C1321	C132	0.090200	0.380200	0.536600
C1331	C133	0.039600	0.311500	0.512900
C1341	C134	0.979100	0.306400	0.474900
C1351	C135	0.903900	0.245400	0.441500
C1361	C136	0.127800	0.238100	0.476500
C1371	C137	0.091400	0.231300	0.517300
C1381	C138	0.052500	0.259800	0.531300
C1391	C139	0.032300	0.236900	0.570800
C1401	C140	0.991100	0.251700	0.602800
C1411	C141	0.161600	0.085800	0.253600
C1421	C142	0.156400	0.119800	0.210000
C1431	C143	0.201400	0.188500	0.228100
C1441	C144	0.168500	0.193600	0.172700
C1451	C145	0.196100	0.254600	0.158500
C1461	C146	0.238400	0.261900	0.389700
C1471	C147	0.286000	0.268700	0.360100
C1481	C148	0.271500	0.240200	0.292700
C1491	C149	0.333900	0.263100	0.295400
C1501	C150	0.351100	0.248300	0.239400
C1511	C151	0.332200	0.908000	0.246400
C1521	C152	0.409800	0.946400	0.290000
C1531	C153	0.460400	0.973300	0.271900
C1541	C154	0.520900	0.995800	0.327300
C1551	C155	0.596100	0.037600	0.341500
C1561	C156	0.372200	0.848700	0.110300
C1571	C157	0.408600	0.925900	0.139900
C1581	C158	0.447500	0.978800	0.207300
C1591	C159	0.467700	0.038500	0.204600
C1601	C160	0.508900	0.111700	0.260600
C1611	C161	0.414200	0.075800	0.667800
C1621	C162	0.380200	0.036600	0.590200
C1631	C163	0.311500	0.012900	0.539600
C1641	C164	0.306400	0.974900	0.479100
C1651	C165	0.245400	0.941500	0.403900
C1661	C166	0.238100	0.976500	0.627800
C1671	C167	0.231300	0.017300	0.591400
C1681	C168	0.259800	0.031300	0.552500
C1691	C169	0.236900	0.070800	0.532300
C1701	C170	0.251700	0.102800	0.491100
C1711	C171	0.592000	0.424200	0.838400
C1721	C172	0.553600	0.463400	0.843600
C1731	C173	0.526700	0.487100	0.798600
C1741	C174	0.504200	0.525100	0.831500
C1751	C175	0.462400	0.558500	0.803900
C1761	C176	0.651300	0.523500	0.761600
C1771	C177	0.574100	0.482700	0.714000
C1781	C178	0.521200	0.468700	0.728500
C1791	C179	0.461500	0.429200	0.666100
C1801	C180	0.388300	0.397200	0.648900
C1811	C181	0.908000	0.746400	0.832200
C1821	C182	0.946400	0.790000	0.909800
C1831	C183	0.973300	0.771900	0.960400
C1841	C184	0.995800	0.827300	0.020900
C1851	C185	0.037600	0.841500	0.096100
C1861	C186	0.848700	0.610300	0.872200
C1871	C187	0.925900	0.639900	0.908600
C1881	C188	0.978800	0.707300	0.947500
C1891	C189	0.038500	0.704600	0.967700
C1901	C190	0.111700	0.760600	0.008900
C1911	C191	0.085800	0.753600	0.661600
C1921	C192	0.119800	0.710000	0.656400
C1931	C193	0.188500	0.728100	0.701400
C1941	C194	0.193600	0.672700	0.668500
C1951	C195	0.254600	0.658500	0.696100
C1961	C196	0.261900	0.889700	0.738400
C1971	C197	0.268700	0.860100	0.786000
C1981	C198	0.240200	0.792700	0.771500
C1991	C199	0.263100	0.795400	0.833900
C2001	C200	0.248300	0.739400	0.851100
C2011	C201	0.746400	0.332200	0.408000
C2021	C202	0.790000	0.409800	0.446400
C2031	C203	0.771900	0.460400	0.473300
C2041	C204	0.827300	0.520900	0.495800
C2051	C205	0.841500	0.596100	0.537600
C2061	C206	0.610300	0.372200	0.348700
C2071	C207	0.639900	0.408600	0.425900
C2081	C208	0.707300	0.447500	0.478800
C2091	C209	0.704600	0.467700	0.538500
C2101	C210	0.760600	0.508900	0.611700
C2111	C211	0.753600	0.161600	0.585800
C2121	C212	0.710000	0.156400	0.619800
C2131	C213	0.728100	0.201400	0.688500
C2141	C214	0.672700	0.168500	0.693600
C2151	C215	0.658500	0.196100	0.754600
C2161	C216	0.889700	0.238400	0.761900
C2171	C217	0.860100	0.286000	0.768700
C2181	C218	0.792700	0.271500	0.740200
C2191	C219	0.795400	0.333900	0.763100
C2201	C220	0.739400	0.351100	0.748300
C2211	C221	0.075800	0.167800	0.914200
C2221	C222	0.036600	0.090200	0.880200
C2231	C223	0.012900	0.039600	0.811500
C2241	C224	0.974900	0.979100	0.806400
C2251	C225	0.941500	0.903900	0.745400
C2261	C226	0.976500	0.127800	0.738100
C2271	C227	0.017300	0.091400	0.731300
C2281	C228	0.031300	0.052500	0.759800
C2291	C229	0.070800	0.032300	0.736900
C2301	C230	0.102800	0.991100	0.751700
C2311	C231	0.424200	0.338400	0.092000
C2321	C232	0.463400	0.343600	0.053600
C2331	C233	0.487100	0.298600	0.026700
C2341	C234	0.525100	0.331500	0.004200
C2351	C235	0.558500	0.303900	0.962400
C2361	C236	0.523500	0.261600	0.151300
C2371	C237	0.482700	0.214000	0.074100
C2381	C238	0.468700	0.228500	0.021200
C2391	C239	0.429200	0.166100	0.961500
C2401	C240	0.397200	0.148900	0.888300
N491	N49	0.399700	0.545600	0.988100
N501	N50	0.391100	0.511700	0.025200
N511	N51	0.144000	0.546300	0.949900
N521	N52	0.114700	0.475000	0.917100
N531	N53	0.057500	0.411600	0.511900
N541	N54	0.986500	0.365900	0.474800
N551	N55	0.096400	0.194100	0.550100
N561	N56	0.057900	0.197600	0.582900
N571	N57	0.100300	0.088400	0.145900
N581	N58	0.108900	0.134100	0.120600
N591	N59	0.356000	0.305900	0.402300
N601	N60	0.385300	0.302400	0.360300
N611	N61	0.442500	0.954400	0.354100
N621	N62	0.513500	0.988300	0.379400
N631	N63	0.403600	0.953700	0.097700
N641	N64	0.442100	0.025000	0.139700
N651	N65	0.411600	0.011900	0.557500
N661	N66	0.365900	0.974800	0.486500
N671	N67	0.194100	0.050100	0.596400
N681	N68	0.197600	0.082900	0.557900
N691	N69	0.545600	0.488100	0.899700
N701	N70	0.511700	0.525200	0.891100
N711	N71	0.546300	0.449900	0.644000
N721	N72	0.475000	0.417100	0.614700
N731	N73	0.954400	0.854100	0.942500
N741	N74	0.988300	0.879400	0.013500
N751	N75	0.953700	0.597700	0.903600
N761	N76	0.025000	0.639700	0.942100
N771	N77	0.088400	0.645900	0.600300
N781	N78	0.134100	0.620600	0.608900
N791	N79	0.305900	0.902300	0.856000
N801	N80	0.302400	0.860300	0.885300
N811	N81	0.854100	0.442500	0.454400
N821	N82	0.879400	0.513500	0.488300
N831	N83	0.597700	0.403600	0.453700
N841	N84	0.639700	0.442100	0.525000
N851	N85	0.645900	0.100300	0.588400
N861	N86	0.620600	0.108900	0.634100
N871	N87	0.902300	0.356000	0.805900
N881	N88	0.860300	0.385300	0.802400
N891	N89	0.011900	0.057500	0.911600
N901	N90	0.974800	0.986500	0.865900
N911	N91	0.050100	0.096400	0.694100
N921	N92	0.082900	0.057900	0.697600
N931	N93	0.488100	0.399700	0.045600
N941	N94	0.525200	0.391100	0.011700
N951	N95	0.449900	0.144000	0.046300
N961	N96	0.417100	0.114700	0.975000
