data_YIKJUZ_freeONLY_PM
_symmetry_space_group_name_H-M	'P1'
_cell_length_a	35.265100
_cell_length_b	35.265100
_cell_length_c	35.265100
_cell_angle_alpha	60.000000
_cell_angle_beta	60.000000
_cell_angle_gamma	60.000000
_symmetry_Int_Tables_number 1

loop_
_symmetry_equiv_pos_as_xyz
'x,y,z'

loop_
_atom_site_label
_atom_site_type_symbol
_atom_site_fract_x
_atom_site_fract_y
_atom_site_fract_z
Ag11	Ag1	0.068860	0.883610	0.315400
Ag21	Ag2	0.007000	0.819260	0.434730
Ag31	Ag3	0.383610	0.568860	0.732130
Ag41	Ag4	0.319260	0.507000	0.739010
Ag51	Ag5	0.815400	0.732130	0.568860
Ag61	Ag6	0.934730	0.739010	0.507000
Ag71	Ag7	0.232130	0.315400	0.883610
Ag81	Ag8	0.239010	0.434730	0.819260
Ag91	Ag9	0.068860	0.315400	0.732130
Ag101	Ag10	0.007000	0.434730	0.739010
Ag111	Ag11	0.383610	0.732130	0.315400
Ag121	Ag12	0.319260	0.739010	0.434730
Ag131	Ag13	0.815400	0.568860	0.883610
Ag141	Ag14	0.934730	0.507000	0.819260
Ag151	Ag15	0.232130	0.883610	0.568860
Ag161	Ag16	0.239010	0.819260	0.507000
Ag171	Ag17	0.068860	0.732130	0.883610
Ag181	Ag18	0.007000	0.739010	0.819260
Ag191	Ag19	0.383610	0.315400	0.568860
Ag201	Ag20	0.319260	0.434730	0.507000
Ag211	Ag21	0.815400	0.883610	0.732130
Ag221	Ag22	0.934730	0.819260	0.739010
Ag231	Ag23	0.232130	0.568860	0.315400
Ag241	Ag24	0.239010	0.507000	0.434730
Ag251	Ag25	0.116390	0.931140	0.184600
Ag261	Ag26	0.180740	0.993000	0.065270
Ag271	Ag27	0.431140	0.616390	0.767870
Ag281	Ag28	0.493000	0.680740	0.760990
Ag291	Ag29	0.267870	0.184600	0.931140
Ag301	Ag30	0.260990	0.065270	0.993000
Ag311	Ag31	0.684600	0.767870	0.616390
Ag321	Ag32	0.565270	0.760990	0.680740
Ag331	Ag33	0.684600	0.931140	0.767870
Ag341	Ag34	0.565270	0.993000	0.760990
Ag351	Ag35	0.267870	0.616390	0.184600
Ag361	Ag36	0.260990	0.680740	0.065270
Ag371	Ag37	0.431140	0.184600	0.616390
Ag381	Ag38	0.493000	0.065270	0.680740
Ag391	Ag39	0.116390	0.767870	0.931140
Ag401	Ag40	0.180740	0.760990	0.993000
Ag411	Ag41	0.267870	0.931140	0.616390
Ag421	Ag42	0.260990	0.993000	0.680740
Ag431	Ag43	0.684600	0.616390	0.931140
Ag441	Ag44	0.565270	0.680740	0.993000
Ag451	Ag45	0.116390	0.184600	0.767870
Ag461	Ag46	0.180740	0.065270	0.760990
Ag471	Ag47	0.431140	0.767870	0.184600
Ag481	Ag48	0.493000	0.760990	0.065270
Ag491	Ag49	0.931140	0.116390	0.684600
Ag501	Ag50	0.993000	0.180740	0.565270
Ag511	Ag51	0.616390	0.431140	0.267870
Ag521	Ag52	0.680740	0.493000	0.260990
Ag531	Ag53	0.184600	0.267870	0.431140
Ag541	Ag54	0.065270	0.260990	0.493000
Ag551	Ag55	0.767870	0.684600	0.116390
Ag561	Ag56	0.760990	0.565270	0.180740
Ag571	Ag57	0.931140	0.684600	0.267870
Ag581	Ag58	0.993000	0.565270	0.260990
Ag591	Ag59	0.616390	0.267870	0.684600
Ag601	Ag60	0.680740	0.260990	0.565270
Ag611	Ag61	0.184600	0.431140	0.116390
Ag621	Ag62	0.065270	0.493000	0.180740
Ag631	Ag63	0.767870	0.116390	0.431140
Ag641	Ag64	0.760990	0.180740	0.493000
Ag651	Ag65	0.931140	0.267870	0.116390
Ag661	Ag66	0.993000	0.260990	0.180740
Ag671	Ag67	0.616390	0.684600	0.431140
Ag681	Ag68	0.680740	0.565270	0.493000
Ag691	Ag69	0.184600	0.116390	0.267870
Ag701	Ag70	0.065270	0.180740	0.260990
Ag711	Ag71	0.767870	0.431140	0.684600
Ag721	Ag72	0.760990	0.493000	0.565270
Ag731	Ag73	0.883610	0.068860	0.815400
Ag741	Ag74	0.819260	0.007000	0.934730
Ag751	Ag75	0.568860	0.383610	0.232130
Ag761	Ag76	0.507000	0.319260	0.239010
Ag771	Ag77	0.732130	0.815400	0.068860
Ag781	Ag78	0.739010	0.934730	0.007000
Ag791	Ag79	0.315400	0.232130	0.383610
Ag801	Ag80	0.434730	0.239010	0.319260
Ag811	Ag81	0.315400	0.068860	0.232130
Ag821	Ag82	0.434730	0.007000	0.239010
Ag831	Ag83	0.732130	0.383610	0.815400
Ag841	Ag84	0.739010	0.319260	0.934730
Ag851	Ag85	0.568860	0.815400	0.383610
Ag861	Ag86	0.507000	0.934730	0.319260
Ag871	Ag87	0.883610	0.232130	0.068860
Ag881	Ag88	0.819260	0.239010	0.007000
Ag891	Ag89	0.732130	0.068860	0.383610
Ag901	Ag90	0.739010	0.007000	0.319260
Ag911	Ag91	0.315400	0.383610	0.068860
Ag921	Ag92	0.434730	0.319260	0.007000
Ag931	Ag93	0.883610	0.815400	0.232130
Ag941	Ag94	0.819260	0.934730	0.239010
Ag951	Ag95	0.568860	0.232130	0.815400
Ag961	Ag96	0.507000	0.239010	0.934730
H11	H1	0.962000	0.983400	0.316800
H21	H2	0.900800	0.907000	0.442200
H31	H3	0.842700	0.991100	0.351500
H41	H4	0.876800	0.029600	0.415200
H51	H5	0.159900	0.862700	0.345300
H61	H6	0.103300	0.783500	0.469500
H71	H7	0.148500	0.849500	0.468900
H81	H8	0.235700	0.765300	0.395300
H91	H9	0.483400	0.462000	0.737800
H101	H10	0.407000	0.400800	0.750000
H111	H11	0.491100	0.342700	0.814700
H121	H12	0.529600	0.376800	0.678400
H131	H13	0.362700	0.659900	0.632100
H141	H14	0.283500	0.603300	0.643700
H151	H15	0.349500	0.648500	0.533100
H161	H16	0.265300	0.735700	0.603700
H171	H17	0.816800	0.737800	0.462000
H181	H18	0.942200	0.750000	0.400800
H191	H19	0.851500	0.814700	0.342700
H201	H20	0.915200	0.678400	0.376800
H211	H21	0.845300	0.632100	0.659900
H221	H22	0.969500	0.643700	0.603300
H231	H23	0.968900	0.533100	0.648500
H241	H24	0.895300	0.603700	0.735700
H251	H25	0.237800	0.316800	0.983400
H261	H26	0.250000	0.442200	0.907000
H271	H27	0.314700	0.351500	0.991100
H281	H28	0.178400	0.415200	0.029600
H291	H29	0.132100	0.345300	0.862700
H301	H30	0.143700	0.469500	0.783500
H311	H31	0.033100	0.468900	0.849500
H321	H32	0.103700	0.395300	0.765300
H331	H33	0.962000	0.316800	0.737800
H341	H34	0.900800	0.442200	0.750000
H351	H35	0.842700	0.351500	0.814700
H361	H36	0.876800	0.415200	0.678400
H371	H37	0.159900	0.345300	0.632100
H381	H38	0.103300	0.469500	0.643700
H391	H39	0.148500	0.468900	0.533100
H401	H40	0.235700	0.395300	0.603700
H411	H41	0.483400	0.737800	0.316800
H421	H42	0.407000	0.750000	0.442200
H431	H43	0.491100	0.814700	0.351500
H441	H44	0.529600	0.678400	0.415200
H451	H45	0.362700	0.632100	0.345300
H461	H46	0.283500	0.643700	0.469500
H471	H47	0.349500	0.533100	0.468900
H481	H48	0.265300	0.603700	0.395300
H491	H49	0.816800	0.462000	0.983400
H501	H50	0.942200	0.400800	0.907000
H511	H51	0.851500	0.342700	0.991100
H521	H52	0.915200	0.376800	0.029600
H531	H53	0.845300	0.659900	0.862700
H541	H54	0.969500	0.603300	0.783500
H551	H55	0.968900	0.648500	0.849500
H561	H56	0.895300	0.735700	0.765300
H571	H57	0.237800	0.983400	0.462000
H581	H58	0.250000	0.907000	0.400800
H591	H59	0.314700	0.991100	0.342700
H601	H60	0.178400	0.029600	0.376800
H611	H61	0.132100	0.862700	0.659900
H621	H62	0.143700	0.783500	0.603300
H631	H63	0.033100	0.849500	0.648500
H641	H64	0.103700	0.765300	0.735700
H651	H65	0.962000	0.737800	0.983400
H661	H66	0.900800	0.750000	0.907000
H671	H67	0.842700	0.814700	0.991100
H681	H68	0.876800	0.678400	0.029600
H691	H69	0.159900	0.632100	0.862700
H701	H70	0.103300	0.643700	0.783500
H711	H71	0.148500	0.533100	0.849500
H721	H72	0.235700	0.603700	0.765300
H731	H73	0.483400	0.316800	0.462000
H741	H74	0.407000	0.442200	0.400800
H751	H75	0.491100	0.351500	0.342700
H761	H76	0.529600	0.415200	0.376800
H771	H77	0.362700	0.345300	0.659900
H781	H78	0.283500	0.469500	0.603300
H791	H79	0.349500	0.468900	0.648500
H801	H80	0.265300	0.395300	0.735700
H811	H81	0.816800	0.983400	0.737800
H821	H82	0.942200	0.907000	0.750000
H831	H83	0.851500	0.991100	0.814700
H841	H84	0.915200	0.029600	0.678400
H851	H85	0.845300	0.862700	0.632100
H861	H86	0.969500	0.783500	0.643700
H871	H87	0.968900	0.849500	0.533100
H881	H88	0.895300	0.765300	0.603700
H891	H89	0.237800	0.462000	0.316800
H901	H90	0.250000	0.400800	0.442200
H911	H91	0.314700	0.342700	0.351500
H921	H92	0.178400	0.376800	0.415200
H931	H93	0.132100	0.659900	0.345300
H941	H94	0.143700	0.603300	0.469500
H951	H95	0.033100	0.648500	0.468900
H961	H96	0.103700	0.735700	0.395300
H971	H97	0.016600	0.038000	0.183200
H981	H98	0.093000	0.099200	0.057800
H991	H99	0.008900	0.157300	0.148500
H1001	H100	0.970400	0.123200	0.084800
H1011	H101	0.137300	0.840100	0.154700
H1021	H102	0.216500	0.896700	0.030500
H1031	H103	0.150500	0.851500	0.031100
H1041	H104	0.234700	0.764300	0.104700
H1051	H105	0.538000	0.516600	0.762200
H1061	H106	0.599200	0.593000	0.750000
H1071	H107	0.657300	0.508900	0.685300
H1081	H108	0.623200	0.470400	0.821600
H1091	H109	0.340100	0.637300	0.867900
H1101	H110	0.396700	0.716500	0.856300
H1111	H111	0.351500	0.650500	0.966900
H1121	H112	0.264300	0.734700	0.896300
H1131	H113	0.262200	0.183200	0.038000
H1141	H114	0.250000	0.057800	0.099200
H1151	H115	0.185300	0.148500	0.157300
H1161	H116	0.321600	0.084800	0.123200
H1171	H117	0.367900	0.154700	0.840100
H1181	H118	0.356300	0.030500	0.896700
H1191	H119	0.466900	0.031100	0.851500
H1201	H120	0.396300	0.104700	0.764300
H1211	H121	0.683200	0.762200	0.516600
H1221	H122	0.557800	0.750000	0.593000
H1231	H123	0.648500	0.685300	0.508900
H1241	H124	0.584800	0.821600	0.470400
H1251	H125	0.654700	0.867900	0.637300
H1261	H126	0.530500	0.856300	0.716500
H1271	H127	0.531100	0.966900	0.650500
H1281	H128	0.604700	0.896300	0.734700
H1291	H129	0.683200	0.038000	0.762200
H1301	H130	0.557800	0.099200	0.750000
H1311	H131	0.648500	0.157300	0.685300
H1321	H132	0.584800	0.123200	0.821600
H1331	H133	0.654700	0.840100	0.867900
H1341	H134	0.530500	0.896700	0.856300
H1351	H135	0.531100	0.851500	0.966900
H1361	H136	0.604700	0.764300	0.896300
H1371	H137	0.262200	0.516600	0.183200
H1381	H138	0.250000	0.593000	0.057800
H1391	H139	0.185300	0.508900	0.148500
H1401	H140	0.321600	0.470400	0.084800
H1411	H141	0.367900	0.637300	0.154700
H1421	H142	0.356300	0.716500	0.030500
H1431	H143	0.466900	0.650500	0.031100
H1441	H144	0.396300	0.734700	0.104700
H1451	H145	0.538000	0.183200	0.516600
H1461	H146	0.599200	0.057800	0.593000
H1471	H147	0.657300	0.148500	0.508900
H1481	H148	0.623200	0.084800	0.470400
H1491	H149	0.340100	0.154700	0.637300
H1501	H150	0.396700	0.030500	0.716500
H1511	H151	0.351500	0.031100	0.650500
H1521	H152	0.264300	0.104700	0.734700
H1531	H153	0.016600	0.762200	0.038000
H1541	H154	0.093000	0.750000	0.099200
H1551	H155	0.008900	0.685300	0.157300
H1561	H156	0.970400	0.821600	0.123200
H1571	H157	0.137300	0.867900	0.840100
H1581	H158	0.216500	0.856300	0.896700
H1591	H159	0.150500	0.966900	0.851500
H1601	H160	0.234700	0.896300	0.764300
H1611	H161	0.262200	0.038000	0.516600
H1621	H162	0.250000	0.099200	0.593000
H1631	H163	0.185300	0.157300	0.508900
H1641	H164	0.321600	0.123200	0.470400
H1651	H165	0.367900	0.840100	0.637300
H1661	H166	0.356300	0.896700	0.716500
H1671	H167	0.466900	0.851500	0.650500
H1681	H168	0.396300	0.764300	0.734700
H1691	H169	0.683200	0.516600	0.038000
H1701	H170	0.557800	0.593000	0.099200
H1711	H171	0.648500	0.508900	0.157300
H1721	H172	0.584800	0.470400	0.123200
H1731	H173	0.654700	0.637300	0.840100
H1741	H174	0.530500	0.716500	0.896700
H1751	H175	0.531100	0.650500	0.851500
H1761	H176	0.604700	0.734700	0.764300
H1771	H177	0.016600	0.183200	0.762200
H1781	H178	0.093000	0.057800	0.750000
H1791	H179	0.008900	0.148500	0.685300
H1801	H180	0.970400	0.084800	0.821600
H1811	H181	0.137300	0.154700	0.867900
H1821	H182	0.216500	0.030500	0.856300
H1831	H183	0.150500	0.031100	0.966900
H1841	H184	0.234700	0.104700	0.896300
H1851	H185	0.538000	0.762200	0.183200
H1861	H186	0.599200	0.750000	0.057800
H1871	H187	0.657300	0.685300	0.148500
H1881	H188	0.623200	0.821600	0.084800
H1891	H189	0.340100	0.867900	0.154700
H1901	H190	0.396700	0.856300	0.030500
H1911	H191	0.351500	0.966900	0.031100
H1921	H192	0.264300	0.896300	0.104700
H1931	H193	0.038000	0.016600	0.683200
H1941	H194	0.099200	0.093000	0.557800
H1951	H195	0.157300	0.008900	0.648500
H1961	H196	0.123200	0.970400	0.584800
H1971	H197	0.840100	0.137300	0.654700
H1981	H198	0.896700	0.216500	0.530500
H1991	H199	0.851500	0.150500	0.531100
H2001	H200	0.764300	0.234700	0.604700
H2011	H201	0.516600	0.538000	0.262200
H2021	H202	0.593000	0.599200	0.250000
H2031	H203	0.508900	0.657300	0.185300
H2041	H204	0.470400	0.623200	0.321600
H2051	H205	0.637300	0.340100	0.367900
H2061	H206	0.716500	0.396700	0.356300
H2071	H207	0.650500	0.351500	0.466900
H2081	H208	0.734700	0.264300	0.396300
H2091	H209	0.183200	0.262200	0.538000
H2101	H210	0.057800	0.250000	0.599200
H2111	H211	0.148500	0.185300	0.657300
H2121	H212	0.084800	0.321600	0.623200
H2131	H213	0.154700	0.367900	0.340100
H2141	H214	0.030500	0.356300	0.396700
H2151	H215	0.031100	0.466900	0.351500
H2161	H216	0.104700	0.396300	0.264300
H2171	H217	0.762200	0.683200	0.016600
H2181	H218	0.750000	0.557800	0.093000
H2191	H219	0.685300	0.648500	0.008900
H2201	H220	0.821600	0.584800	0.970400
H2211	H221	0.867900	0.654700	0.137300
H2221	H222	0.856300	0.530500	0.216500
H2231	H223	0.966900	0.531100	0.150500
H2241	H224	0.896300	0.604700	0.234700
H2251	H225	0.038000	0.683200	0.262200
H2261	H226	0.099200	0.557800	0.250000
H2271	H227	0.157300	0.648500	0.185300
H2281	H228	0.123200	0.584800	0.321600
H2291	H229	0.840100	0.654700	0.367900
H2301	H230	0.896700	0.530500	0.356300
H2311	H231	0.851500	0.531100	0.466900
H2321	H232	0.764300	0.604700	0.396300
H2331	H233	0.516600	0.262200	0.683200
H2341	H234	0.593000	0.250000	0.557800
H2351	H235	0.508900	0.185300	0.648500
H2361	H236	0.470400	0.321600	0.584800
H2371	H237	0.637300	0.367900	0.654700
H2381	H238	0.716500	0.356300	0.530500
H2391	H239	0.650500	0.466900	0.531100
H2401	H240	0.734700	0.396300	0.604700
H2411	H241	0.183200	0.538000	0.016600
H2421	H242	0.057800	0.599200	0.093000
H2431	H243	0.148500	0.657300	0.008900
H2441	H244	0.084800	0.623200	0.970400
H2451	H245	0.154700	0.340100	0.137300
H2461	H246	0.030500	0.396700	0.216500
H2471	H247	0.031100	0.351500	0.150500
H2481	H248	0.104700	0.264300	0.234700
H2491	H249	0.762200	0.016600	0.538000
H2501	H250	0.750000	0.093000	0.599200
H2511	H251	0.685300	0.008900	0.657300
H2521	H252	0.821600	0.970400	0.623200
H2531	H253	0.867900	0.137300	0.340100
H2541	H254	0.856300	0.216500	0.396700
H2551	H255	0.966900	0.150500	0.351500
H2561	H256	0.896300	0.234700	0.264300
H2571	H257	0.038000	0.262200	0.016600
H2581	H258	0.099200	0.250000	0.093000
H2591	H259	0.157300	0.185300	0.008900
H2601	H260	0.123200	0.321600	0.970400
H2611	H261	0.840100	0.367900	0.137300
H2621	H262	0.896700	0.356300	0.216500
H2631	H263	0.851500	0.466900	0.150500
H2641	H264	0.764300	0.396300	0.234700
H2651	H265	0.516600	0.683200	0.538000
H2661	H266	0.593000	0.557800	0.599200
H2671	H267	0.508900	0.648500	0.657300
H2681	H268	0.470400	0.584800	0.623200
H2691	H269	0.637300	0.654700	0.340100
H2701	H270	0.716500	0.530500	0.396700
H2711	H271	0.650500	0.531100	0.351500
H2721	H272	0.734700	0.604700	0.264300
H2731	H273	0.183200	0.016600	0.262200
H2741	H274	0.057800	0.093000	0.250000
H2751	H275	0.148500	0.008900	0.185300
H2761	H276	0.084800	0.970400	0.321600
H2771	H277	0.154700	0.137300	0.367900
H2781	H278	0.030500	0.216500	0.356300
H2791	H279	0.031100	0.150500	0.466900
H2801	H280	0.104700	0.234700	0.396300
H2811	H281	0.762200	0.538000	0.683200
H2821	H282	0.750000	0.599200	0.557800
H2831	H283	0.685300	0.657300	0.648500
H2841	H284	0.821600	0.623200	0.584800
H2851	H285	0.867900	0.340100	0.654700
H2861	H286	0.856300	0.396700	0.530500
H2871	H287	0.966900	0.351500	0.531100
H2881	H288	0.896300	0.264300	0.604700
H2891	H289	0.983400	0.962000	0.816800
H2901	H290	0.907000	0.900800	0.942200
H2911	H291	0.991100	0.842700	0.851500
H2921	H292	0.029600	0.876800	0.915200
H2931	H293	0.862700	0.159900	0.845300
H2941	H294	0.783500	0.103300	0.969500
H2951	H295	0.849500	0.148500	0.968900
H2961	H296	0.765300	0.235700	0.895300
H2971	H297	0.462000	0.483400	0.237800
H2981	H298	0.400800	0.407000	0.250000
H2991	H299	0.342700	0.491100	0.314700
H3001	H300	0.376800	0.529600	0.178400
H3011	H301	0.659900	0.362700	0.132100
H3021	H302	0.603300	0.283500	0.143700
H3031	H303	0.648500	0.349500	0.033100
H3041	H304	0.735700	0.265300	0.103700
H3051	H305	0.737800	0.816800	0.962000
H3061	H306	0.750000	0.942200	0.900800
H3071	H307	0.814700	0.851500	0.842700
H3081	H308	0.678400	0.915200	0.876800
H3091	H309	0.632100	0.845300	0.159900
H3101	H310	0.643700	0.969500	0.103300
H3111	H311	0.533100	0.968900	0.148500
H3121	H312	0.603700	0.895300	0.235700
H3131	H313	0.316800	0.237800	0.483400
H3141	H314	0.442200	0.250000	0.407000
H3151	H315	0.351500	0.314700	0.491100
H3161	H316	0.415200	0.178400	0.529600
H3171	H317	0.345300	0.132100	0.362700
H3181	H318	0.469500	0.143700	0.283500
H3191	H319	0.468900	0.033100	0.349500
H3201	H320	0.395300	0.103700	0.265300
H3211	H321	0.316800	0.962000	0.237800
H3221	H322	0.442200	0.900800	0.250000
H3231	H323	0.351500	0.842700	0.314700
H3241	H324	0.415200	0.876800	0.178400
H3251	H325	0.345300	0.159900	0.132100
H3261	H326	0.469500	0.103300	0.143700
H3271	H327	0.468900	0.148500	0.033100
H3281	H328	0.395300	0.235700	0.103700
H3291	H329	0.737800	0.483400	0.816800
H3301	H330	0.750000	0.407000	0.942200
H3311	H331	0.814700	0.491100	0.851500
H3321	H332	0.678400	0.529600	0.915200
H3331	H333	0.632100	0.362700	0.845300
H3341	H334	0.643700	0.283500	0.969500
H3351	H335	0.533100	0.349500	0.968900
H3361	H336	0.603700	0.265300	0.895300
H3371	H337	0.462000	0.816800	0.483400
H3381	H338	0.400800	0.942200	0.407000
H3391	H339	0.342700	0.851500	0.491100
H3401	H340	0.376800	0.915200	0.529600
H3411	H341	0.659900	0.845300	0.362700
H3421	H342	0.603300	0.969500	0.283500
H3431	H343	0.648500	0.968900	0.349500
H3441	H344	0.735700	0.895300	0.265300
H3451	H345	0.983400	0.237800	0.962000
H3461	H346	0.907000	0.250000	0.900800
H3471	H347	0.991100	0.314700	0.842700
H3481	H348	0.029600	0.178400	0.876800
H3491	H349	0.862700	0.132100	0.159900
H3501	H350	0.783500	0.143700	0.103300
H3511	H351	0.849500	0.033100	0.148500
H3521	H352	0.765300	0.103700	0.235700
H3531	H353	0.737800	0.962000	0.483400
H3541	H354	0.750000	0.900800	0.407000
H3551	H355	0.814700	0.842700	0.491100
H3561	H356	0.678400	0.876800	0.529600
H3571	H357	0.632100	0.159900	0.362700
H3581	H358	0.643700	0.103300	0.283500
H3591	H359	0.533100	0.148500	0.349500
H3601	H360	0.603700	0.235700	0.265300
H3611	H361	0.316800	0.483400	0.962000
H3621	H362	0.442200	0.407000	0.900800
H3631	H363	0.351500	0.491100	0.842700
H3641	H364	0.415200	0.529600	0.876800
H3651	H365	0.345300	0.362700	0.159900
H3661	H366	0.469500	0.283500	0.103300
H3671	H367	0.468900	0.349500	0.148500
H3681	H368	0.395300	0.265300	0.235700
H3691	H369	0.983400	0.816800	0.237800
H3701	H370	0.907000	0.942200	0.250000
H3711	H371	0.991100	0.851500	0.314700
H3721	H372	0.029600	0.915200	0.178400
H3731	H373	0.862700	0.845300	0.132100
H3741	H374	0.783500	0.969500	0.143700
H3751	H375	0.849500	0.968900	0.033100
H3761	H376	0.765300	0.895300	0.103700
H3771	H377	0.462000	0.237800	0.816800
H3781	H378	0.400800	0.250000	0.942200
H3791	H379	0.342700	0.314700	0.851500
H3801	H380	0.376800	0.178400	0.915200
H3811	H381	0.659900	0.132100	0.845300
H3821	H382	0.603300	0.143700	0.969500
H3831	H383	0.648500	0.033100	0.968900
H3841	H384	0.735700	0.103700	0.895300
C11	C1	0.956990	0.958250	0.344850
C21	C2	0.923480	0.916740	0.413460
C31	C3	0.841710	0.007210	0.367110
C41	C4	0.859940	0.027960	0.402120
C51	C5	0.139670	0.846370	0.370710
C61	C6	0.108650	0.803570	0.438130
C71	C7	0.176060	0.828920	0.454360
C81	C8	0.223250	0.783210	0.414410
C91	C9	0.458250	0.456990	0.739910
C101	C10	0.416740	0.423480	0.746320
C111	C11	0.507210	0.341710	0.783970
C121	C12	0.527960	0.359940	0.709980
C131	C13	0.346370	0.639670	0.643250
C141	C14	0.303570	0.608650	0.649650
C151	C15	0.328920	0.676060	0.540660
C161	C16	0.283210	0.723250	0.579130
C171	C17	0.844850	0.739910	0.456990
C181	C18	0.913460	0.746320	0.423480
C191	C19	0.867110	0.783970	0.341710
C201	C20	0.902120	0.709980	0.359940
C211	C21	0.870710	0.643250	0.639670
C221	C22	0.938130	0.649650	0.608650
C231	C23	0.954360	0.540660	0.676060
C241	C24	0.914410	0.579130	0.723250
C251	C25	0.239910	0.344850	0.958250
C261	C26	0.246320	0.413460	0.916740
C271	C27	0.283970	0.367110	0.007210
C281	C28	0.209980	0.402120	0.027960
C291	C29	0.143250	0.370710	0.846370
C301	C30	0.149650	0.438130	0.803570
C311	C31	0.040660	0.454360	0.828920
C321	C32	0.079130	0.414410	0.783210
C331	C33	0.956990	0.344850	0.739910
C341	C34	0.923480	0.413460	0.746320
C351	C35	0.841710	0.367110	0.783970
C361	C36	0.859940	0.402120	0.709980
C371	C37	0.139670	0.370710	0.643250
C381	C38	0.108650	0.438130	0.649650
C391	C39	0.176060	0.454360	0.540660
C401	C40	0.223250	0.414410	0.579130
C411	C41	0.458250	0.739910	0.344850
C421	C42	0.416740	0.746320	0.413460
C431	C43	0.507210	0.783970	0.367110
C441	C44	0.527960	0.709980	0.402120
C451	C45	0.346370	0.643250	0.370710
C461	C46	0.303570	0.649650	0.438130
C471	C47	0.328920	0.540660	0.454360
C481	C48	0.283210	0.579130	0.414410
C491	C49	0.844850	0.456990	0.958250
C501	C50	0.913460	0.423480	0.916740
C511	C51	0.867110	0.341710	0.007210
C521	C52	0.902120	0.359940	0.027960
C531	C53	0.870710	0.639670	0.846370
C541	C54	0.938130	0.608650	0.803570
C551	C55	0.954360	0.676060	0.828920
C561	C56	0.914410	0.723250	0.783210
C571	C57	0.239910	0.958250	0.456990
C581	C58	0.246320	0.916740	0.423480
C591	C59	0.283970	0.007210	0.341710
C601	C60	0.209980	0.027960	0.359940
C611	C61	0.143250	0.846370	0.639670
C621	C62	0.149650	0.803570	0.608650
C631	C63	0.040660	0.828920	0.676060
C641	C64	0.079130	0.783210	0.723250
C651	C65	0.956990	0.739910	0.958250
C661	C66	0.923480	0.746320	0.916740
C671	C67	0.841710	0.783970	0.007210
C681	C68	0.859940	0.709980	0.027960
C691	C69	0.139670	0.643250	0.846370
C701	C70	0.108650	0.649650	0.803570
C711	C71	0.176060	0.540660	0.828920
C721	C72	0.223250	0.579130	0.783210
C731	C73	0.458250	0.344850	0.456990
C741	C74	0.416740	0.413460	0.423480
C751	C75	0.507210	0.367110	0.341710
C761	C76	0.527960	0.402120	0.359940
C771	C77	0.346370	0.370710	0.639670
C781	C78	0.303570	0.438130	0.608650
C791	C79	0.328920	0.454360	0.676060
C801	C80	0.283210	0.414410	0.723250
C811	C81	0.844850	0.958250	0.739910
C821	C82	0.913460	0.916740	0.746320
C831	C83	0.867110	0.007210	0.783970
C841	C84	0.902120	0.027960	0.709980
C851	C85	0.870710	0.846370	0.643250
C861	C86	0.938130	0.803570	0.649650
C871	C87	0.954360	0.828920	0.540660
C881	C88	0.914410	0.783210	0.579130
C891	C89	0.239910	0.456990	0.344850
C901	C90	0.246320	0.423480	0.413460
C911	C91	0.283970	0.341710	0.367110
C921	C92	0.209980	0.359940	0.402120
C931	C93	0.143250	0.639670	0.370710
C941	C94	0.149650	0.608650	0.438130
C951	C95	0.040660	0.676060	0.454360
C961	C96	0.079130	0.723250	0.414410
C971	C97	0.041750	0.043010	0.155150
C981	C98	0.083260	0.076520	0.086540
C991	C99	0.992790	0.158290	0.132890
C1001	C100	0.972040	0.140060	0.097880
C1011	C101	0.153630	0.860330	0.129290
C1021	C102	0.196430	0.891350	0.061870
C1031	C103	0.171080	0.823940	0.045640
C1041	C104	0.216790	0.776750	0.085590
C1051	C105	0.543010	0.541750	0.760090
C1061	C106	0.576520	0.583260	0.753680
C1071	C107	0.658290	0.492790	0.716030
C1081	C108	0.640060	0.472040	0.790020
C1091	C109	0.360330	0.653630	0.856750
C1101	C110	0.391350	0.696430	0.850350
C1111	C111	0.323940	0.671080	0.959340
C1121	C112	0.276750	0.716790	0.920870
C1131	C113	0.260090	0.155150	0.043010
C1141	C114	0.253680	0.086540	0.076520
C1151	C115	0.216030	0.132890	0.158290
C1161	C116	0.290020	0.097880	0.140060
C1171	C117	0.356750	0.129290	0.860330
C1181	C118	0.350350	0.061870	0.891350
C1191	C119	0.459340	0.045640	0.823940
C1201	C120	0.420870	0.085590	0.776750
C1211	C121	0.655150	0.760090	0.541750
C1221	C122	0.586540	0.753680	0.583260
C1231	C123	0.632890	0.716030	0.492790
C1241	C124	0.597880	0.790020	0.472040
C1251	C125	0.629290	0.856750	0.653630
C1261	C126	0.561870	0.850350	0.696430
C1271	C127	0.545640	0.959340	0.671080
C1281	C128	0.585590	0.920870	0.716790
C1291	C129	0.655150	0.043010	0.760090
C1301	C130	0.586540	0.076520	0.753680
C1311	C131	0.632890	0.158290	0.716030
C1321	C132	0.597880	0.140060	0.790020
C1331	C133	0.629290	0.860330	0.856750
C1341	C134	0.561870	0.891350	0.850350
C1351	C135	0.545640	0.823940	0.959340
C1361	C136	0.585590	0.776750	0.920870
C1371	C137	0.260090	0.541750	0.155150
C1381	C138	0.253680	0.583260	0.086540
C1391	C139	0.216030	0.492790	0.132890
C1401	C140	0.290020	0.472040	0.097880
C1411	C141	0.356750	0.653630	0.129290
C1421	C142	0.350350	0.696430	0.061870
C1431	C143	0.459340	0.671080	0.045640
C1441	C144	0.420870	0.716790	0.085590
C1451	C145	0.543010	0.155150	0.541750
C1461	C146	0.576520	0.086540	0.583260
C1471	C147	0.658290	0.132890	0.492790
C1481	C148	0.640060	0.097880	0.472040
C1491	C149	0.360330	0.129290	0.653630
C1501	C150	0.391350	0.061870	0.696430
C1511	C151	0.323940	0.045640	0.671080
C1521	C152	0.276750	0.085590	0.716790
C1531	C153	0.041750	0.760090	0.043010
C1541	C154	0.083260	0.753680	0.076520
C1551	C155	0.992790	0.716030	0.158290
C1561	C156	0.972040	0.790020	0.140060
C1571	C157	0.153630	0.856750	0.860330
C1581	C158	0.196430	0.850350	0.891350
C1591	C159	0.171080	0.959340	0.823940
C1601	C160	0.216790	0.920870	0.776750
C1611	C161	0.260090	0.043010	0.541750
C1621	C162	0.253680	0.076520	0.583260
C1631	C163	0.216030	0.158290	0.492790
C1641	C164	0.290020	0.140060	0.472040
C1651	C165	0.356750	0.860330	0.653630
C1661	C166	0.350350	0.891350	0.696430
C1671	C167	0.459340	0.823940	0.671080
C1681	C168	0.420870	0.776750	0.716790
C1691	C169	0.655150	0.541750	0.043010
C1701	C170	0.586540	0.583260	0.076520
C1711	C171	0.632890	0.492790	0.158290
C1721	C172	0.597880	0.472040	0.140060
C1731	C173	0.629290	0.653630	0.860330
C1741	C174	0.561870	0.696430	0.891350
C1751	C175	0.545640	0.671080	0.823940
C1761	C176	0.585590	0.716790	0.776750
C1771	C177	0.041750	0.155150	0.760090
C1781	C178	0.083260	0.086540	0.753680
C1791	C179	0.992790	0.132890	0.716030
C1801	C180	0.972040	0.097880	0.790020
C1811	C181	0.153630	0.129290	0.856750
C1821	C182	0.196430	0.061870	0.850350
C1831	C183	0.171080	0.045640	0.959340
C1841	C184	0.216790	0.085590	0.920870
C1851	C185	0.543010	0.760090	0.155150
C1861	C186	0.576520	0.753680	0.086540
C1871	C187	0.658290	0.716030	0.132890
C1881	C188	0.640060	0.790020	0.097880
C1891	C189	0.360330	0.856750	0.129290
C1901	C190	0.391350	0.850350	0.061870
C1911	C191	0.323940	0.959340	0.045640
C1921	C192	0.276750	0.920870	0.085590
C1931	C193	0.043010	0.041750	0.655150
C1941	C194	0.076520	0.083260	0.586540
C1951	C195	0.158290	0.992790	0.632890
C1961	C196	0.140060	0.972040	0.597880
C1971	C197	0.860330	0.153630	0.629290
C1981	C198	0.891350	0.196430	0.561870
C1991	C199	0.823940	0.171080	0.545640
C2001	C200	0.776750	0.216790	0.585590
C2011	C201	0.541750	0.543010	0.260090
C2021	C202	0.583260	0.576520	0.253680
C2031	C203	0.492790	0.658290	0.216030
C2041	C204	0.472040	0.640060	0.290020
C2051	C205	0.653630	0.360330	0.356750
C2061	C206	0.696430	0.391350	0.350350
C2071	C207	0.671080	0.323940	0.459340
C2081	C208	0.716790	0.276750	0.420870
C2091	C209	0.155150	0.260090	0.543010
C2101	C210	0.086540	0.253680	0.576520
C2111	C211	0.132890	0.216030	0.658290
C2121	C212	0.097880	0.290020	0.640060
C2131	C213	0.129290	0.356750	0.360330
C2141	C214	0.061870	0.350350	0.391350
C2151	C215	0.045640	0.459340	0.323940
C2161	C216	0.085590	0.420870	0.276750
C2171	C217	0.760090	0.655150	0.041750
C2181	C218	0.753680	0.586540	0.083260
C2191	C219	0.716030	0.632890	0.992790
C2201	C220	0.790020	0.597880	0.972040
C2211	C221	0.856750	0.629290	0.153630
C2221	C222	0.850350	0.561870	0.196430
C2231	C223	0.959340	0.545640	0.171080
C2241	C224	0.920870	0.585590	0.216790
C2251	C225	0.043010	0.655150	0.260090
C2261	C226	0.076520	0.586540	0.253680
C2271	C227	0.158290	0.632890	0.216030
C2281	C228	0.140060	0.597880	0.290020
C2291	C229	0.860330	0.629290	0.356750
C2301	C230	0.891350	0.561870	0.350350
C2311	C231	0.823940	0.545640	0.459340
C2321	C232	0.776750	0.585590	0.420870
C2331	C233	0.541750	0.260090	0.655150
C2341	C234	0.583260	0.253680	0.586540
C2351	C235	0.492790	0.216030	0.632890
C2361	C236	0.472040	0.290020	0.597880
C2371	C237	0.653630	0.356750	0.629290
C2381	C238	0.696430	0.350350	0.561870
C2391	C239	0.671080	0.459340	0.545640
C2401	C240	0.716790	0.420870	0.585590
C2411	C241	0.155150	0.543010	0.041750
C2421	C242	0.086540	0.576520	0.083260
C2431	C243	0.132890	0.658290	0.992790
C2441	C244	0.097880	0.640060	0.972040
C2451	C245	0.129290	0.360330	0.153630
C2461	C246	0.061870	0.391350	0.196430
C2471	C247	0.045640	0.323940	0.171080
C2481	C248	0.085590	0.276750	0.216790
C2491	C249	0.760090	0.041750	0.543010
C2501	C250	0.753680	0.083260	0.576520
C2511	C251	0.716030	0.992790	0.658290
C2521	C252	0.790020	0.972040	0.640060
C2531	C253	0.856750	0.153630	0.360330
C2541	C254	0.850350	0.196430	0.391350
C2551	C255	0.959340	0.171080	0.323940
C2561	C256	0.920870	0.216790	0.276750
C2571	C257	0.043010	0.260090	0.041750
C2581	C258	0.076520	0.253680	0.083260
C2591	C259	0.158290	0.216030	0.992790
C2601	C260	0.140060	0.290020	0.972040
C2611	C261	0.860330	0.356750	0.153630
C2621	C262	0.891350	0.350350	0.196430
C2631	C263	0.823940	0.459340	0.171080
C2641	C264	0.776750	0.420870	0.216790
C2651	C265	0.541750	0.655150	0.543010
C2661	C266	0.583260	0.586540	0.576520
C2671	C267	0.492790	0.632890	0.658290
C2681	C268	0.472040	0.597880	0.640060
C2691	C269	0.653630	0.629290	0.360330
C2701	C270	0.696430	0.561870	0.391350
C2711	C271	0.671080	0.545640	0.323940
C2721	C272	0.716790	0.585590	0.276750
C2731	C273	0.155150	0.041750	0.260090
C2741	C274	0.086540	0.083260	0.253680
C2751	C275	0.132890	0.992790	0.216030
C2761	C276	0.097880	0.972040	0.290020
C2771	C277	0.129290	0.153630	0.356750
C2781	C278	0.061870	0.196430	0.350350
C2791	C279	0.045640	0.171080	0.459340
C2801	C280	0.085590	0.216790	0.420870
C2811	C281	0.760090	0.543010	0.655150
C2821	C282	0.753680	0.576520	0.586540
C2831	C283	0.716030	0.658290	0.632890
C2841	C284	0.790020	0.640060	0.597880
C2851	C285	0.856750	0.360330	0.629290
C2861	C286	0.850350	0.391350	0.561870
C2871	C287	0.959340	0.323940	0.545640
C2881	C288	0.920870	0.276750	0.585590
C2891	C289	0.958250	0.956990	0.844850
C2901	C290	0.916740	0.923480	0.913460
C2911	C291	0.007210	0.841710	0.867110
C2921	C292	0.027960	0.859940	0.902120
C2931	C293	0.846370	0.139670	0.870710
C2941	C294	0.803570	0.108650	0.938130
C2951	C295	0.828920	0.176060	0.954360
C2961	C296	0.783210	0.223250	0.914410
C2971	C297	0.456990	0.458250	0.239910
C2981	C298	0.423480	0.416740	0.246320
C2991	C299	0.341710	0.507210	0.283970
C3001	C300	0.359940	0.527960	0.209980
C3011	C301	0.639670	0.346370	0.143250
C3021	C302	0.608650	0.303570	0.149650
C3031	C303	0.676060	0.328920	0.040660
C3041	C304	0.723250	0.283210	0.079130
C3051	C305	0.739910	0.844850	0.956990
C3061	C306	0.746320	0.913460	0.923480
C3071	C307	0.783970	0.867110	0.841710
C3081	C308	0.709980	0.902120	0.859940
C3091	C309	0.643250	0.870710	0.139670
C3101	C310	0.649650	0.938130	0.108650
C3111	C311	0.540660	0.954360	0.176060
C3121	C312	0.579130	0.914410	0.223250
C3131	C313	0.344850	0.239910	0.458250
C3141	C314	0.413460	0.246320	0.416740
C3151	C315	0.367110	0.283970	0.507210
C3161	C316	0.402120	0.209980	0.527960
C3171	C317	0.370710	0.143250	0.346370
C3181	C318	0.438130	0.149650	0.303570
C3191	C319	0.454360	0.040660	0.328920
C3201	C320	0.414410	0.079130	0.283210
C3211	C321	0.344850	0.956990	0.239910
C3221	C322	0.413460	0.923480	0.246320
C3231	C323	0.367110	0.841710	0.283970
C3241	C324	0.402120	0.859940	0.209980
C3251	C325	0.370710	0.139670	0.143250
C3261	C326	0.438130	0.108650	0.149650
C3271	C327	0.454360	0.176060	0.040660
C3281	C328	0.414410	0.223250	0.079130
C3291	C329	0.739910	0.458250	0.844850
C3301	C330	0.746320	0.416740	0.913460
C3311	C331	0.783970	0.507210	0.867110
C3321	C332	0.709980	0.527960	0.902120
C3331	C333	0.643250	0.346370	0.870710
C3341	C334	0.649650	0.303570	0.938130
C3351	C335	0.540660	0.328920	0.954360
C3361	C336	0.579130	0.283210	0.914410
C3371	C337	0.456990	0.844850	0.458250
C3381	C338	0.423480	0.913460	0.416740
C3391	C339	0.341710	0.867110	0.507210
C3401	C340	0.359940	0.902120	0.527960
C3411	C341	0.639670	0.870710	0.346370
C3421	C342	0.608650	0.938130	0.303570
C3431	C343	0.676060	0.954360	0.328920
C3441	C344	0.723250	0.914410	0.283210
C3451	C345	0.958250	0.239910	0.956990
C3461	C346	0.916740	0.246320	0.923480
C3471	C347	0.007210	0.283970	0.841710
C3481	C348	0.027960	0.209980	0.859940
C3491	C349	0.846370	0.143250	0.139670
C3501	C350	0.803570	0.149650	0.108650
C3511	C351	0.828920	0.040660	0.176060
C3521	C352	0.783210	0.079130	0.223250
C3531	C353	0.739910	0.956990	0.458250
C3541	C354	0.746320	0.923480	0.416740
C3551	C355	0.783970	0.841710	0.507210
C3561	C356	0.709980	0.859940	0.527960
C3571	C357	0.643250	0.139670	0.346370
C3581	C358	0.649650	0.108650	0.303570
C3591	C359	0.540660	0.176060	0.328920
C3601	C360	0.579130	0.223250	0.283210
C3611	C361	0.344850	0.458250	0.956990
C3621	C362	0.413460	0.416740	0.923480
C3631	C363	0.367110	0.507210	0.841710
C3641	C364	0.402120	0.527960	0.859940
C3651	C365	0.370710	0.346370	0.139670
C3661	C366	0.438130	0.303570	0.108650
C3671	C367	0.454360	0.328920	0.176060
C3681	C368	0.414410	0.283210	0.223250
C3691	C369	0.958250	0.844850	0.239910
C3701	C370	0.916740	0.913460	0.246320
C3711	C371	0.007210	0.867110	0.283970
C3721	C372	0.027960	0.902120	0.209980
C3731	C373	0.846370	0.870710	0.143250
C3741	C374	0.803570	0.938130	0.149650
C3751	C375	0.828920	0.954360	0.040660
C3761	C376	0.783210	0.914410	0.079130
C3771	C377	0.456990	0.239910	0.844850
C3781	C378	0.423480	0.246320	0.913460
C3791	C379	0.341710	0.283970	0.867110
C3801	C380	0.359940	0.209980	0.902120
C3811	C381	0.639670	0.143250	0.870710
C3821	C382	0.608650	0.149650	0.938130
C3831	C383	0.676060	0.040660	0.954360
C3841	C384	0.723250	0.079130	0.914410
N11	N1	0.987730	0.918190	0.354670
N21	N2	0.967350	0.891130	0.398810
N31	N3	0.916330	0.958990	0.380770
N41	N4	0.874900	0.995660	0.383520
N51	N5	0.808460	0.043820	0.376120
N61	N6	0.819470	0.056250	0.399630
N71	N7	0.102840	0.845680	0.370400
N81	N8	0.083840	0.818580	0.414280
N91	N9	0.143870	0.820610	0.412070
N101	N10	0.179040	0.811940	0.426320
N111	N11	0.215600	0.813620	0.459020
N121	N12	0.245780	0.784520	0.433540
N131	N13	0.418190	0.487730	0.739410
N141	N14	0.391130	0.467350	0.742710
N151	N15	0.458990	0.416330	0.743910
N161	N16	0.495660	0.374900	0.745920
N171	N17	0.543820	0.308460	0.771600
N181	N18	0.556250	0.319470	0.724650
N191	N19	0.345680	0.602840	0.681080
N201	N20	0.318580	0.583840	0.683300
N211	N21	0.320610	0.643870	0.623450
N221	N22	0.311940	0.679040	0.582700
N231	N23	0.313620	0.715600	0.511760
N241	N24	0.284520	0.745780	0.536160
N251	N25	0.854670	0.739410	0.487730
N261	N26	0.898810	0.742710	0.467350
N271	N27	0.880770	0.743910	0.416330
N281	N28	0.883520	0.745920	0.374900
N291	N29	0.876120	0.771600	0.308460
N301	N30	0.899630	0.724650	0.319470
N311	N31	0.870400	0.681080	0.602840
N321	N32	0.914280	0.683300	0.583840
N331	N33	0.912070	0.623450	0.643870
N341	N34	0.926320	0.582700	0.679040
N351	N35	0.959020	0.511760	0.715600
N361	N36	0.933540	0.536160	0.745780
N371	N37	0.239410	0.354670	0.918190
N381	N38	0.242710	0.398810	0.891130
N391	N39	0.243910	0.380770	0.958990
N401	N40	0.245920	0.383520	0.995660
N411	N41	0.271600	0.376120	0.043820
N421	N42	0.224650	0.399630	0.056250
N431	N43	0.181080	0.370400	0.845680
N441	N44	0.183300	0.414280	0.818580
N451	N45	0.123450	0.412070	0.820610
N461	N46	0.082700	0.426320	0.811940
N471	N47	0.011760	0.459020	0.813620
N481	N48	0.036160	0.433540	0.784520
N491	N49	0.987730	0.354670	0.739410
N501	N50	0.967350	0.398810	0.742710
N511	N51	0.916330	0.380770	0.743910
N521	N52	0.874900	0.383520	0.745920
N531	N53	0.808460	0.376120	0.771600
N541	N54	0.819470	0.399630	0.724650
N551	N55	0.102840	0.370400	0.681080
N561	N56	0.083840	0.414280	0.683300
N571	N57	0.143870	0.412070	0.623450
N581	N58	0.179040	0.426320	0.582700
N591	N59	0.215600	0.459020	0.511760
N601	N60	0.245780	0.433540	0.536160
N611	N61	0.418190	0.739410	0.354670
N621	N62	0.391130	0.742710	0.398810
N631	N63	0.458990	0.743910	0.380770
N641	N64	0.495660	0.745920	0.383520
N651	N65	0.543820	0.771600	0.376120
N661	N66	0.556250	0.724650	0.399630
N671	N67	0.345680	0.681080	0.370400
N681	N68	0.318580	0.683300	0.414280
N691	N69	0.320610	0.623450	0.412070
N701	N70	0.311940	0.582700	0.426320
N711	N71	0.313620	0.511760	0.459020
N721	N72	0.284520	0.536160	0.433540
N731	N73	0.854670	0.487730	0.918190
N741	N74	0.898810	0.467350	0.891130
N751	N75	0.880770	0.416330	0.958990
N761	N76	0.883520	0.374900	0.995660
N771	N77	0.876120	0.308460	0.043820
N781	N78	0.899630	0.319470	0.056250
N791	N79	0.870400	0.602840	0.845680
N801	N80	0.914280	0.583840	0.818580
N811	N81	0.912070	0.643870	0.820610
N821	N82	0.926320	0.679040	0.811940
N831	N83	0.959020	0.715600	0.813620
N841	N84	0.933540	0.745780	0.784520
N851	N85	0.239410	0.918190	0.487730
N861	N86	0.242710	0.891130	0.467350
N871	N87	0.243910	0.958990	0.416330
N881	N88	0.245920	0.995660	0.374900
N891	N89	0.271600	0.043820	0.308460
N901	N90	0.224650	0.056250	0.319470
N911	N91	0.181080	0.845680	0.602840
N921	N92	0.183300	0.818580	0.583840
N931	N93	0.123450	0.820610	0.643870
N941	N94	0.082700	0.811940	0.679040
N951	N95	0.011760	0.813620	0.715600
N961	N96	0.036160	0.784520	0.745780
N971	N97	0.987730	0.739410	0.918190
N981	N98	0.967350	0.742710	0.891130
N991	N99	0.916330	0.743910	0.958990
N1001	N100	0.874900	0.745920	0.995660
N1011	N101	0.808460	0.771600	0.043820
N1021	N102	0.819470	0.724650	0.056250
N1031	N103	0.102840	0.681080	0.845680
N1041	N104	0.083840	0.683300	0.818580
N1051	N105	0.143870	0.623450	0.820610
N1061	N106	0.179040	0.582700	0.811940
N1071	N107	0.215600	0.511760	0.813620
N1081	N108	0.245780	0.536160	0.784520
N1091	N109	0.418190	0.354670	0.487730
N1101	N110	0.391130	0.398810	0.467350
N1111	N111	0.458990	0.380770	0.416330
N1121	N112	0.495660	0.383520	0.374900
N1131	N113	0.543820	0.376120	0.308460
N1141	N114	0.556250	0.399630	0.319470
N1151	N115	0.345680	0.370400	0.602840
N1161	N116	0.318580	0.414280	0.583840
N1171	N117	0.320610	0.412070	0.643870
N1181	N118	0.311940	0.426320	0.679040
N1191	N119	0.313620	0.459020	0.715600
N1201	N120	0.284520	0.433540	0.745780
N1211	N121	0.854670	0.918190	0.739410
N1221	N122	0.898810	0.891130	0.742710
N1231	N123	0.880770	0.958990	0.743910
N1241	N124	0.883520	0.995660	0.745920
N1251	N125	0.876120	0.043820	0.771600
N1261	N126	0.899630	0.056250	0.724650
N1271	N127	0.870400	0.845680	0.681080
N1281	N128	0.914280	0.818580	0.683300
N1291	N129	0.912070	0.820610	0.623450
N1301	N130	0.926320	0.811940	0.582700
N1311	N131	0.959020	0.813620	0.511760
N1321	N132	0.933540	0.784520	0.536160
N1331	N133	0.239410	0.487730	0.354670
N1341	N134	0.242710	0.467350	0.398810
N1351	N135	0.243910	0.416330	0.380770
N1361	N136	0.245920	0.374900	0.383520
N1371	N137	0.271600	0.308460	0.376120
N1381	N138	0.224650	0.319470	0.399630
N1391	N139	0.181080	0.602840	0.370400
N1401	N140	0.183300	0.583840	0.414280
N1411	N141	0.123450	0.643870	0.412070
N1421	N142	0.082700	0.679040	0.426320
N1431	N143	0.011760	0.715600	0.459020
N1441	N144	0.036160	0.745780	0.433540
N1451	N145	0.081810	0.012270	0.145330
N1461	N146	0.108870	0.032650	0.101190
N1471	N147	0.041010	0.083670	0.119230
N1481	N148	0.004340	0.125100	0.116480
N1491	N149	0.956180	0.191540	0.123880
N1501	N150	0.943750	0.180530	0.100370
N1511	N151	0.154320	0.897160	0.129600
N1521	N152	0.181420	0.916160	0.085720
N1531	N153	0.179390	0.856130	0.087930
N1541	N154	0.188060	0.820960	0.073680
N1551	N155	0.186380	0.784400	0.040980
N1561	N156	0.215480	0.754220	0.066460
N1571	N157	0.512270	0.581810	0.760590
N1581	N158	0.532650	0.608870	0.757290
N1591	N159	0.583670	0.541010	0.756090
N1601	N160	0.625100	0.504340	0.754080
N1611	N161	0.691540	0.456180	0.728400
N1621	N162	0.680530	0.443750	0.775350
N1631	N163	0.397160	0.654320	0.818920
N1641	N164	0.416160	0.681420	0.816700
N1651	N165	0.356130	0.679390	0.876550
N1661	N166	0.320960	0.688060	0.917300
N1671	N167	0.284400	0.686380	0.988240
N1681	N168	0.254220	0.715480	0.963840
N1691	N169	0.260590	0.145330	0.012270
N1701	N170	0.257290	0.101190	0.032650
N1711	N171	0.256090	0.119230	0.083670
N1721	N172	0.254080	0.116480	0.125100
N1731	N173	0.228400	0.123880	0.191540
N1741	N174	0.275350	0.100370	0.180530
N1751	N175	0.318920	0.129600	0.897160
N1761	N176	0.316700	0.085720	0.916160
N1771	N177	0.376550	0.087930	0.856130
N1781	N178	0.417300	0.073680	0.820960
N1791	N179	0.488240	0.040980	0.784400
N1801	N180	0.463840	0.066460	0.754220
N1811	N181	0.645330	0.760590	0.581810
N1821	N182	0.601190	0.757290	0.608870
N1831	N183	0.619230	0.756090	0.541010
N1841	N184	0.616480	0.754080	0.504340
N1851	N185	0.623880	0.728400	0.456180
N1861	N186	0.600370	0.775350	0.443750
N1871	N187	0.629600	0.818920	0.654320
N1881	N188	0.585720	0.816700	0.681420
N1891	N189	0.587930	0.876550	0.679390
N1901	N190	0.573680	0.917300	0.688060
N1911	N191	0.540980	0.988240	0.686380
N1921	N192	0.566460	0.963840	0.715480
N1931	N193	0.645330	0.012270	0.760590
N1941	N194	0.601190	0.032650	0.757290
N1951	N195	0.619230	0.083670	0.756090
N1961	N196	0.616480	0.125100	0.754080
N1971	N197	0.623880	0.191540	0.728400
N1981	N198	0.600370	0.180530	0.775350
N1991	N199	0.629600	0.897160	0.818920
N2001	N200	0.585720	0.916160	0.816700
N2011	N201	0.587930	0.856130	0.876550
N2021	N202	0.573680	0.820960	0.917300
N2031	N203	0.540980	0.784400	0.988240
N2041	N204	0.566460	0.754220	0.963840
N2051	N205	0.260590	0.581810	0.145330
N2061	N206	0.257290	0.608870	0.101190
N2071	N207	0.256090	0.541010	0.119230
N2081	N208	0.254080	0.504340	0.116480
N2091	N209	0.228400	0.456180	0.123880
N2101	N210	0.275350	0.443750	0.100370
N2111	N211	0.318920	0.654320	0.129600
N2121	N212	0.316700	0.681420	0.085720
N2131	N213	0.376550	0.679390	0.087930
N2141	N214	0.417300	0.688060	0.073680
N2151	N215	0.488240	0.686380	0.040980
N2161	N216	0.463840	0.715480	0.066460
N2171	N217	0.512270	0.145330	0.581810
N2181	N218	0.532650	0.101190	0.608870
N2191	N219	0.583670	0.119230	0.541010
N2201	N220	0.625100	0.116480	0.504340
N2211	N221	0.691540	0.123880	0.456180
N2221	N222	0.680530	0.100370	0.443750
N2231	N223	0.397160	0.129600	0.654320
N2241	N224	0.416160	0.085720	0.681420
N2251	N225	0.356130	0.087930	0.679390
N2261	N226	0.320960	0.073680	0.688060
N2271	N227	0.284400	0.040980	0.686380
N2281	N228	0.254220	0.066460	0.715480
N2291	N229	0.081810	0.760590	0.012270
N2301	N230	0.108870	0.757290	0.032650
N2311	N231	0.041010	0.756090	0.083670
N2321	N232	0.004340	0.754080	0.125100
N2331	N233	0.956180	0.728400	0.191540
N2341	N234	0.943750	0.775350	0.180530
N2351	N235	0.154320	0.818920	0.897160
N2361	N236	0.181420	0.816700	0.916160
N2371	N237	0.179390	0.876550	0.856130
N2381	N238	0.188060	0.917300	0.820960
N2391	N239	0.186380	0.988240	0.784400
N2401	N240	0.215480	0.963840	0.754220
N2411	N241	0.260590	0.012270	0.581810
N2421	N242	0.257290	0.032650	0.608870
N2431	N243	0.256090	0.083670	0.541010
N2441	N244	0.254080	0.125100	0.504340
N2451	N245	0.228400	0.191540	0.456180
N2461	N246	0.275350	0.180530	0.443750
N2471	N247	0.318920	0.897160	0.654320
N2481	N248	0.316700	0.916160	0.681420
N2491	N249	0.376550	0.856130	0.679390
N2501	N250	0.417300	0.820960	0.688060
N2511	N251	0.488240	0.784400	0.686380
N2521	N252	0.463840	0.754220	0.715480
N2531	N253	0.645330	0.581810	0.012270
N2541	N254	0.601190	0.608870	0.032650
N2551	N255	0.619230	0.541010	0.083670
N2561	N256	0.616480	0.504340	0.125100
N2571	N257	0.623880	0.456180	0.191540
N2581	N258	0.600370	0.443750	0.180530
N2591	N259	0.629600	0.654320	0.897160
N2601	N260	0.585720	0.681420	0.916160
N2611	N261	0.587930	0.679390	0.856130
N2621	N262	0.573680	0.688060	0.820960
N2631	N263	0.540980	0.686380	0.784400
N2641	N264	0.566460	0.715480	0.754220
N2651	N265	0.081810	0.145330	0.760590
N2661	N266	0.108870	0.101190	0.757290
N2671	N267	0.041010	0.119230	0.756090
N2681	N268	0.004340	0.116480	0.754080
N2691	N269	0.956180	0.123880	0.728400
N2701	N270	0.943750	0.100370	0.775350
N2711	N271	0.154320	0.129600	0.818920
N2721	N272	0.181420	0.085720	0.816700
N2731	N273	0.179390	0.087930	0.876550
N2741	N274	0.188060	0.073680	0.917300
N2751	N275	0.186380	0.040980	0.988240
N2761	N276	0.215480	0.066460	0.963840
N2771	N277	0.512270	0.760590	0.145330
N2781	N278	0.532650	0.757290	0.101190
N2791	N279	0.583670	0.756090	0.119230
N2801	N280	0.625100	0.754080	0.116480
N2811	N281	0.691540	0.728400	0.123880
N2821	N282	0.680530	0.775350	0.100370
N2831	N283	0.397160	0.818920	0.129600
N2841	N284	0.416160	0.816700	0.085720
N2851	N285	0.356130	0.876550	0.087930
N2861	N286	0.320960	0.917300	0.073680
N2871	N287	0.284400	0.988240	0.040980
N2881	N288	0.254220	0.963840	0.066460
N2891	N289	0.012270	0.081810	0.645330
N2901	N290	0.032650	0.108870	0.601190
N2911	N291	0.083670	0.041010	0.619230
N2921	N292	0.125100	0.004340	0.616480
N2931	N293	0.191540	0.956180	0.623880
N2941	N294	0.180530	0.943750	0.600370
N2951	N295	0.897160	0.154320	0.629600
N2961	N296	0.916160	0.181420	0.585720
N2971	N297	0.856130	0.179390	0.587930
N2981	N298	0.820960	0.188060	0.573680
N2991	N299	0.784400	0.186380	0.540980
N3001	N300	0.754220	0.215480	0.566460
N3011	N301	0.581810	0.512270	0.260590
N3021	N302	0.608870	0.532650	0.257290
N3031	N303	0.541010	0.583670	0.256090
N3041	N304	0.504340	0.625100	0.254080
N3051	N305	0.456180	0.691540	0.228400
N3061	N306	0.443750	0.680530	0.275350
N3071	N307	0.654320	0.397160	0.318920
N3081	N308	0.681420	0.416160	0.316700
N3091	N309	0.679390	0.356130	0.376550
N3101	N310	0.688060	0.320960	0.417300
N3111	N311	0.686380	0.284400	0.488240
N3121	N312	0.715480	0.254220	0.463840
N3131	N313	0.145330	0.260590	0.512270
N3141	N314	0.101190	0.257290	0.532650
N3151	N315	0.119230	0.256090	0.583670
N3161	N316	0.116480	0.254080	0.625100
N3171	N317	0.123880	0.228400	0.691540
N3181	N318	0.100370	0.275350	0.680530
N3191	N319	0.129600	0.318920	0.397160
N3201	N320	0.085720	0.316700	0.416160
N3211	N321	0.087930	0.376550	0.356130
N3221	N322	0.073680	0.417300	0.320960
N3231	N323	0.040980	0.488240	0.284400
N3241	N324	0.066460	0.463840	0.254220
N3251	N325	0.760590	0.645330	0.081810
N3261	N326	0.757290	0.601190	0.108870
N3271	N327	0.756090	0.619230	0.041010
N3281	N328	0.754080	0.616480	0.004340
N3291	N329	0.728400	0.623880	0.956180
N3301	N330	0.775350	0.600370	0.943750
N3311	N331	0.818920	0.629600	0.154320
N3321	N332	0.816700	0.585720	0.181420
N3331	N333	0.876550	0.587930	0.179390
N3341	N334	0.917300	0.573680	0.188060
N3351	N335	0.988240	0.540980	0.186380
N3361	N336	0.963840	0.566460	0.215480
N3371	N337	0.012270	0.645330	0.260590
N3381	N338	0.032650	0.601190	0.257290
N3391	N339	0.083670	0.619230	0.256090
N3401	N340	0.125100	0.616480	0.254080
N3411	N341	0.191540	0.623880	0.228400
N3421	N342	0.180530	0.600370	0.275350
N3431	N343	0.897160	0.629600	0.318920
N3441	N344	0.916160	0.585720	0.316700
N3451	N345	0.856130	0.587930	0.376550
N3461	N346	0.820960	0.573680	0.417300
N3471	N347	0.784400	0.540980	0.488240
N3481	N348	0.754220	0.566460	0.463840
N3491	N349	0.581810	0.260590	0.645330
N3501	N350	0.608870	0.257290	0.601190
N3511	N351	0.541010	0.256090	0.619230
N3521	N352	0.504340	0.254080	0.616480
N3531	N353	0.456180	0.228400	0.623880
N3541	N354	0.443750	0.275350	0.600370
N3551	N355	0.654320	0.318920	0.629600
N3561	N356	0.681420	0.316700	0.585720
N3571	N357	0.679390	0.376550	0.587930
N3581	N358	0.688060	0.417300	0.573680
N3591	N359	0.686380	0.488240	0.540980
N3601	N360	0.715480	0.463840	0.566460
N3611	N361	0.145330	0.512270	0.081810
N3621	N362	0.101190	0.532650	0.108870
N3631	N363	0.119230	0.583670	0.041010
N3641	N364	0.116480	0.625100	0.004340
N3651	N365	0.123880	0.691540	0.956180
N3661	N366	0.100370	0.680530	0.943750
N3671	N367	0.129600	0.397160	0.154320
N3681	N368	0.085720	0.416160	0.181420
N3691	N369	0.087930	0.356130	0.179390
N3701	N370	0.073680	0.320960	0.188060
N3711	N371	0.040980	0.284400	0.186380
N3721	N372	0.066460	0.254220	0.215480
N3731	N373	0.760590	0.081810	0.512270
N3741	N374	0.757290	0.108870	0.532650
N3751	N375	0.756090	0.041010	0.583670
N3761	N376	0.754080	0.004340	0.625100
N3771	N377	0.728400	0.956180	0.691540
N3781	N378	0.775350	0.943750	0.680530
N3791	N379	0.818920	0.154320	0.397160
N3801	N380	0.816700	0.181420	0.416160
N3811	N381	0.876550	0.179390	0.356130
N3821	N382	0.917300	0.188060	0.320960
N3831	N383	0.988240	0.186380	0.284400
N3841	N384	0.963840	0.215480	0.254220
N3851	N385	0.012270	0.260590	0.081810
N3861	N386	0.032650	0.257290	0.108870
N3871	N387	0.083670	0.256090	0.041010
N3881	N388	0.125100	0.254080	0.004340
N3891	N389	0.191540	0.228400	0.956180
N3901	N390	0.180530	0.275350	0.943750
N3911	N391	0.897160	0.318920	0.154320
N3921	N392	0.916160	0.316700	0.181420
N3931	N393	0.856130	0.376550	0.179390
N3941	N394	0.820960	0.417300	0.188060
N3951	N395	0.784400	0.488240	0.186380
N3961	N396	0.754220	0.463840	0.215480
N3971	N397	0.581810	0.645330	0.512270
N3981	N398	0.608870	0.601190	0.532650
N3991	N399	0.541010	0.619230	0.583670
N4001	N400	0.504340	0.616480	0.625100
N4011	N401	0.456180	0.623880	0.691540
N4021	N402	0.443750	0.600370	0.680530
N4031	N403	0.654320	0.629600	0.397160
N4041	N404	0.681420	0.585720	0.416160
N4051	N405	0.679390	0.587930	0.356130
N4061	N406	0.688060	0.573680	0.320960
N4071	N407	0.686380	0.540980	0.284400
N4081	N408	0.715480	0.566460	0.254220
N4091	N409	0.145330	0.081810	0.260590
N4101	N410	0.101190	0.108870	0.257290
N4111	N411	0.119230	0.041010	0.256090
N4121	N412	0.116480	0.004340	0.254080
N4131	N413	0.123880	0.956180	0.228400
N4141	N414	0.100370	0.943750	0.275350
N4151	N415	0.129600	0.154320	0.318920
N4161	N416	0.085720	0.181420	0.316700
N4171	N417	0.087930	0.179390	0.376550
N4181	N418	0.073680	0.188060	0.417300
N4191	N419	0.040980	0.186380	0.488240
N4201	N420	0.066460	0.215480	0.463840
N4211	N421	0.760590	0.512270	0.645330
N4221	N422	0.757290	0.532650	0.601190
N4231	N423	0.756090	0.583670	0.619230
N4241	N424	0.754080	0.625100	0.616480
N4251	N425	0.728400	0.691540	0.623880
N4261	N426	0.775350	0.680530	0.600370
N4271	N427	0.818920	0.397160	0.629600
N4281	N428	0.816700	0.416160	0.585720
N4291	N429	0.876550	0.356130	0.587930
N4301	N430	0.917300	0.320960	0.573680
N4311	N431	0.988240	0.284400	0.540980
N4321	N432	0.963840	0.254220	0.566460
N4331	N433	0.918190	0.987730	0.854670
N4341	N434	0.891130	0.967350	0.898810
N4351	N435	0.958990	0.916330	0.880770
N4361	N436	0.995660	0.874900	0.883520
N4371	N437	0.043820	0.808460	0.876120
N4381	N438	0.056250	0.819470	0.899630
N4391	N439	0.845680	0.102840	0.870400
N4401	N440	0.818580	0.083840	0.914280
N4411	N441	0.820610	0.143870	0.912070
N4421	N442	0.811940	0.179040	0.926320
N4431	N443	0.813620	0.215600	0.959020
N4441	N444	0.784520	0.245780	0.933540
N4451	N445	0.487730	0.418190	0.239410
N4461	N446	0.467350	0.391130	0.242710
N4471	N447	0.416330	0.458990	0.243910
N4481	N448	0.374900	0.495660	0.245920
N4491	N449	0.308460	0.543820	0.271600
N4501	N450	0.319470	0.556250	0.224650
N4511	N451	0.602840	0.345680	0.181080
N4521	N452	0.583840	0.318580	0.183300
N4531	N453	0.643870	0.320610	0.123450
N4541	N454	0.679040	0.311940	0.082700
N4551	N455	0.715600	0.313620	0.011760
N4561	N456	0.745780	0.284520	0.036160
N4571	N457	0.739410	0.854670	0.987730
N4581	N458	0.742710	0.898810	0.967350
N4591	N459	0.743910	0.880770	0.916330
N4601	N460	0.745920	0.883520	0.874900
N4611	N461	0.771600	0.876120	0.808460
N4621	N462	0.724650	0.899630	0.819470
N4631	N463	0.681080	0.870400	0.102840
N4641	N464	0.683300	0.914280	0.083840
N4651	N465	0.623450	0.912070	0.143870
N4661	N466	0.582700	0.926320	0.179040
N4671	N467	0.511760	0.959020	0.215600
N4681	N468	0.536160	0.933540	0.245780
N4691	N469	0.354670	0.239410	0.418190
N4701	N470	0.398810	0.242710	0.391130
N4711	N471	0.380770	0.243910	0.458990
N4721	N472	0.383520	0.245920	0.495660
N4731	N473	0.376120	0.271600	0.543820
N4741	N474	0.399630	0.224650	0.556250
N4751	N475	0.370400	0.181080	0.345680
N4761	N476	0.414280	0.183300	0.318580
N4771	N477	0.412070	0.123450	0.320610
N4781	N478	0.426320	0.082700	0.311940
N4791	N479	0.459020	0.011760	0.313620
N4801	N480	0.433540	0.036160	0.284520
N4811	N481	0.354670	0.987730	0.239410
N4821	N482	0.398810	0.967350	0.242710
N4831	N483	0.380770	0.916330	0.243910
N4841	N484	0.383520	0.874900	0.245920
N4851	N485	0.376120	0.808460	0.271600
N4861	N486	0.399630	0.819470	0.224650
N4871	N487	0.370400	0.102840	0.181080
N4881	N488	0.414280	0.083840	0.183300
N4891	N489	0.412070	0.143870	0.123450
N4901	N490	0.426320	0.179040	0.082700
N4911	N491	0.459020	0.215600	0.011760
N4921	N492	0.433540	0.245780	0.036160
N4931	N493	0.739410	0.418190	0.854670
N4941	N494	0.742710	0.391130	0.898810
N4951	N495	0.743910	0.458990	0.880770
N4961	N496	0.745920	0.495660	0.883520
N4971	N497	0.771600	0.543820	0.876120
N4981	N498	0.724650	0.556250	0.899630
N4991	N499	0.681080	0.345680	0.870400
N5001	N500	0.683300	0.318580	0.914280
N5011	N501	0.623450	0.320610	0.912070
N5021	N502	0.582700	0.311940	0.926320
N5031	N503	0.511760	0.313620	0.959020
N5041	N504	0.536160	0.284520	0.933540
N5051	N505	0.487730	0.854670	0.418190
N5061	N506	0.467350	0.898810	0.391130
N5071	N507	0.416330	0.880770	0.458990
N5081	N508	0.374900	0.883520	0.495660
N5091	N509	0.308460	0.876120	0.543820
N5101	N510	0.319470	0.899630	0.556250
N5111	N511	0.602840	0.870400	0.345680
N5121	N512	0.583840	0.914280	0.318580
N5131	N513	0.643870	0.912070	0.320610
N5141	N514	0.679040	0.926320	0.311940
N5151	N515	0.715600	0.959020	0.313620
N5161	N516	0.745780	0.933540	0.284520
N5171	N517	0.918190	0.239410	0.987730
N5181	N518	0.891130	0.242710	0.967350
N5191	N519	0.958990	0.243910	0.916330
N5201	N520	0.995660	0.245920	0.874900
N5211	N521	0.043820	0.271600	0.808460
N5221	N522	0.056250	0.224650	0.819470
N5231	N523	0.845680	0.181080	0.102840
N5241	N524	0.818580	0.183300	0.083840
N5251	N525	0.820610	0.123450	0.143870
N5261	N526	0.811940	0.082700	0.179040
N5271	N527	0.813620	0.011760	0.215600
N5281	N528	0.784520	0.036160	0.245780
N5291	N529	0.739410	0.987730	0.418190
N5301	N530	0.742710	0.967350	0.391130
N5311	N531	0.743910	0.916330	0.458990
N5321	N532	0.745920	0.874900	0.495660
N5331	N533	0.771600	0.808460	0.543820
N5341	N534	0.724650	0.819470	0.556250
N5351	N535	0.681080	0.102840	0.345680
N5361	N536	0.683300	0.083840	0.318580
N5371	N537	0.623450	0.143870	0.320610
N5381	N538	0.582700	0.179040	0.311940
N5391	N539	0.511760	0.215600	0.313620
N5401	N540	0.536160	0.245780	0.284520
N5411	N541	0.354670	0.418190	0.987730
N5421	N542	0.398810	0.391130	0.967350
N5431	N543	0.380770	0.458990	0.916330
N5441	N544	0.383520	0.495660	0.874900
N5451	N545	0.376120	0.543820	0.808460
N5461	N546	0.399630	0.556250	0.819470
N5471	N547	0.370400	0.345680	0.102840
N5481	N548	0.414280	0.318580	0.083840
N5491	N549	0.412070	0.320610	0.143870
N5501	N550	0.426320	0.311940	0.179040
N5511	N551	0.459020	0.313620	0.215600
N5521	N552	0.433540	0.284520	0.245780
N5531	N553	0.918190	0.854670	0.239410
N5541	N554	0.891130	0.898810	0.242710
N5551	N555	0.958990	0.880770	0.243910
N5561	N556	0.995660	0.883520	0.245920
N5571	N557	0.043820	0.876120	0.271600
N5581	N558	0.056250	0.899630	0.224650
N5591	N559	0.845680	0.870400	0.181080
N5601	N560	0.818580	0.914280	0.183300
N5611	N561	0.820610	0.912070	0.123450
N5621	N562	0.811940	0.926320	0.082700
N5631	N563	0.813620	0.959020	0.011760
N5641	N564	0.784520	0.933540	0.036160
N5651	N565	0.487730	0.239410	0.854670
N5661	N566	0.467350	0.242710	0.898810
N5671	N567	0.416330	0.243910	0.880770
N5681	N568	0.374900	0.245920	0.883520
N5691	N569	0.308460	0.271600	0.876120
N5701	N570	0.319470	0.224650	0.899630
N5711	N571	0.602840	0.181080	0.870400
N5721	N572	0.583840	0.183300	0.914280
N5731	N573	0.643870	0.123450	0.912070
N5741	N574	0.679040	0.082700	0.926320
N5751	N575	0.715600	0.011760	0.959020
N5761	N576	0.745780	0.036160	0.933540
