data_YIWLEV_freeONLY_PM
_symmetry_space_group_name_H-M	'P1'
_cell_length_a	8.848970
_cell_length_b	8.848970
_cell_length_c	11.553000
_cell_angle_alpha	67.482100
_cell_angle_beta	67.482100
_cell_angle_gamma	60.000000
_symmetry_Int_Tables_number 1

loop_
_symmetry_equiv_pos_as_xyz
'x,y,z'

loop_
_atom_site_label
_atom_site_type_symbol
_atom_site_fract_x
_atom_site_fract_y
_atom_site_fract_z
Cd11	Cd1	0.000000	0.000000	0.000000
Cd21	Cd2	0.409850	0.409850	0.770450
Cd31	Cd3	0.590150	0.590150	0.229550
C11	C1	0.480130	0.480130	0.559610
C21	C2	0.519870	0.519870	0.440390
C31	C3	0.251600	0.662700	0.834100
C41	C4	0.662700	0.251600	0.834100
C51	C5	0.251600	0.251600	0.834100
C61	C6	0.748400	0.748400	0.165900
C71	C7	0.337300	0.748400	0.165900
C81	C8	0.748400	0.337300	0.165900
N11	N1	0.168800	0.786000	0.876400
N21	N2	0.786000	0.168800	0.876400
N31	N3	0.168800	0.168800	0.876400
N41	N4	0.831200	0.831200	0.123600
N51	N5	0.214000	0.831200	0.123600
N61	N6	0.831200	0.214000	0.123600
