data_YIWMEW_freeONLY_PM
_symmetry_space_group_name_H-M	'P1'
_cell_length_a	8.694000
_cell_length_b	11.212000
_cell_length_c	13.483000
_cell_angle_alpha	90.000000
_cell_angle_beta	90.000000
_cell_angle_gamma	90.000000
_symmetry_Int_Tables_number 1

loop_
_symmetry_equiv_pos_as_xyz
'x,y,z'

loop_
_atom_site_label
_atom_site_type_symbol
_atom_site_fract_x
_atom_site_fract_y
_atom_site_fract_z
Cd11	Cd1	0.000000	0.766240	0.000000
Cd21	Cd2	0.500000	0.233760	0.500000
Cd31	Cd3	0.500000	0.067880	0.100770
Cd41	Cd4	0.500000	0.485720	0.867540
Cd51	Cd5	0.000000	0.932120	0.600770
Cd61	Cd6	0.000000	0.514280	0.367540
C11	C1	0.707300	0.960800	0.061200
C21	C2	0.706700	0.580000	0.918300
C31	C3	0.792700	0.039200	0.561200
C41	C4	0.793300	0.420000	0.418300
C51	C5	0.207300	0.039200	0.561200
C61	C6	0.206700	0.420000	0.418300
C71	C7	0.292700	0.960800	0.061200
C81	C8	0.293300	0.580000	0.918300
C91	C9	0.000000	0.876500	0.758000
C101	C10	0.000000	0.623500	0.230900
C111	C11	0.500000	0.123500	0.258000
C121	C12	0.500000	0.376500	0.730900
C131	C13	0.500000	0.239100	0.017300
C141	C14	0.500000	0.327200	0.975700
C151	C15	0.000000	0.760900	0.517300
C161	C16	0.000000	0.672800	0.475700
N11	N1	0.807700	0.899200	0.041900
N21	N2	0.807500	0.632100	0.949300
N31	N3	0.692300	0.100800	0.541900
N41	N4	0.692500	0.367900	0.449300
N51	N5	0.307700	0.100800	0.541900
N61	N6	0.307500	0.367900	0.449300
N71	N7	0.192300	0.899200	0.041900
N81	N8	0.192500	0.632100	0.949300
N91	N9	0.000000	0.842100	0.838300
N101	N10	0.000000	0.677500	0.158300
N111	N11	0.500000	0.157900	0.338300
N121	N12	0.500000	0.322500	0.658300
