data_YONNAR_freeONLY_PM
_symmetry_space_group_name_H-M	'P1'
_cell_length_a	20.130800
_cell_length_b	27.409900
_cell_length_c	45.333800
_cell_angle_alpha	90.000000
_cell_angle_beta	90.000000
_cell_angle_gamma	90.000000
_symmetry_Int_Tables_number 1

loop_
_symmetry_equiv_pos_as_xyz
'x,y,z'

loop_
_atom_site_label
_atom_site_type_symbol
_atom_site_fract_x
_atom_site_fract_y
_atom_site_fract_z
Zn11	Zn1	0.686360	0.249030	0.590190
Zn21	Zn2	0.728980	0.128980	0.584010
Zn31	Zn3	0.740380	0.186390	0.647210
Zn41	Zn4	0.025360	0.680000	0.650810
Zn51	Zn5	0.459180	0.787520	0.584840
Zn61	Zn6	0.576080	0.866580	0.587030
Zn71	Zn7	0.090780	0.750940	0.914830
Zn81	Zn8	0.568420	0.871870	0.917030
Zn91	Zn9	0.543950	0.811500	0.855990
Zn101	Zn10	0.252580	0.323840	0.850810
Zn111	Zn11	0.327250	0.314170	0.917490
Zn121	Zn12	0.670610	0.188580	0.915280
Zn131	Zn13	0.186360	0.750970	0.409810
Zn141	Zn14	0.228980	0.871020	0.415990
Zn151	Zn15	0.240380	0.813610	0.352790
Zn161	Zn16	0.525360	0.320000	0.349190
Zn171	Zn17	0.959180	0.212480	0.415160
Zn181	Zn18	0.076080	0.133420	0.412970
Zn191	Zn19	0.590780	0.249060	0.085170
Zn201	Zn20	0.068420	0.128130	0.082970
Zn211	Zn21	0.043950	0.188500	0.144010
Zn221	Zn22	0.752580	0.676160	0.149190
Zn231	Zn23	0.827250	0.685830	0.082510
Zn241	Zn24	0.170610	0.811420	0.084720
Zn251	Zn25	0.686360	0.749030	0.409810
Zn261	Zn26	0.728980	0.628980	0.415990
Zn271	Zn27	0.740380	0.686390	0.352790
Zn281	Zn28	0.025360	0.180000	0.349190
Zn291	Zn29	0.459180	0.287520	0.415160
Zn301	Zn30	0.576080	0.366580	0.412970
Zn311	Zn31	0.090780	0.250940	0.085170
Zn321	Zn32	0.568420	0.371870	0.082970
Zn331	Zn33	0.543950	0.311500	0.144010
Zn341	Zn34	0.252580	0.823840	0.149190
Zn351	Zn35	0.327250	0.814170	0.082510
Zn361	Zn36	0.670610	0.688580	0.084720
Zn371	Zn37	0.186360	0.250970	0.590190
Zn381	Zn38	0.228980	0.371020	0.584010
Zn391	Zn39	0.240380	0.313610	0.647210
Zn401	Zn40	0.525360	0.820000	0.650810
Zn411	Zn41	0.959180	0.712480	0.584840
Zn421	Zn42	0.076080	0.633420	0.587030
Zn431	Zn43	0.590780	0.749060	0.914830
Zn441	Zn44	0.068420	0.628130	0.917030
Zn451	Zn45	0.043950	0.688500	0.855990
Zn461	Zn46	0.752580	0.176160	0.850810
Zn471	Zn47	0.827250	0.185830	0.917490
Zn481	Zn48	0.170610	0.311420	0.915280
H11	H1	0.787600	0.199300	0.599800
H21	H2	0.382600	0.785200	0.798700
H31	H3	0.289500	0.762800	0.875600
H41	H4	0.190600	0.744500	0.799600
H51	H5	0.178900	0.748900	0.702100
H61	H6	0.266300	0.756900	0.623100
H71	H7	0.375100	0.774400	0.696300
H81	H8	0.697300	0.061700	0.699900
H91	H9	0.657300	0.000600	0.621700
H101	H10	0.617700	0.928400	0.696600
H111	H11	0.603500	0.925900	0.798800
H121	H12	0.652700	0.992700	0.874300
H131	H13	0.700700	0.054100	0.797200
H141	H14	0.589000	0.233700	0.704900
H151	H15	0.490800	0.253700	0.628400
H161	H16	0.401800	0.281700	0.705800
H171	H17	0.414100	0.293700	0.805900
H181	H18	0.508400	0.262700	0.881200
H191	H19	0.590600	0.227200	0.804600
H201	H20	0.311400	0.160500	0.952400
H211	H21	0.180100	0.235500	0.000800
H221	H22	0.236000	0.101100	0.026100
H231	H23	0.311300	0.978400	0.025300
H241	H24	0.430300	0.867100	0.005000
H251	H25	0.424600	0.984100	0.952000
H261	H26	0.567700	0.786600	0.603800
H271	H27	0.484100	0.963800	0.530800
H281	H28	0.364900	0.852800	0.509200
H291	H29	0.368900	0.973200	0.458800
H301	H30	0.469200	0.145800	0.459300
H311	H31	0.592300	0.231900	0.505100
H321	H32	0.561500	0.094300	0.530900
H331	H33	0.541900	0.282200	0.575300
H341	H34	0.683900	0.344700	0.619700
H351	H35	0.798400	0.230500	0.549600
H361	H36	0.059700	0.711600	0.711700
H371	H37	0.927000	0.602600	0.671000
H381	H38	0.054800	0.852800	0.899800
H391	H39	0.226900	0.787300	0.917300
H401	H40	0.330500	0.816900	0.926800
H411	H41	0.338900	0.857800	0.950800
H421	H42	0.300100	0.775700	0.978900
H431	H43	0.361300	0.762400	0.959100
H441	H44	0.367800	0.803000	0.983300
H451	H45	0.255900	0.901500	0.966200
H461	H46	0.183900	0.893800	0.953400
H471	H47	0.221000	0.832000	0.999900
H481	H48	0.203000	0.885800	0.008600
H491	H49	0.149800	0.852600	0.993300
H501	H50	0.037100	0.731400	0.975900
H511	H51	0.938300	0.835900	0.964900
H521	H52	0.915100	0.839300	0.998100
H531	H53	0.908900	0.762500	0.018100
H541	H54	0.965100	0.722500	0.014600
H551	H55	0.048800	0.854500	0.996000
H561	H56	0.014900	0.891600	0.974400
H571	H57	0.995900	0.891500	0.008000
H581	H58	0.006400	0.811700	0.038100
H591	H59	0.964700	0.779200	0.059700
H601	H60	0.032000	0.759700	0.046900
H611	H61	0.682900	0.088400	0.937500
H621	H62	0.503100	0.037900	0.947300
H631	H63	0.511900	0.092700	0.937800
H641	H64	0.610500	0.983200	0.929600
H651	H65	0.676900	0.008100	0.939800
H661	H66	0.571400	0.978000	0.976700
H671	H67	0.646800	0.965100	0.980600
H681	H68	0.621100	0.017600	0.988200
H691	H69	0.514900	0.012000	0.899700
H701	H70	0.463100	0.054700	0.898900
H711	H71	0.536800	0.064100	0.889300
H721	H72	0.224400	0.221400	0.832300
H731	H73	0.246600	0.363500	0.788300
H741	H74	0.225400	0.312000	0.715700
H751	H75	0.255400	0.360500	0.729700
H761	H76	0.310600	0.252500	0.766700
H771	H77	0.279000	0.251900	0.734600
H781	H78	0.205700	0.231500	0.787500
H791	H79	0.222600	0.191600	0.763900
H801	H80	0.172400	0.233500	0.756300
H811	H81	0.141600	0.331800	0.759300
H821	H82	0.124500	0.342900	0.726300
H831	H83	0.155200	0.383800	0.746200
H841	H84	0.672600	0.784900	0.574700
H851	H85	0.998100	0.693700	0.903800
H861	H86	0.247900	0.368100	0.898000
H871	H87	0.287600	0.800700	0.400200
H881	H88	0.882600	0.214800	0.201300
H891	H89	0.789500	0.237200	0.124400
H901	H90	0.690600	0.255500	0.200400
H911	H91	0.678900	0.251100	0.297900
H921	H92	0.766300	0.243100	0.376900
H931	H93	0.875100	0.225600	0.303700
H941	H94	0.197300	0.938300	0.300100
H951	H95	0.157300	0.999400	0.378300
H961	H96	0.117700	0.071600	0.303400
H971	H97	0.103500	0.074100	0.201200
H981	H98	0.152700	0.007300	0.125700
H991	H99	0.200700	0.945900	0.202800
H1001	H100	0.089000	0.766300	0.295100
H1011	H101	0.990800	0.746300	0.371600
H1021	H102	0.901800	0.718300	0.294200
H1031	H103	0.914100	0.706300	0.194100
H1041	H104	0.008400	0.737300	0.118800
H1051	H105	0.090600	0.772800	0.195400
H1061	H106	0.811400	0.839500	0.047600
H1071	H107	0.680100	0.764500	0.999200
H1081	H108	0.736000	0.898900	0.973900
H1091	H109	0.811300	0.021600	0.974700
H1101	H110	0.930300	0.132900	0.995000
H1111	H111	0.924600	0.015900	0.048000
H1121	H112	0.067700	0.213400	0.396200
H1131	H113	0.984100	0.036200	0.469200
H1141	H114	0.864900	0.147200	0.490800
H1151	H115	0.868900	0.026800	0.541200
H1161	H116	0.969200	0.854200	0.540700
H1171	H117	0.092300	0.768100	0.494900
H1181	H118	0.061500	0.905700	0.469100
H1191	H119	0.041900	0.717800	0.424700
H1201	H120	0.183900	0.655300	0.380300
H1211	H121	0.298400	0.769500	0.450400
H1221	H122	0.559700	0.288400	0.288300
H1231	H123	0.427000	0.397400	0.329000
H1241	H124	0.554800	0.147200	0.100200
H1251	H125	0.726900	0.212700	0.082700
H1261	H126	0.830500	0.183100	0.073200
H1271	H127	0.838900	0.142200	0.049200
H1281	H128	0.800100	0.224300	0.021100
H1291	H129	0.861300	0.237600	0.040900
H1301	H130	0.867800	0.197000	0.016700
H1311	H131	0.755900	0.098500	0.033800
H1321	H132	0.683900	0.106200	0.046600
H1331	H133	0.721000	0.168000	0.000100
H1341	H134	0.703000	0.114200	0.991400
H1351	H135	0.649800	0.147400	0.006700
H1361	H136	0.537100	0.268600	0.024100
H1371	H137	0.438300	0.164100	0.035100
H1381	H138	0.415100	0.160700	0.001900
H1391	H139	0.408900	0.237500	0.981900
H1401	H140	0.465100	0.277500	0.985400
H1411	H141	0.548800	0.145500	0.004000
H1421	H142	0.514900	0.108400	0.025600
H1431	H143	0.495900	0.108500	0.992000
H1441	H144	0.506400	0.188300	0.961900
H1451	H145	0.464700	0.220800	0.940300
H1461	H146	0.532000	0.240300	0.953100
H1471	H147	0.182900	0.911600	0.062500
H1481	H148	0.003100	0.962100	0.052700
H1491	H149	0.011900	0.907300	0.062200
H1501	H150	0.110500	0.016800	0.070400
H1511	H151	0.176900	0.991900	0.060200
H1521	H152	0.071400	0.022000	0.023300
H1531	H153	0.146800	0.034900	0.019400
H1541	H154	0.121100	0.982400	0.011800
H1551	H155	0.014900	0.988000	0.100300
H1561	H156	0.963100	0.945300	0.101100
H1571	H157	0.036800	0.935900	0.110700
H1581	H158	0.724400	0.778600	0.167700
H1591	H159	0.746600	0.636500	0.211700
H1601	H160	0.725400	0.688000	0.284300
H1611	H161	0.755400	0.639500	0.270300
H1621	H162	0.810600	0.747500	0.233300
H1631	H163	0.779000	0.748100	0.265400
H1641	H164	0.705700	0.768500	0.212500
H1651	H165	0.722600	0.808400	0.236100
H1661	H166	0.672400	0.766500	0.243700
H1671	H167	0.641600	0.668200	0.240700
H1681	H168	0.624500	0.657100	0.273700
H1691	H169	0.655200	0.616200	0.253800
H1701	H170	0.172600	0.215100	0.425300
H1711	H171	0.498100	0.306300	0.096200
H1721	H172	0.747900	0.631900	0.102000
H1731	H173	0.787600	0.699300	0.400200
H1741	H174	0.382600	0.285200	0.201300
H1751	H175	0.289500	0.262800	0.124400
H1761	H176	0.190600	0.244500	0.200400
H1771	H177	0.178900	0.248900	0.297900
H1781	H178	0.266300	0.256900	0.376900
H1791	H179	0.375100	0.274400	0.303700
H1801	H180	0.697300	0.561700	0.300100
H1811	H181	0.657300	0.500600	0.378300
H1821	H182	0.617700	0.428400	0.303400
H1831	H183	0.603500	0.425900	0.201200
H1841	H184	0.652700	0.492700	0.125700
H1851	H185	0.700700	0.554100	0.202800
H1861	H186	0.589000	0.733700	0.295100
H1871	H187	0.490800	0.753700	0.371600
H1881	H188	0.401800	0.781700	0.294200
H1891	H189	0.414100	0.793700	0.194100
H1901	H190	0.508400	0.762700	0.118800
H1911	H191	0.590600	0.727200	0.195400
H1921	H192	0.311400	0.660500	0.047600
H1931	H193	0.180100	0.735500	0.999200
H1941	H194	0.236000	0.601100	0.973900
H1951	H195	0.311300	0.478400	0.974700
H1961	H196	0.430300	0.367100	0.995000
H1971	H197	0.424600	0.484100	0.048000
H1981	H198	0.567700	0.286600	0.396200
H1991	H199	0.484100	0.463800	0.469200
H2001	H200	0.364900	0.352800	0.490800
H2011	H201	0.368900	0.473200	0.541200
H2021	H202	0.469200	0.645800	0.540700
H2031	H203	0.592300	0.731900	0.494900
H2041	H204	0.561500	0.594300	0.469100
H2051	H205	0.541900	0.782200	0.424700
H2061	H206	0.683900	0.844700	0.380300
H2071	H207	0.798400	0.730500	0.450400
H2081	H208	0.059700	0.211600	0.288300
H2091	H209	0.927000	0.102600	0.329000
H2101	H210	0.054800	0.352800	0.100200
H2111	H211	0.226900	0.287300	0.082700
H2121	H212	0.330500	0.316900	0.073200
H2131	H213	0.338900	0.357800	0.049200
H2141	H214	0.300100	0.275700	0.021100
H2151	H215	0.361300	0.262400	0.040900
H2161	H216	0.367800	0.303000	0.016700
H2171	H217	0.255900	0.401500	0.033800
H2181	H218	0.183900	0.393800	0.046600
H2191	H219	0.221000	0.332000	0.000100
H2201	H220	0.203000	0.385800	0.991400
H2211	H221	0.149800	0.352600	0.006700
H2221	H222	0.037100	0.231400	0.024100
H2231	H223	0.938300	0.335900	0.035100
H2241	H224	0.915100	0.339300	0.001900
H2251	H225	0.908900	0.262500	0.981900
H2261	H226	0.965100	0.222500	0.985400
H2271	H227	0.048800	0.354500	0.004000
H2281	H228	0.014900	0.391600	0.025600
H2291	H229	0.995900	0.391500	0.992000
H2301	H230	0.006400	0.311700	0.961900
H2311	H231	0.964700	0.279200	0.940300
H2321	H232	0.032000	0.259700	0.953100
H2331	H233	0.682900	0.588400	0.062500
H2341	H234	0.503100	0.537900	0.052700
H2351	H235	0.511900	0.592700	0.062200
H2361	H236	0.610500	0.483200	0.070400
H2371	H237	0.676900	0.508100	0.060200
H2381	H238	0.571400	0.478000	0.023300
H2391	H239	0.646800	0.465100	0.019400
H2401	H240	0.621100	0.517600	0.011800
H2411	H241	0.514900	0.512000	0.100300
H2421	H242	0.463100	0.554700	0.101100
H2431	H243	0.536800	0.564100	0.110700
H2441	H244	0.224400	0.721400	0.167700
H2451	H245	0.246600	0.863500	0.211700
H2461	H246	0.225400	0.812000	0.284300
H2471	H247	0.255400	0.860500	0.270300
H2481	H248	0.310600	0.752500	0.233300
H2491	H249	0.279000	0.751900	0.265400
H2501	H250	0.205700	0.731500	0.212500
H2511	H251	0.222600	0.691600	0.236100
H2521	H252	0.172400	0.733500	0.243700
H2531	H253	0.141600	0.831800	0.240700
H2541	H254	0.124500	0.842900	0.273700
H2551	H255	0.155200	0.883800	0.253800
H2561	H256	0.672600	0.284900	0.425300
H2571	H257	0.998100	0.193700	0.096200
H2581	H258	0.247900	0.868100	0.102000
H2591	H259	0.287600	0.300700	0.599800
H2601	H260	0.882600	0.714800	0.798700
H2611	H261	0.789500	0.737200	0.875600
H2621	H262	0.690600	0.755500	0.799600
H2631	H263	0.678900	0.751100	0.702100
H2641	H264	0.766300	0.743100	0.623100
H2651	H265	0.875100	0.725600	0.696300
H2661	H266	0.197300	0.438300	0.699900
H2671	H267	0.157300	0.499400	0.621700
H2681	H268	0.117700	0.571600	0.696600
H2691	H269	0.103500	0.574100	0.798800
H2701	H270	0.152700	0.507300	0.874300
H2711	H271	0.200700	0.445900	0.797200
H2721	H272	0.089000	0.266300	0.704900
H2731	H273	0.990800	0.246300	0.628400
H2741	H274	0.901800	0.218300	0.705800
H2751	H275	0.914100	0.206300	0.805900
H2761	H276	0.008400	0.237300	0.881200
H2771	H277	0.090600	0.272800	0.804600
H2781	H278	0.811400	0.339500	0.952400
H2791	H279	0.680100	0.264500	0.000800
H2801	H280	0.736000	0.398900	0.026100
H2811	H281	0.811300	0.521600	0.025300
H2821	H282	0.930300	0.632900	0.005000
H2831	H283	0.924600	0.515900	0.952000
H2841	H284	0.067700	0.713400	0.603800
H2851	H285	0.984100	0.536200	0.530800
H2861	H286	0.864900	0.647200	0.509200
H2871	H287	0.868900	0.526800	0.458800
H2881	H288	0.969200	0.354200	0.459300
H2891	H289	0.092300	0.268100	0.505100
H2901	H290	0.061500	0.405700	0.530900
H2911	H291	0.041900	0.217800	0.575300
H2921	H292	0.183900	0.155300	0.619700
H2931	H293	0.298400	0.269500	0.549600
H2941	H294	0.559700	0.788400	0.711700
H2951	H295	0.427000	0.897400	0.671000
H2961	H296	0.554800	0.647200	0.899800
H2971	H297	0.726900	0.712700	0.917300
H2981	H298	0.830500	0.683100	0.926800
H2991	H299	0.838900	0.642200	0.950800
H3001	H300	0.800100	0.724300	0.978900
H3011	H301	0.861300	0.737600	0.959100
H3021	H302	0.867800	0.697000	0.983300
H3031	H303	0.755900	0.598500	0.966200
H3041	H304	0.683900	0.606200	0.953400
H3051	H305	0.721000	0.668000	0.999900
H3061	H306	0.703000	0.614200	0.008600
H3071	H307	0.649800	0.647400	0.993300
H3081	H308	0.537100	0.768600	0.975900
H3091	H309	0.438300	0.664100	0.964900
H3101	H310	0.415100	0.660700	0.998100
H3111	H311	0.408900	0.737500	0.018100
H3121	H312	0.465100	0.777500	0.014600
H3131	H313	0.548800	0.645500	0.996000
H3141	H314	0.514900	0.608400	0.974400
H3151	H315	0.495900	0.608500	0.008000
H3161	H316	0.506400	0.688300	0.038100
H3171	H317	0.464700	0.720800	0.059700
H3181	H318	0.532000	0.740300	0.046900
H3191	H319	0.182900	0.411600	0.937500
H3201	H320	0.003100	0.462100	0.947300
H3211	H321	0.011900	0.407300	0.937800
H3221	H322	0.110500	0.516800	0.929600
H3231	H323	0.176900	0.491900	0.939800
H3241	H324	0.071400	0.522000	0.976700
H3251	H325	0.146800	0.534900	0.980600
H3261	H326	0.121100	0.482400	0.988200
H3271	H327	0.014900	0.488000	0.899700
H3281	H328	0.963100	0.445300	0.898900
H3291	H329	0.036800	0.435900	0.889300
H3301	H330	0.724400	0.278600	0.832300
H3311	H331	0.746600	0.136500	0.788300
H3321	H332	0.725400	0.188000	0.715700
H3331	H333	0.755400	0.139500	0.729700
H3341	H334	0.810600	0.247500	0.766700
H3351	H335	0.779000	0.248100	0.734600
H3361	H336	0.705700	0.268500	0.787500
H3371	H337	0.722600	0.308400	0.763900
H3381	H338	0.672400	0.266500	0.756300
H3391	H339	0.641600	0.168200	0.759300
H3401	H340	0.624500	0.157100	0.726300
H3411	H341	0.655200	0.116200	0.746200
H3421	H342	0.172600	0.715100	0.574700
H3431	H343	0.498100	0.806300	0.903800
H3441	H344	0.747900	0.131900	0.898000
C11	C1	0.286500	0.764700	0.793870
C21	C2	0.344600	0.776700	0.809110
C31	C3	0.345900	0.775900	0.839340
C41	C4	0.288700	0.763200	0.855100
C51	C5	0.230700	0.751000	0.840090
C61	C6	0.229500	0.752200	0.809640
C71	C7	0.408000	0.789300	0.855680
C81	C8	0.169500	0.734700	0.856190
C91	C9	0.276800	0.762900	0.704690
C101	C10	0.216600	0.753800	0.690650
C111	C11	0.211000	0.751800	0.660500
C121	C12	0.268700	0.758200	0.643520
C131	C13	0.329000	0.766300	0.657000
C141	C14	0.334100	0.768800	0.687460
C151	C15	0.145700	0.740300	0.645940
C161	C16	0.390700	0.771100	0.638790
C171	C17	0.283700	0.767200	0.761900
C181	C18	0.281100	0.764700	0.735840
C191	C19	0.655500	0.995000	0.703340
C201	C20	0.680400	0.035900	0.688970
C211	C21	0.680200	0.038400	0.658780
C221	C22	0.656600	0.999000	0.642230
C231	C23	0.632600	0.958000	0.655920
C241	C24	0.633000	0.956200	0.687050
C251	C25	0.704800	0.082800	0.642920
C261	C26	0.609100	0.914200	0.639120
C271	C27	0.651700	0.990600	0.792600
C281	C28	0.623300	0.951900	0.808560
C291	C29	0.625300	0.953100	0.839230
C301	C30	0.652900	0.992200	0.853780
C311	C31	0.680300	0.030200	0.838760
C321	C32	0.680700	0.028900	0.807720
C331	C33	0.594400	0.910600	0.856570
C341	C34	0.710000	0.074000	0.854690
C351	C35	0.653200	0.992900	0.734570
C361	C36	0.651100	0.990400	0.761150
C371	C37	0.495700	0.258100	0.710450
C381	C38	0.551000	0.243300	0.694830
C391	C39	0.550200	0.242600	0.664040
C401	C40	0.491900	0.255100	0.648860
C411	C41	0.435600	0.269400	0.664510
C421	C42	0.438800	0.271300	0.695230
C431	C43	0.611800	0.226100	0.647330
C441	C44	0.373000	0.283700	0.648550
C451	C45	0.501200	0.262000	0.799830
C461	C46	0.450800	0.281300	0.815800
C471	C47	0.451600	0.283200	0.846550
C481	C48	0.506100	0.262000	0.860720
C491	C49	0.556000	0.240400	0.845170
C501	C50	0.555400	0.240800	0.815100
C511	C51	0.397500	0.304900	0.863360
C521	C52	0.612000	0.216500	0.861460
C531	C53	0.497300	0.260000	0.741550
C541	C54	0.499000	0.260100	0.768220
C551	C55	0.279700	0.122900	0.987580
C561	C56	0.283200	0.162000	0.968570
C571	C57	0.246400	0.202800	0.973050
C581	C58	0.205300	0.207500	0.997910
C591	C59	0.203200	0.169000	0.018340
C601	C60	0.238800	0.127000	0.012940
C611	C61	0.248100	0.245700	0.950940
C621	C62	0.160200	0.173400	0.045250
C631	C63	0.364500	0.990100	0.988110
C641	C64	0.342400	0.964300	0.012710
C651	C65	0.366500	0.917900	0.018660
C661	C66	0.412700	0.897600	0.000510
C671	C67	0.433800	0.922000	0.975320
C681	C68	0.410300	0.967900	0.968860
C691	C69	0.339100	0.889900	0.044240
C701	C70	0.482700	0.896900	0.955390
C711	C71	0.314000	0.077800	0.983580
C721	C72	0.338800	0.038700	0.983420
C731	C73	0.428300	0.977700	0.494100
C741	C74	0.452500	0.950400	0.518250
C751	C75	0.429000	0.903700	0.523210
C761	C76	0.382400	0.883400	0.504920
C771	C77	0.361400	0.908400	0.480000
C781	C78	0.384100	0.956000	0.475160
C791	C79	0.457900	0.876400	0.549280
C801	C80	0.312500	0.885200	0.459530
C811	C81	0.509700	0.112200	0.494940
C821	C82	0.498000	0.150500	0.475090
C831	C83	0.528400	0.194900	0.478720
C841	C84	0.571500	0.201900	0.502560
C851	C85	0.583200	0.164500	0.522340
C861	C86	0.552700	0.119800	0.517930
C871	C87	0.515200	0.236600	0.458210
C881	C88	0.629500	0.172600	0.548080
C891	C89	0.453900	0.025800	0.490600
C901	C90	0.477400	0.065400	0.491440
C911	C91	0.573100	0.305300	0.569600
C921	C92	0.714100	0.329800	0.632300
C931	C93	0.803200	0.263200	0.554600
C941	C94	0.915400	0.257400	0.533800
C951	C95	0.865600	0.335600	0.558100
C961	C96	0.030700	0.685800	0.715200
C971	C97	0.055000	0.698500	0.766300
C981	C98	0.961100	0.638900	0.750500
C991	C99	0.047000	0.754000	0.761700
C1001	C100	0.916300	0.605700	0.651100
C1011	C101	0.045500	0.837300	0.882000
C1021	C102	0.990300	0.843700	0.835800
C1031	C103	0.206300	0.809100	0.930100
C1041	C104	0.317100	0.827100	0.946400
C1051	C105	0.338600	0.788400	0.969100
C1061	C106	0.220000	0.878200	0.963900
C1071	C107	0.196300	0.860500	0.994300
C1081	C108	0.016300	0.760500	0.970690
C1091	C109	0.952900	0.834200	0.985200
C1101	C110	0.956400	0.757100	0.016600
C1111	C111	0.008300	0.871400	0.991500
C1121	C112	0.993300	0.778900	0.042700
C1131	C113	0.637300	0.093100	0.935760
C1141	C114	0.526100	0.059500	0.933800
C1151	C115	0.629400	0.006600	0.943300
C1161	C116	0.615900	0.990300	0.975200
C1171	C117	0.508700	0.046400	0.902600
C1181	C118	0.251800	0.216000	0.848500
C1191	C119	0.248700	0.329800	0.786200
C1201	C120	0.225500	0.333200	0.732800
C1211	C121	0.270200	0.257300	0.755400
C1221	C122	0.212000	0.225500	0.766800
C1231	C123	0.155000	0.349500	0.742000
C1241	C124	0.682300	0.810700	0.562000
C1251	C125	0.796200	0.840400	0.553200
C1261	C126	0.786500	0.235300	0.206130
C1271	C127	0.844600	0.223300	0.190890
C1281	C128	0.845900	0.224100	0.160660
C1291	C129	0.788700	0.236800	0.144900
C1301	C130	0.730700	0.249000	0.159910
C1311	C131	0.729500	0.247800	0.190360
C1321	C132	0.908000	0.210700	0.144320
C1331	C133	0.669500	0.265300	0.143810
C1341	C134	0.776800	0.237100	0.295310
C1351	C135	0.716600	0.246200	0.309350
C1361	C136	0.711000	0.248200	0.339500
C1371	C137	0.768700	0.241800	0.356480
C1381	C138	0.829000	0.233700	0.343000
C1391	C139	0.834100	0.231200	0.312540
C1401	C140	0.645700	0.259700	0.354060
C1411	C141	0.890700	0.228900	0.361210
C1421	C142	0.783700	0.232800	0.238100
C1431	C143	0.781100	0.235300	0.264160
C1441	C144	0.155500	0.005000	0.296660
C1451	C145	0.180400	0.964100	0.311030
C1461	C146	0.180200	0.961600	0.341220
C1471	C147	0.156600	0.001000	0.357770
C1481	C148	0.132600	0.042000	0.344080
C1491	C149	0.133000	0.043800	0.312950
C1501	C150	0.204800	0.917200	0.357080
C1511	C151	0.109100	0.085800	0.360880
C1521	C152	0.151700	0.009400	0.207400
C1531	C153	0.123300	0.048100	0.191440
C1541	C154	0.125300	0.046900	0.160770
C1551	C155	0.152900	0.007800	0.146220
C1561	C156	0.180300	0.969800	0.161240
C1571	C157	0.180700	0.971100	0.192280
C1581	C158	0.094400	0.089400	0.143430
C1591	C159	0.210000	0.926000	0.145310
C1601	C160	0.153200	0.007100	0.265430
C1611	C161	0.151100	0.009600	0.238850
C1621	C162	0.995700	0.741900	0.289550
C1631	C163	0.051000	0.756700	0.305170
C1641	C164	0.050200	0.757400	0.335960
C1651	C165	0.991900	0.744900	0.351140
C1661	C166	0.935600	0.730600	0.335490
C1671	C167	0.938800	0.728700	0.304770
C1681	C168	0.111800	0.773900	0.352670
C1691	C169	0.873000	0.716300	0.351450
C1701	C170	0.001200	0.738000	0.200170
C1711	C171	0.950800	0.718700	0.184200
C1721	C172	0.951600	0.716800	0.153450
C1731	C173	0.006100	0.738000	0.139280
C1741	C174	0.056000	0.759600	0.154830
C1751	C175	0.055400	0.759200	0.184900
C1761	C176	0.897500	0.695100	0.136640
C1771	C177	0.112000	0.783500	0.138540
C1781	C178	0.997300	0.740000	0.258450
C1791	C179	0.999000	0.739900	0.231780
C1801	C180	0.779700	0.877100	0.012420
C1811	C181	0.783200	0.838000	0.031430
C1821	C182	0.746400	0.797200	0.026950
C1831	C183	0.705300	0.792500	0.002090
C1841	C184	0.703200	0.831000	0.981660
C1851	C185	0.738800	0.873000	0.987060
C1861	C186	0.748100	0.754300	0.049060
C1871	C187	0.660200	0.826600	0.954750
C1881	C188	0.864500	0.009900	0.011890
C1891	C189	0.842400	0.035700	0.987290
C1901	C190	0.866500	0.082100	0.981340
C1911	C191	0.912700	0.102400	0.999490
C1921	C192	0.933800	0.078000	0.024680
C1931	C193	0.910300	0.032100	0.031140
C1941	C194	0.839100	0.110100	0.955760
C1951	C195	0.982700	0.103100	0.044610
C1961	C196	0.814000	0.922200	0.016420
C1971	C197	0.838800	0.961300	0.016580
C1981	C198	0.928300	0.022300	0.505900
C1991	C199	0.952500	0.049600	0.481750
C2001	C200	0.929000	0.096300	0.476790
C2011	C201	0.882400	0.116600	0.495080
C2021	C202	0.861400	0.091600	0.520000
C2031	C203	0.884100	0.044000	0.524840
C2041	C204	0.957900	0.123600	0.450720
C2051	C205	0.812500	0.114800	0.540470
C2061	C206	0.009700	0.887800	0.505060
C2071	C207	0.998000	0.849500	0.524910
C2081	C208	0.028400	0.805100	0.521280
C2091	C209	0.071500	0.798100	0.497440
C2101	C210	0.083200	0.835500	0.477660
C2111	C211	0.052700	0.880200	0.482070
C2121	C212	0.015200	0.763400	0.541790
C2131	C213	0.129500	0.827400	0.451920
C2141	C214	0.953900	0.974200	0.509400
C2151	C215	0.977400	0.934600	0.508560
C2161	C216	0.073100	0.694700	0.430400
C2171	C217	0.214100	0.670200	0.367700
C2181	C218	0.303200	0.736800	0.445400
C2191	C219	0.415400	0.742600	0.466200
C2201	C220	0.365600	0.664400	0.441900
C2211	C221	0.530700	0.314200	0.284800
C2221	C222	0.555000	0.301500	0.233700
C2231	C223	0.461100	0.361100	0.249500
C2241	C224	0.547000	0.246000	0.238300
C2251	C225	0.416300	0.394300	0.348900
C2261	C226	0.545500	0.162700	0.118000
C2271	C227	0.490300	0.156300	0.164200
C2281	C228	0.706300	0.190900	0.069900
C2291	C229	0.817100	0.172900	0.053600
C2301	C230	0.838600	0.211600	0.030900
C2311	C231	0.720000	0.121800	0.036100
C2321	C232	0.696300	0.139500	0.005700
C2331	C233	0.516300	0.239500	0.029310
C2341	C234	0.452900	0.165800	0.014800
C2351	C235	0.456400	0.242900	0.983400
C2361	C236	0.508300	0.128600	0.008500
C2371	C237	0.493300	0.221100	0.957300
C2381	C238	0.137300	0.906900	0.064240
C2391	C239	0.026100	0.940500	0.066200
C2401	C240	0.129400	0.993400	0.056700
C2411	C241	0.115900	0.009700	0.024800
C2421	C242	0.008700	0.953600	0.097400
C2431	C243	0.751800	0.784000	0.151500
C2441	C244	0.748700	0.670200	0.213800
C2451	C245	0.725500	0.666800	0.267200
C2461	C246	0.770200	0.742700	0.244600
C2471	C247	0.712000	0.774500	0.233200
C2481	C248	0.655000	0.650500	0.258000
C2491	C249	0.182300	0.189300	0.438000
C2501	C250	0.296200	0.159600	0.446800
C2511	C251	0.286500	0.264700	0.206130
C2521	C252	0.344600	0.276700	0.190890
C2531	C253	0.345900	0.275900	0.160660
C2541	C254	0.288700	0.263200	0.144900
C2551	C255	0.230700	0.251000	0.159910
C2561	C256	0.229500	0.252200	0.190360
C2571	C257	0.408000	0.289300	0.144320
C2581	C258	0.169500	0.234700	0.143810
C2591	C259	0.276800	0.262900	0.295310
C2601	C260	0.216600	0.253800	0.309350
C2611	C261	0.211000	0.251800	0.339500
C2621	C262	0.268700	0.258200	0.356480
C2631	C263	0.329000	0.266300	0.343000
C2641	C264	0.334100	0.268800	0.312540
C2651	C265	0.145700	0.240300	0.354060
C2661	C266	0.390700	0.271100	0.361210
C2671	C267	0.283700	0.267200	0.238100
C2681	C268	0.281100	0.264700	0.264160
C2691	C269	0.655500	0.495000	0.296660
C2701	C270	0.680400	0.535900	0.311030
C2711	C271	0.680200	0.538400	0.341220
C2721	C272	0.656600	0.499000	0.357770
C2731	C273	0.632600	0.458000	0.344080
C2741	C274	0.633000	0.456200	0.312950
C2751	C275	0.704800	0.582800	0.357080
C2761	C276	0.609100	0.414200	0.360880
C2771	C277	0.651700	0.490600	0.207400
C2781	C278	0.623300	0.451900	0.191440
C2791	C279	0.625300	0.453100	0.160770
C2801	C280	0.652900	0.492200	0.146220
C2811	C281	0.680300	0.530200	0.161240
C2821	C282	0.680700	0.528900	0.192280
C2831	C283	0.594400	0.410600	0.143430
C2841	C284	0.710000	0.574000	0.145310
C2851	C285	0.653200	0.492900	0.265430
C2861	C286	0.651100	0.490400	0.238850
C2871	C287	0.495700	0.758100	0.289550
C2881	C288	0.551000	0.743300	0.305170
C2891	C289	0.550200	0.742600	0.335960
C2901	C290	0.491900	0.755100	0.351140
C2911	C291	0.435600	0.769400	0.335490
C2921	C292	0.438800	0.771300	0.304770
C2931	C293	0.611800	0.726100	0.352670
C2941	C294	0.373000	0.783700	0.351450
C2951	C295	0.501200	0.762000	0.200170
C2961	C296	0.450800	0.781300	0.184200
C2971	C297	0.451600	0.783200	0.153450
C2981	C298	0.506100	0.762000	0.139280
C2991	C299	0.556000	0.740400	0.154830
C3001	C300	0.555400	0.740800	0.184900
C3011	C301	0.397500	0.804900	0.136640
C3021	C302	0.612000	0.716500	0.138540
C3031	C303	0.497300	0.760000	0.258450
C3041	C304	0.499000	0.760100	0.231780
C3051	C305	0.279700	0.622900	0.012420
C3061	C306	0.283200	0.662000	0.031430
C3071	C307	0.246400	0.702800	0.026950
C3081	C308	0.205300	0.707500	0.002090
C3091	C309	0.203200	0.669000	0.981660
C3101	C310	0.238800	0.627000	0.987060
C3111	C311	0.248100	0.745700	0.049060
C3121	C312	0.160200	0.673400	0.954750
C3131	C313	0.364500	0.490100	0.011890
C3141	C314	0.342400	0.464300	0.987290
C3151	C315	0.366500	0.417900	0.981340
C3161	C316	0.412700	0.397600	0.999490
C3171	C317	0.433800	0.422000	0.024680
C3181	C318	0.410300	0.467900	0.031140
C3191	C319	0.339100	0.389900	0.955760
C3201	C320	0.482700	0.396900	0.044610
C3211	C321	0.314000	0.577800	0.016420
C3221	C322	0.338800	0.538700	0.016580
C3231	C323	0.428300	0.477700	0.505900
C3241	C324	0.452500	0.450400	0.481750
C3251	C325	0.429000	0.403700	0.476790
C3261	C326	0.382400	0.383400	0.495080
C3271	C327	0.361400	0.408400	0.520000
C3281	C328	0.384100	0.456000	0.524840
C3291	C329	0.457900	0.376400	0.450720
C3301	C330	0.312500	0.385200	0.540470
C3311	C331	0.509700	0.612200	0.505060
C3321	C332	0.498000	0.650500	0.524910
C3331	C333	0.528400	0.694900	0.521280
C3341	C334	0.571500	0.701900	0.497440
C3351	C335	0.583200	0.664500	0.477660
C3361	C336	0.552700	0.619800	0.482070
C3371	C337	0.515200	0.736600	0.541790
C3381	C338	0.629500	0.672600	0.451920
C3391	C339	0.453900	0.525800	0.509400
C3401	C340	0.477400	0.565400	0.508560
C3411	C341	0.573100	0.805300	0.430400
C3421	C342	0.714100	0.829800	0.367700
C3431	C343	0.803200	0.763200	0.445400
C3441	C344	0.915400	0.757400	0.466200
C3451	C345	0.865600	0.835600	0.441900
C3461	C346	0.030700	0.185800	0.284800
C3471	C347	0.055000	0.198500	0.233700
C3481	C348	0.961100	0.138900	0.249500
C3491	C349	0.047000	0.254000	0.238300
C3501	C350	0.916300	0.105700	0.348900
C3511	C351	0.045500	0.337300	0.118000
C3521	C352	0.990300	0.343700	0.164200
C3531	C353	0.206300	0.309100	0.069900
C3541	C354	0.317100	0.327100	0.053600
C3551	C355	0.338600	0.288400	0.030900
C3561	C356	0.220000	0.378200	0.036100
C3571	C357	0.196300	0.360500	0.005700
C3581	C358	0.016300	0.260500	0.029310
C3591	C359	0.952900	0.334200	0.014800
C3601	C360	0.956400	0.257100	0.983400
C3611	C361	0.008300	0.371400	0.008500
C3621	C362	0.993300	0.278900	0.957300
C3631	C363	0.637300	0.593100	0.064240
C3641	C364	0.526100	0.559500	0.066200
C3651	C365	0.629400	0.506600	0.056700
C3661	C366	0.615900	0.490300	0.024800
C3671	C367	0.508700	0.546400	0.097400
C3681	C368	0.251800	0.716000	0.151500
C3691	C369	0.248700	0.829800	0.213800
C3701	C370	0.225500	0.833200	0.267200
C3711	C371	0.270200	0.757300	0.244600
C3721	C372	0.212000	0.725500	0.233200
C3731	C373	0.155000	0.849500	0.258000
C3741	C374	0.682300	0.310700	0.438000
C3751	C375	0.796200	0.340400	0.446800
C3761	C376	0.786500	0.735300	0.793870
C3771	C377	0.844600	0.723300	0.809110
C3781	C378	0.845900	0.724100	0.839340
C3791	C379	0.788700	0.736800	0.855100
C3801	C380	0.730700	0.749000	0.840090
C3811	C381	0.729500	0.747800	0.809640
C3821	C382	0.908000	0.710700	0.855680
C3831	C383	0.669500	0.765300	0.856190
C3841	C384	0.776800	0.737100	0.704690
C3851	C385	0.716600	0.746200	0.690650
C3861	C386	0.711000	0.748200	0.660500
C3871	C387	0.768700	0.741800	0.643520
C3881	C388	0.829000	0.733700	0.657000
C3891	C389	0.834100	0.731200	0.687460
C3901	C390	0.645700	0.759700	0.645940
C3911	C391	0.890700	0.728900	0.638790
C3921	C392	0.783700	0.732800	0.761900
C3931	C393	0.781100	0.735300	0.735840
C3941	C394	0.155500	0.505000	0.703340
C3951	C395	0.180400	0.464100	0.688970
C3961	C396	0.180200	0.461600	0.658780
C3971	C397	0.156600	0.501000	0.642230
C3981	C398	0.132600	0.542000	0.655920
C3991	C399	0.133000	0.543800	0.687050
C4001	C400	0.204800	0.417200	0.642920
C4011	C401	0.109100	0.585800	0.639120
C4021	C402	0.151700	0.509400	0.792600
C4031	C403	0.123300	0.548100	0.808560
C4041	C404	0.125300	0.546900	0.839230
C4051	C405	0.152900	0.507800	0.853780
C4061	C406	0.180300	0.469800	0.838760
C4071	C407	0.180700	0.471100	0.807720
C4081	C408	0.094400	0.589400	0.856570
C4091	C409	0.210000	0.426000	0.854690
C4101	C410	0.153200	0.507100	0.734570
C4111	C411	0.151100	0.509600	0.761150
C4121	C412	0.995700	0.241900	0.710450
C4131	C413	0.051000	0.256700	0.694830
C4141	C414	0.050200	0.257400	0.664040
C4151	C415	0.991900	0.244900	0.648860
C4161	C416	0.935600	0.230600	0.664510
C4171	C417	0.938800	0.228700	0.695230
C4181	C418	0.111800	0.273900	0.647330
C4191	C419	0.873000	0.216300	0.648550
C4201	C420	0.001200	0.238000	0.799830
C4211	C421	0.950800	0.218700	0.815800
C4221	C422	0.951600	0.216800	0.846550
C4231	C423	0.006100	0.238000	0.860720
C4241	C424	0.056000	0.259600	0.845170
C4251	C425	0.055400	0.259200	0.815100
C4261	C426	0.897500	0.195100	0.863360
C4271	C427	0.112000	0.283500	0.861460
C4281	C428	0.997300	0.240000	0.741550
C4291	C429	0.999000	0.239900	0.768220
C4301	C430	0.779700	0.377100	0.987580
C4311	C431	0.783200	0.338000	0.968570
C4321	C432	0.746400	0.297200	0.973050
C4331	C433	0.705300	0.292500	0.997910
C4341	C434	0.703200	0.331000	0.018340
C4351	C435	0.738800	0.373000	0.012940
C4361	C436	0.748100	0.254300	0.950940
C4371	C437	0.660200	0.326600	0.045250
C4381	C438	0.864500	0.509900	0.988110
C4391	C439	0.842400	0.535700	0.012710
C4401	C440	0.866500	0.582100	0.018660
C4411	C441	0.912700	0.602400	0.000510
C4421	C442	0.933800	0.578000	0.975320
C4431	C443	0.910300	0.532100	0.968860
C4441	C444	0.839100	0.610100	0.044240
C4451	C445	0.982700	0.603100	0.955390
C4461	C446	0.814000	0.422200	0.983580
C4471	C447	0.838800	0.461300	0.983420
C4481	C448	0.928300	0.522300	0.494100
C4491	C449	0.952500	0.549600	0.518250
C4501	C450	0.929000	0.596300	0.523210
C4511	C451	0.882400	0.616600	0.504920
C4521	C452	0.861400	0.591600	0.480000
C4531	C453	0.884100	0.544000	0.475160
C4541	C454	0.957900	0.623600	0.549280
C4551	C455	0.812500	0.614800	0.459530
C4561	C456	0.009700	0.387800	0.494940
C4571	C457	0.998000	0.349500	0.475090
C4581	C458	0.028400	0.305100	0.478720
C4591	C459	0.071500	0.298100	0.502560
C4601	C460	0.083200	0.335500	0.522340
C4611	C461	0.052700	0.380200	0.517930
C4621	C462	0.015200	0.263400	0.458210
C4631	C463	0.129500	0.327400	0.548080
C4641	C464	0.953900	0.474200	0.490600
C4651	C465	0.977400	0.434600	0.491440
C4661	C466	0.073100	0.194700	0.569600
C4671	C467	0.214100	0.170200	0.632300
C4681	C468	0.303200	0.236800	0.554600
C4691	C469	0.415400	0.242600	0.533800
C4701	C470	0.365600	0.164400	0.558100
C4711	C471	0.530700	0.814200	0.715200
C4721	C472	0.555000	0.801500	0.766300
C4731	C473	0.461100	0.861100	0.750500
C4741	C474	0.547000	0.746000	0.761700
C4751	C475	0.416300	0.894300	0.651100
C4761	C476	0.545500	0.662700	0.882000
C4771	C477	0.490300	0.656300	0.835800
C4781	C478	0.706300	0.690900	0.930100
C4791	C479	0.817100	0.672900	0.946400
C4801	C480	0.838600	0.711600	0.969100
C4811	C481	0.720000	0.621800	0.963900
C4821	C482	0.696300	0.639500	0.994300
C4831	C483	0.516300	0.739500	0.970690
C4841	C484	0.452900	0.665800	0.985200
C4851	C485	0.456400	0.742900	0.016600
C4861	C486	0.508300	0.628600	0.991500
C4871	C487	0.493300	0.721100	0.042700
C4881	C488	0.137300	0.406900	0.935760
C4891	C489	0.026100	0.440500	0.933800
C4901	C490	0.129400	0.493400	0.943300
C4911	C491	0.115900	0.509700	0.975200
C4921	C492	0.008700	0.453600	0.902600
C4931	C493	0.751800	0.284000	0.848500
C4941	C494	0.748700	0.170200	0.786200
C4951	C495	0.725500	0.166800	0.732800
C4961	C496	0.770200	0.242700	0.755400
C4971	C497	0.712000	0.274500	0.766800
C4981	C498	0.655000	0.150500	0.742000
C4991	C499	0.182300	0.689300	0.562000
C5001	C500	0.296200	0.659600	0.553200
N11	N1	0.566000	0.339900	0.550100
N21	N2	0.737600	0.357300	0.653600
N31	N3	0.859100	0.284900	0.547800
N41	N4	0.018100	0.671800	0.742500
N51	N5	0.858500	0.587300	0.642800
N61	N6	0.033400	0.865600	0.859800
N71	N7	0.243700	0.834000	0.947300
N81	N8	0.986800	0.786000	0.991700
N91	N9	0.599200	0.055400	0.938500
N101	N10	0.269500	0.172400	0.856200
N111	N11	0.239400	0.306400	0.761000
N121	N12	0.744500	0.800500	0.556300
N131	N13	0.066000	0.660100	0.449900
N141	N14	0.237600	0.642700	0.346400
N151	N15	0.359100	0.715100	0.452200
N161	N16	0.518100	0.328200	0.257500
N171	N17	0.358500	0.412700	0.357200
N181	N18	0.533400	0.134400	0.140200
N191	N19	0.743700	0.166000	0.052700
N201	N20	0.486800	0.214000	0.008300
N211	N21	0.099200	0.944600	0.061500
N221	N22	0.769500	0.827600	0.143800
N231	N23	0.739400	0.693600	0.239000
N241	N24	0.244500	0.199500	0.443700
N251	N25	0.566000	0.839900	0.449900
N261	N26	0.737600	0.857300	0.346400
N271	N27	0.859100	0.784900	0.452200
N281	N28	0.018100	0.171800	0.257500
N291	N29	0.858500	0.087300	0.357200
N301	N30	0.033400	0.365600	0.140200
N311	N31	0.243700	0.334000	0.052700
N321	N32	0.986800	0.286000	0.008300
N331	N33	0.599200	0.555400	0.061500
N341	N34	0.269500	0.672400	0.143800
N351	N35	0.239400	0.806400	0.239000
N361	N36	0.744500	0.300500	0.443700
N371	N37	0.066000	0.160100	0.550100
N381	N38	0.237600	0.142700	0.653600
N391	N39	0.359100	0.215100	0.547800
N401	N40	0.518100	0.828200	0.742500
N411	N41	0.358500	0.912700	0.642800
N421	N42	0.533400	0.634400	0.859800
N431	N43	0.743700	0.666000	0.947300
N441	N44	0.486800	0.714000	0.991700
N451	N45	0.099200	0.444600	0.938500
N461	N46	0.769500	0.327600	0.856200
N471	N47	0.739400	0.193600	0.761000
N481	N48	0.244500	0.699500	0.556300
O11	O1	0.407900	0.793100	0.882440
O21	O2	0.459700	0.795310	0.838600
O31	O3	0.170080	0.735760	0.883940
O41	O4	0.120800	0.722220	0.840260
O51	O5	0.143000	0.743000	0.618210
O61	O6	0.099400	0.727320	0.662250
O71	O7	0.383900	0.775600	0.611040
O81	O8	0.446500	0.771300	0.652360
O91	O9	0.747730	0.191460	0.603820
O101	O10	0.701800	0.082900	0.615530
O111	O11	0.727300	0.117020	0.658800
O121	O12	0.603400	0.920500	0.611510
O131	O13	0.596800	0.876900	0.652690
O141	O14	0.602800	0.912170	0.883700
O151	O15	0.566500	0.878210	0.842180
O161	O16	0.711900	0.072500	0.881710
O171	O17	0.733400	0.107280	0.838090
O181	O18	0.610900	0.228100	0.620230
O191	O19	0.660500	0.213300	0.663790
O201	O20	0.374000	0.285300	0.620960
O211	O21	0.323100	0.293470	0.665100
O221	O22	0.398400	0.297400	0.890950
O231	O23	0.354400	0.329000	0.850210
O241	O24	0.611200	0.221800	0.889430
O251	O25	0.654900	0.194600	0.846600
O261	O26	0.194700	0.270050	0.948560
O271	O27	0.300300	0.252040	0.937010
O281	O28	0.139800	0.214260	0.051910
O291	O29	0.148900	0.134170	0.059130
O301	O30	0.364800	0.850050	0.050250
O311	O31	0.292100	0.907400	0.058000
O321	O32	0.503400	0.855100	0.961340
O331	O33	0.503300	0.920230	0.932770
O341	O34	0.539060	0.809190	0.605650
O351	O35	0.426000	0.839450	0.558230
O361	O36	0.512200	0.891950	0.559190
O371	O37	0.292200	0.843700	0.464470
O381	O38	0.296300	0.909100	0.436480
O391	O39	0.547300	0.274520	0.460090
O401	O40	0.469200	0.229080	0.438920
O411	O41	0.646100	0.214240	0.554210
O421	O42	0.646400	0.133750	0.561760
O431	O43	0.630200	0.309900	0.578710
O441	O44	0.726600	0.287800	0.627030
O451	O45	0.758900	0.282700	0.566540
O461	O46	0.004900	0.665400	0.694910
O471	O47	0.956600	0.625900	0.635770
O481	O48	0.046200	0.792700	0.882460
O491	O49	0.146000	0.811670	0.929140
O501	O50	0.017600	0.773000	0.944490
O511	O51	0.616900	0.134800	0.931050
O521	O52	0.272100	0.249100	0.863300
O531	O53	0.260300	0.302000	0.806160
O541	O54	0.661200	0.851900	0.567410
O551	O55	0.038680	0.689860	0.899170
O561	O56	0.249100	0.337310	0.895880
O571	O57	0.907900	0.206900	0.117560
O581	O58	0.959700	0.204690	0.161400
O591	O59	0.670080	0.264240	0.116060
O601	O60	0.620800	0.277780	0.159740
O611	O61	0.643000	0.257000	0.381790
O621	O62	0.599400	0.272680	0.337750
O631	O63	0.883900	0.224400	0.388960
O641	O64	0.946500	0.228700	0.347640
O651	O65	0.247730	0.808540	0.396180
O661	O66	0.201800	0.917100	0.384470
O671	O67	0.227300	0.882980	0.341200
O681	O68	0.103400	0.079500	0.388490
O691	O69	0.096800	0.123100	0.347310
O701	O70	0.102800	0.087830	0.116300
O711	O71	0.066500	0.121790	0.157820
O721	O72	0.211900	0.927500	0.118290
O731	O73	0.233400	0.892720	0.161910
O741	O74	0.110900	0.771900	0.379770
O751	O75	0.160500	0.786700	0.336210
O761	O76	0.874000	0.714700	0.379040
O771	O77	0.823100	0.706530	0.334900
O781	O78	0.898400	0.702600	0.109050
O791	O79	0.854400	0.671000	0.149790
O801	O80	0.111200	0.778200	0.110570
O811	O81	0.154900	0.805400	0.153400
O821	O82	0.694700	0.729950	0.051440
O831	O83	0.800300	0.747960	0.062990
O841	O84	0.639800	0.785740	0.948090
O851	O85	0.648900	0.865830	0.940870
O861	O86	0.864800	0.149950	0.949750
O871	O87	0.792100	0.092600	0.942000
O881	O88	0.003400	0.144900	0.038660
O891	O89	0.003300	0.079770	0.067230
O901	O90	0.039060	0.190810	0.394350
O911	O91	0.926000	0.160550	0.441770
O921	O92	0.012200	0.108050	0.440810
O931	O93	0.792200	0.156300	0.535530
O941	O94	0.796300	0.090900	0.563520
O951	O95	0.047300	0.725480	0.539910
O961	O96	0.969200	0.770920	0.561080
O971	O97	0.146100	0.785760	0.445790
O981	O98	0.146400	0.866250	0.438240
O991	O99	0.130200	0.690100	0.421290
O1001	O100	0.226600	0.712200	0.372970
O1011	O101	0.258900	0.717300	0.433460
O1021	O102	0.504900	0.334600	0.305090
O1031	O103	0.456600	0.374100	0.364230
O1041	O104	0.546200	0.207300	0.117540
O1051	O105	0.646000	0.188330	0.070860
O1061	O106	0.517600	0.227000	0.055510
O1071	O107	0.116900	0.865200	0.068950
O1081	O108	0.772100	0.750900	0.136700
O1091	O109	0.760300	0.698000	0.193840
O1101	O110	0.161200	0.148100	0.432590
O1111	O111	0.538680	0.310140	0.100830
O1121	O112	0.749100	0.662690	0.104120
O1131	O113	0.407900	0.293100	0.117560
O1141	O114	0.459700	0.295310	0.161400
O1151	O115	0.170080	0.235760	0.116060
O1161	O116	0.120800	0.222220	0.159740
O1171	O117	0.143000	0.243000	0.381790
O1181	O118	0.099400	0.227320	0.337750
O1191	O119	0.383900	0.275600	0.388960
O1201	O120	0.446500	0.271300	0.347640
O1211	O121	0.747730	0.691460	0.396180
O1221	O122	0.701800	0.582900	0.384470
O1231	O123	0.727300	0.617020	0.341200
O1241	O124	0.603400	0.420500	0.388490
O1251	O125	0.596800	0.376900	0.347310
O1261	O126	0.602800	0.412170	0.116300
O1271	O127	0.566500	0.378210	0.157820
O1281	O128	0.711900	0.572500	0.118290
O1291	O129	0.733400	0.607280	0.161910
O1301	O130	0.610900	0.728100	0.379770
O1311	O131	0.660500	0.713300	0.336210
O1321	O132	0.374000	0.785300	0.379040
O1331	O133	0.323100	0.793470	0.334900
O1341	O134	0.398400	0.797400	0.109050
O1351	O135	0.354400	0.829000	0.149790
O1361	O136	0.611200	0.721800	0.110570
O1371	O137	0.654900	0.694600	0.153400
O1381	O138	0.194700	0.770050	0.051440
O1391	O139	0.300300	0.752040	0.062990
O1401	O140	0.139800	0.714260	0.948090
O1411	O141	0.148900	0.634170	0.940870
O1421	O142	0.364800	0.350050	0.949750
O1431	O143	0.292100	0.407400	0.942000
O1441	O144	0.503400	0.355100	0.038660
O1451	O145	0.503300	0.420230	0.067230
O1461	O146	0.539060	0.309190	0.394350
O1471	O147	0.426000	0.339450	0.441770
O1481	O148	0.512200	0.391950	0.440810
O1491	O149	0.292200	0.343700	0.535530
O1501	O150	0.296300	0.409100	0.563520
O1511	O151	0.547300	0.774520	0.539910
O1521	O152	0.469200	0.729080	0.561080
O1531	O153	0.646100	0.714240	0.445790
O1541	O154	0.646400	0.633750	0.438240
O1551	O155	0.630200	0.809900	0.421290
O1561	O156	0.726600	0.787800	0.372970
O1571	O157	0.758900	0.782700	0.433460
O1581	O158	0.004900	0.165400	0.305090
O1591	O159	0.956600	0.125900	0.364230
O1601	O160	0.046200	0.292700	0.117540
O1611	O161	0.146000	0.311670	0.070860
O1621	O162	0.017600	0.273000	0.055510
O1631	O163	0.616900	0.634800	0.068950
O1641	O164	0.272100	0.749100	0.136700
O1651	O165	0.260300	0.802000	0.193840
O1661	O166	0.661200	0.351900	0.432590
O1671	O167	0.038680	0.189860	0.100830
O1681	O168	0.249100	0.837310	0.104120
O1691	O169	0.907900	0.706900	0.882440
O1701	O170	0.959700	0.704690	0.838600
O1711	O171	0.670080	0.764240	0.883940
O1721	O172	0.620800	0.777780	0.840260
O1731	O173	0.643000	0.757000	0.618210
O1741	O174	0.599400	0.772680	0.662250
O1751	O175	0.883900	0.724400	0.611040
O1761	O176	0.946500	0.728700	0.652360
O1771	O177	0.247730	0.308540	0.603820
O1781	O178	0.201800	0.417100	0.615530
O1791	O179	0.227300	0.382980	0.658800
O1801	O180	0.103400	0.579500	0.611510
O1811	O181	0.096800	0.623100	0.652690
O1821	O182	0.102800	0.587830	0.883700
O1831	O183	0.066500	0.621790	0.842180
O1841	O184	0.211900	0.427500	0.881710
O1851	O185	0.233400	0.392720	0.838090
O1861	O186	0.110900	0.271900	0.620230
O1871	O187	0.160500	0.286700	0.663790
O1881	O188	0.874000	0.214700	0.620960
O1891	O189	0.823100	0.206530	0.665100
O1901	O190	0.898400	0.202600	0.890950
O1911	O191	0.854400	0.171000	0.850210
O1921	O192	0.111200	0.278200	0.889430
O1931	O193	0.154900	0.305400	0.846600
O1941	O194	0.694700	0.229950	0.948560
O1951	O195	0.800300	0.247960	0.937010
O1961	O196	0.639800	0.285740	0.051910
O1971	O197	0.648900	0.365830	0.059130
O1981	O198	0.864800	0.649950	0.050250
O1991	O199	0.792100	0.592600	0.058000
O2001	O200	0.003400	0.644900	0.961340
O2011	O201	0.003300	0.579770	0.932770
O2021	O202	0.039060	0.690810	0.605650
O2031	O203	0.926000	0.660550	0.558230
O2041	O204	0.012200	0.608050	0.559190
O2051	O205	0.792200	0.656300	0.464470
O2061	O206	0.796300	0.590900	0.436480
O2071	O207	0.047300	0.225480	0.460090
O2081	O208	0.969200	0.270920	0.438920
O2091	O209	0.146100	0.285760	0.554210
O2101	O210	0.146400	0.366250	0.561760
O2111	O211	0.130200	0.190100	0.578710
O2121	O212	0.226600	0.212200	0.627030
O2131	O213	0.258900	0.217300	0.566540
O2141	O214	0.504900	0.834600	0.694910
O2151	O215	0.456600	0.874100	0.635770
O2161	O216	0.546200	0.707300	0.882460
O2171	O217	0.646000	0.688330	0.929140
O2181	O218	0.517600	0.727000	0.944490
O2191	O219	0.116900	0.365200	0.931050
O2201	O220	0.772100	0.250900	0.863300
O2211	O221	0.760300	0.198000	0.806160
O2221	O222	0.161200	0.648100	0.567410
O2231	O223	0.538680	0.810140	0.899170
O2241	O224	0.749100	0.162690	0.895880
