data_YOZBOF_SL_PM
_symmetry_space_group_name_H-M	'P1'
_cell_length_a	25.789000
_cell_length_b	25.789000
_cell_length_c	19.797000
_cell_angle_alpha	90.000000
_cell_angle_beta	90.000000
_cell_angle_gamma	120.000000
_symmetry_Int_Tables_number 1

loop_
_symmetry_equiv_pos_as_xyz
'x,y,z'

loop_
_atom_site_label
_atom_site_type_symbol
_atom_site_fract_x
_atom_site_fract_y
_atom_site_fract_z
Zn11	Zn1	0.431910	0.100320	0.597850
H21	H2	0.297500	0.075600	0.591000
H31	H3	0.435800	0.120000	0.439000
H41	H4	0.483100	0.184900	0.290000
H51	H5	0.413700	0.141100	0.289600
H61	H6	0.454900	0.127300	0.335200
H71	H7	0.549300	0.195000	0.527400
H81	H8	0.324500	0.998000	0.688500
C91	C9	0.314800	0.022100	0.527000
C101	C10	0.282600	0.046400	0.556000
C111	C11	0.221700	0.021200	0.525700
C121	C12	0.187000	0.050000	0.558000
C131	C13	0.432300	0.190200	0.498500
C141	C14	0.436500	0.157100	0.438300
C151	C15	0.441900	0.194000	0.375500
C161	C16	0.449000	0.158000	0.317000
C171	C17	0.555000	0.164200	0.545800
C181	C18	0.354100	0.028500	0.716200
N191	N19	0.371300	0.035100	0.542800
N201	N20	0.430600	0.170800	0.564100
N211	N21	0.511700	0.113600	0.575800
N221	N22	0.404200	0.080000	0.693100
O231	O23	0.545300	0.008400	0.632400
O241	O24	0.508500	0.185800	0.694700
Zn251	Zn25	0.899680	0.331590	0.597850
H261	H26	0.924400	0.221900	0.591000
H271	H27	0.880000	0.315800	0.439000
H281	H28	0.815100	0.298200	0.290000
H291	H29	0.858900	0.272600	0.289600
H301	H30	0.872700	0.327600	0.335200
H311	H31	0.805000	0.354300	0.527400
H321	H32	0.002000	0.326500	0.688500
C331	C33	0.977900	0.292700	0.527000
C341	C34	0.953600	0.236200	0.556000
C351	C35	0.978800	0.200500	0.525700
C361	C36	0.950000	0.137000	0.558000
C371	C37	0.809800	0.242100	0.498500
C381	C38	0.842900	0.279400	0.438300
C391	C39	0.806000	0.247900	0.375500
C401	C40	0.842000	0.291000	0.317000
C411	C41	0.835800	0.390800	0.545800
C421	C42	0.971500	0.325600	0.716200
N431	N43	0.964900	0.336200	0.542800
N441	N44	0.829200	0.259800	0.564100
N451	N45	0.886400	0.398100	0.575800
N461	N46	0.920000	0.324200	0.693100
O471	O47	0.991600	0.536900	0.632400
O481	O48	0.814200	0.322700	0.694700
Zn491	Zn49	0.668410	0.568090	0.597850
H501	H50	0.778100	0.702500	0.591000
H511	H51	0.684200	0.564200	0.439000
H521	H52	0.645700	0.450700	0.527400
H531	H53	0.673500	0.675500	0.688500
C541	C54	0.707300	0.685200	0.527000
C551	C55	0.763800	0.717400	0.556000
C561	C56	0.799500	0.778300	0.525700
C571	C57	0.863000	0.813000	0.558000
C581	C58	0.757900	0.567700	0.498500
C591	C59	0.720600	0.563500	0.438300
C601	C60	0.752100	0.558100	0.375500
C611	C61	0.609200	0.445000	0.545800
C621	C62	0.674400	0.645900	0.716200
N631	N63	0.663800	0.628700	0.542800
N641	N64	0.740200	0.569400	0.564100
N651	N65	0.601900	0.488300	0.575800
N661	N66	0.675800	0.595800	0.693100
O671	O67	0.463100	0.454700	0.632400
O681	O68	0.677300	0.491500	0.694700
Zn691	Zn69	0.568090	0.899680	0.097850
H701	H70	0.702500	0.924400	0.091000
H711	H71	0.564200	0.880000	0.939000
H721	H72	0.516900	0.815100	0.790000
H731	H73	0.586300	0.858900	0.789600
H741	H74	0.545100	0.872700	0.835200
H751	H75	0.450700	0.805000	0.027400
H761	H76	0.675500	0.002000	0.188500
C771	C77	0.685200	0.977900	0.027000
C781	C78	0.717400	0.953600	0.056000
C791	C79	0.778300	0.978800	0.025700
C801	C80	0.813000	0.950000	0.058000
C811	C81	0.567700	0.809800	0.998500
C821	C82	0.563500	0.842900	0.938300
C831	C83	0.558100	0.806000	0.875500
C841	C84	0.551000	0.842000	0.817000
C851	C85	0.445000	0.835800	0.045800
C861	C86	0.645900	0.971500	0.216200
N871	N87	0.628700	0.964900	0.042800
N881	N88	0.569400	0.829200	0.064100
N891	N89	0.488300	0.886400	0.075800
N901	N90	0.595800	0.920000	0.193100
O911	O91	0.454700	0.991600	0.132400
O921	O92	0.491500	0.814200	0.194700
Zn931	Zn93	0.100320	0.668410	0.097850
H941	H94	0.075600	0.778100	0.091000
H951	H95	0.120000	0.684200	0.939000
H961	H96	0.184900	0.701800	0.790000
H971	H97	0.141100	0.727400	0.789600
H981	H98	0.127300	0.672400	0.835200
H991	H99	0.195000	0.645700	0.027400
H1001	H100	0.998000	0.673500	0.188500
C1011	C101	0.022100	0.707300	0.027000
C1021	C102	0.046400	0.763800	0.056000
C1031	C103	0.021200	0.799500	0.025700
C1041	C104	0.050000	0.863000	0.058000
C1051	C105	0.190200	0.757900	0.998500
C1061	C106	0.157100	0.720600	0.938300
C1071	C107	0.194000	0.752100	0.875500
C1081	C108	0.158000	0.709000	0.817000
C1091	C109	0.164200	0.609200	0.045800
C1101	C110	0.028500	0.674400	0.216200
N1111	N111	0.035100	0.663800	0.042800
N1121	N112	0.170800	0.740200	0.064100
N1131	N113	0.113600	0.601900	0.075800
N1141	N114	0.080000	0.675800	0.193100
O1151	O115	0.008400	0.463100	0.132400
O1161	O116	0.185800	0.677300	0.194700
Zn1171	Zn117	0.331590	0.431910	0.097850
H1181	H118	0.221900	0.297500	0.091000
H1191	H119	0.315800	0.435800	0.939000
H1201	H120	0.298200	0.483100	0.790000
H1211	H121	0.272600	0.413700	0.789600
H1221	H122	0.327600	0.454900	0.835200
H1231	H123	0.354300	0.549300	0.027400
H1241	H124	0.326500	0.324500	0.188500
C1251	C125	0.292700	0.314800	0.027000
C1261	C126	0.236200	0.282600	0.056000
C1271	C127	0.200500	0.221700	0.025700
C1281	C128	0.137000	0.187000	0.058000
C1291	C129	0.242100	0.432300	0.998500
C1301	C130	0.279400	0.436500	0.938300
C1311	C131	0.247900	0.441900	0.875500
C1321	C132	0.291000	0.449000	0.817000
C1331	C133	0.390800	0.555000	0.045800
C1341	C134	0.325600	0.354100	0.216200
N1351	N135	0.336200	0.371300	0.042800
N1361	N136	0.259800	0.430600	0.064100
N1371	N137	0.398100	0.511700	0.075800
N1381	N138	0.324200	0.404200	0.193100
O1391	O139	0.536900	0.545300	0.132400
O1401	O140	0.322700	0.508500	0.194700
Zn1411	Zn141	0.100320	0.431910	0.402150
H1421	H142	0.075600	0.297500	0.409000
H1431	H143	0.120000	0.435800	0.561000
H1441	H144	0.184900	0.483100	0.710000
H1451	H145	0.141100	0.413700	0.710400
H1461	H146	0.127300	0.454900	0.664800
H1471	H147	0.195000	0.549300	0.472600
H1481	H148	0.998000	0.324500	0.311500
C1491	C149	0.022100	0.314800	0.473000
C1501	C150	0.046400	0.282600	0.444000
C1511	C151	0.021200	0.221700	0.474300
C1521	C152	0.190200	0.432300	0.501500
C1531	C153	0.157100	0.436500	0.561700
C1541	C154	0.194000	0.441900	0.624500
C1551	C155	0.158000	0.449000	0.683000
C1561	C156	0.164200	0.555000	0.454200
C1571	C157	0.028500	0.354100	0.283800
N1581	N158	0.035100	0.371300	0.457200
N1591	N159	0.170800	0.430600	0.435900
N1601	N160	0.113600	0.511700	0.424200
N1611	N161	0.080000	0.404200	0.306900
O1621	O162	0.008400	0.545300	0.367600
O1631	O163	0.185800	0.508500	0.305300
Zn1641	Zn164	0.331590	0.899680	0.402150
H1651	H165	0.221900	0.924400	0.409000
H1661	H166	0.315800	0.880000	0.561000
H1671	H167	0.298200	0.815100	0.710000
H1681	H168	0.272600	0.858900	0.710400
H1691	H169	0.327600	0.872700	0.664800
H1701	H170	0.354300	0.805000	0.472600
H1711	H171	0.326500	0.002000	0.311500
C1721	C172	0.292700	0.977900	0.473000
C1731	C173	0.236200	0.953600	0.444000
C1741	C174	0.200500	0.978800	0.474300
C1751	C175	0.242100	0.809800	0.501500
C1761	C176	0.279400	0.842900	0.561700
C1771	C177	0.247900	0.806000	0.624500
C1781	C178	0.291000	0.842000	0.683000
C1791	C179	0.390800	0.835800	0.454200
C1801	C180	0.325600	0.971500	0.283800
N1811	N181	0.336200	0.964900	0.457200
N1821	N182	0.259800	0.829200	0.435900
N1831	N183	0.398100	0.886400	0.424200
N1841	N184	0.324200	0.920000	0.306900
O1851	O185	0.536900	0.991600	0.367600
O1861	O186	0.322700	0.814200	0.305300
Zn1871	Zn187	0.568090	0.668410	0.402150
H1881	H188	0.702500	0.778100	0.409000
H1891	H189	0.564200	0.684200	0.561000
H1901	H190	0.516900	0.701800	0.710000
H1911	H191	0.586300	0.727400	0.710400
H1921	H192	0.545100	0.672400	0.664800
H1931	H193	0.450700	0.645700	0.472600
H1941	H194	0.675500	0.673500	0.311500
C1951	C195	0.685200	0.707300	0.473000
C1961	C196	0.717400	0.763800	0.444000
C1971	C197	0.778300	0.799500	0.474300
C1981	C198	0.567700	0.757900	0.501500
C1991	C199	0.563500	0.720600	0.561700
C2001	C200	0.558100	0.752100	0.624500
C2011	C201	0.551000	0.709000	0.683000
C2021	C202	0.445000	0.609200	0.454200
C2031	C203	0.645900	0.674400	0.283800
N2041	N204	0.628700	0.663800	0.457200
N2051	N205	0.569400	0.740200	0.435900
N2061	N206	0.488300	0.601900	0.424200
N2071	N207	0.595800	0.675800	0.306900
O2081	O208	0.454700	0.463100	0.367600
O2091	O209	0.491500	0.677300	0.305300
Zn2101	Zn210	0.899680	0.568090	0.902150
H2111	H211	0.924400	0.702500	0.909000
H2121	H212	0.880000	0.564200	0.061000
H2131	H213	0.805000	0.450700	0.972600
H2141	H214	0.002000	0.675500	0.811500
C2151	C215	0.977900	0.685200	0.973000
C2161	C216	0.953600	0.717400	0.944000
C2171	C217	0.978800	0.778300	0.974300
C2181	C218	0.809800	0.567700	0.001500
C2191	C219	0.842900	0.563500	0.061700
C2201	C220	0.806000	0.558100	0.124500
C2211	C221	0.835800	0.445000	0.954200
C2221	C222	0.971500	0.645900	0.783800
N2231	N223	0.964900	0.628700	0.957200
N2241	N224	0.829200	0.569400	0.935900
N2251	N225	0.886400	0.488300	0.924200
N2261	N226	0.920000	0.595800	0.806900
O2271	O227	0.991600	0.454700	0.867600
O2281	O228	0.814200	0.491500	0.805300
Zn2291	Zn229	0.668410	0.100320	0.902150
H2301	H230	0.778100	0.075600	0.909000
H2311	H231	0.684200	0.120000	0.061000
H2321	H232	0.701800	0.184900	0.210000
H2331	H233	0.727400	0.141100	0.210400
H2341	H234	0.672400	0.127300	0.164800
H2351	H235	0.645700	0.195000	0.972600
H2361	H236	0.673500	0.998000	0.811500
C2371	C237	0.707300	0.022100	0.973000
C2381	C238	0.763800	0.046400	0.944000
C2391	C239	0.799500	0.021200	0.974300
C2401	C240	0.757900	0.190200	0.001500
C2411	C241	0.720600	0.157100	0.061700
C2421	C242	0.752100	0.194000	0.124500
C2431	C243	0.709000	0.158000	0.183000
C2441	C244	0.609200	0.164200	0.954200
C2451	C245	0.674400	0.028500	0.783800
N2461	N246	0.663800	0.035100	0.957200
N2471	N247	0.740200	0.170800	0.935900
N2481	N248	0.601900	0.113600	0.924200
N2491	N249	0.675800	0.080000	0.806900
O2501	O250	0.463100	0.008400	0.867600
O2511	O251	0.677300	0.185800	0.805300
Zn2521	Zn252	0.431910	0.331590	0.902150
H2531	H253	0.297500	0.221900	0.909000
H2541	H254	0.435800	0.315800	0.061000
H2551	H255	0.483100	0.298200	0.210000
H2561	H256	0.413700	0.272600	0.210400
H2571	H257	0.454900	0.327600	0.164800
H2581	H258	0.549300	0.354300	0.972600
H2591	H259	0.324500	0.326500	0.811500
C2601	C260	0.314800	0.292700	0.973000
C2611	C261	0.282600	0.236200	0.944000
C2621	C262	0.221700	0.200500	0.974300
C2631	C263	0.432300	0.242100	0.001500
C2641	C264	0.436500	0.279400	0.061700
C2651	C265	0.441900	0.247900	0.124500
C2661	C266	0.449000	0.291000	0.183000
C2671	C267	0.555000	0.390800	0.954200
C2681	C268	0.354100	0.325600	0.783800
N2691	N269	0.371300	0.336200	0.957200
N2701	N270	0.430600	0.259800	0.935900
N2711	N271	0.511700	0.398100	0.924200
N2721	N272	0.404200	0.324200	0.806900
O2731	O273	0.545300	0.536900	0.867600
O2741	O274	0.508500	0.322700	0.805300
Zn2751	Zn275	0.568090	0.899680	0.402150
H2761	H276	0.702500	0.924400	0.409000
H2771	H277	0.564200	0.880000	0.561000
H2781	H278	0.450700	0.805000	0.472600
H2791	H279	0.675500	0.002000	0.311500
C2801	C280	0.685200	0.977900	0.473000
C2811	C281	0.717400	0.953600	0.444000
C2821	C282	0.778300	0.978800	0.474300
C2831	C283	0.813000	0.950000	0.442000
C2841	C284	0.567700	0.809800	0.501500
C2851	C285	0.563500	0.842900	0.561700
C2861	C286	0.558100	0.806000	0.624500
C2871	C287	0.445000	0.835800	0.454200
C2881	C288	0.645900	0.971500	0.283800
N2891	N289	0.628700	0.964900	0.457200
N2901	N290	0.569400	0.829200	0.435900
N2911	N291	0.488300	0.886400	0.424200
N2921	N292	0.595800	0.920000	0.306900
O2931	O293	0.454700	0.991600	0.367600
O2941	O294	0.491500	0.814200	0.305300
Zn2951	Zn295	0.100320	0.668410	0.402150
H2961	H296	0.075600	0.778100	0.409000
H2971	H297	0.120000	0.684200	0.561000
H2981	H298	0.195000	0.645700	0.472600
H2991	H299	0.998000	0.673500	0.311500
C3001	C300	0.022100	0.707300	0.473000
C3011	C301	0.046400	0.763800	0.444000
C3021	C302	0.021200	0.799500	0.474300
C3031	C303	0.050000	0.863000	0.442000
C3041	C304	0.190200	0.757900	0.501500
C3051	C305	0.157100	0.720600	0.561700
C3061	C306	0.194000	0.752100	0.624500
C3071	C307	0.164200	0.609200	0.454200
C3081	C308	0.028500	0.674400	0.283800
N3091	N309	0.035100	0.663800	0.457200
N3101	N310	0.170800	0.740200	0.435900
N3111	N311	0.113600	0.601900	0.424200
N3121	N312	0.080000	0.675800	0.306900
O3131	O313	0.008400	0.463100	0.367600
O3141	O314	0.185800	0.677300	0.305300
Zn3151	Zn315	0.331590	0.431910	0.402150
H3161	H316	0.221900	0.297500	0.409000
H3171	H317	0.315800	0.435800	0.561000
H3181	H318	0.354300	0.549300	0.472600
H3191	H319	0.326500	0.324500	0.311500
C3201	C320	0.292700	0.314800	0.473000
C3211	C321	0.236200	0.282600	0.444000
C3221	C322	0.200500	0.221700	0.474300
C3231	C323	0.137000	0.187000	0.442000
C3241	C324	0.242100	0.432300	0.501500
C3251	C325	0.279400	0.436500	0.561700
C3261	C326	0.247900	0.441900	0.624500
C3271	C327	0.390800	0.555000	0.454200
C3281	C328	0.325600	0.354100	0.283800
N3291	N329	0.336200	0.371300	0.457200
N3301	N330	0.259800	0.430600	0.435900
N3311	N331	0.398100	0.511700	0.424200
N3321	N332	0.324200	0.404200	0.306900
O3331	O333	0.536900	0.545300	0.367600
O3341	O334	0.322700	0.508500	0.305300
Zn3351	Zn335	0.431910	0.100320	0.902150
H3361	H336	0.297500	0.075600	0.909000
H3371	H337	0.435800	0.120000	0.061000
H3381	H338	0.549300	0.195000	0.972600
H3391	H339	0.324500	0.998000	0.811500
C3401	C340	0.314800	0.022100	0.973000
C3411	C341	0.282600	0.046400	0.944000
C3421	C342	0.221700	0.021200	0.974300
C3431	C343	0.187000	0.050000	0.942000
C3441	C344	0.432300	0.190200	0.001500
C3451	C345	0.436500	0.157100	0.061700
C3461	C346	0.441900	0.194000	0.124500
C3471	C347	0.555000	0.164200	0.954200
C3481	C348	0.354100	0.028500	0.783800
N3491	N349	0.371300	0.035100	0.957200
N3501	N350	0.430600	0.170800	0.935900
N3511	N351	0.511700	0.113600	0.924200
N3521	N352	0.404200	0.080000	0.806900
O3531	O353	0.545300	0.008400	0.867600
O3541	O354	0.508500	0.185800	0.805300
Zn3551	Zn355	0.899680	0.331590	0.902150
H3561	H356	0.924400	0.221900	0.909000
H3571	H357	0.880000	0.315800	0.061000
H3581	H358	0.805000	0.354300	0.972600
H3591	H359	0.002000	0.326500	0.811500
C3601	C360	0.977900	0.292700	0.973000
C3611	C361	0.953600	0.236200	0.944000
C3621	C362	0.978800	0.200500	0.974300
C3631	C363	0.950000	0.137000	0.942000
C3641	C364	0.809800	0.242100	0.001500
C3651	C365	0.842900	0.279400	0.061700
C3661	C366	0.806000	0.247900	0.124500
C3671	C367	0.835800	0.390800	0.954200
C3681	C368	0.971500	0.325600	0.783800
N3691	N369	0.964900	0.336200	0.957200
N3701	N370	0.829200	0.259800	0.935900
N3711	N371	0.886400	0.398100	0.924200
N3721	N372	0.920000	0.324200	0.806900
O3731	O373	0.991600	0.536900	0.867600
O3741	O374	0.814200	0.322700	0.805300
Zn3751	Zn375	0.668410	0.568090	0.902150
H3761	H376	0.778100	0.702500	0.909000
H3771	H377	0.684200	0.564200	0.061000
H3781	H378	0.701800	0.516900	0.210000
H3791	H379	0.727400	0.586300	0.210400
H3801	H380	0.672400	0.545100	0.164800
H3811	H381	0.645700	0.450700	0.972600
H3821	H382	0.673500	0.675500	0.811500
C3831	C383	0.707300	0.685200	0.973000
C3841	C384	0.763800	0.717400	0.944000
C3851	C385	0.799500	0.778300	0.974300
C3861	C386	0.863000	0.813000	0.942000
C3871	C387	0.757900	0.567700	0.001500
C3881	C388	0.720600	0.563500	0.061700
C3891	C389	0.752100	0.558100	0.124500
C3901	C390	0.709000	0.551000	0.183000
C3911	C391	0.609200	0.445000	0.954200
C3921	C392	0.674400	0.645900	0.783800
N3931	N393	0.663800	0.628700	0.957200
N3941	N394	0.740200	0.569400	0.935900
N3951	N395	0.601900	0.488300	0.924200
N3961	N396	0.675800	0.595800	0.806900
O3971	O397	0.463100	0.454700	0.867600
O3981	O398	0.677300	0.491500	0.805300
Zn3991	Zn399	0.899680	0.568090	0.597850
H4001	H400	0.924400	0.702500	0.591000
H4011	H401	0.880000	0.564200	0.439000
H4021	H402	0.815100	0.516900	0.290000
H4031	H403	0.858900	0.586300	0.289600
H4041	H404	0.872700	0.545100	0.335200
H4051	H405	0.805000	0.450700	0.527400
H4061	H406	0.002000	0.675500	0.688500
C4071	C407	0.977900	0.685200	0.527000
C4081	C408	0.953600	0.717400	0.556000
C4091	C409	0.978800	0.778300	0.525700
C4101	C410	0.809800	0.567700	0.498500
C4111	C411	0.842900	0.563500	0.438300
C4121	C412	0.806000	0.558100	0.375500
C4131	C413	0.842000	0.551000	0.317000
C4141	C414	0.835800	0.445000	0.545800
C4151	C415	0.971500	0.645900	0.716200
N4161	N416	0.964900	0.628700	0.542800
N4171	N417	0.829200	0.569400	0.564100
N4181	N418	0.886400	0.488300	0.575800
N4191	N419	0.920000	0.595800	0.693100
O4201	O420	0.991600	0.454700	0.632400
O4211	O421	0.814200	0.491500	0.694700
Zn4221	Zn422	0.668410	0.100320	0.597850
H4231	H423	0.778100	0.075600	0.591000
H4241	H424	0.684200	0.120000	0.439000
H4251	H425	0.645700	0.195000	0.527400
H4261	H426	0.673500	0.998000	0.688500
C4271	C427	0.707300	0.022100	0.527000
C4281	C428	0.763800	0.046400	0.556000
C4291	C429	0.799500	0.021200	0.525700
C4301	C430	0.757900	0.190200	0.498500
C4311	C431	0.720600	0.157100	0.438300
C4321	C432	0.752100	0.194000	0.375500
C4331	C433	0.609200	0.164200	0.545800
C4341	C434	0.674400	0.028500	0.716200
N4351	N435	0.663800	0.035100	0.542800
N4361	N436	0.740200	0.170800	0.564100
N4371	N437	0.601900	0.113600	0.575800
N4381	N438	0.675800	0.080000	0.693100
O4391	O439	0.463100	0.008400	0.632400
O4401	O440	0.677300	0.185800	0.694700
Zn4411	Zn441	0.431910	0.331590	0.597850
H4421	H442	0.297500	0.221900	0.591000
H4431	H443	0.435800	0.315800	0.439000
H4441	H444	0.549300	0.354300	0.527400
H4451	H445	0.324500	0.326500	0.688500
C4461	C446	0.314800	0.292700	0.527000
C4471	C447	0.282600	0.236200	0.556000
C4481	C448	0.221700	0.200500	0.525700
C4491	C449	0.432300	0.242100	0.498500
C4501	C450	0.436500	0.279400	0.438300
C4511	C451	0.441900	0.247900	0.375500
C4521	C452	0.555000	0.390800	0.545800
C4531	C453	0.354100	0.325600	0.716200
N4541	N454	0.371300	0.336200	0.542800
N4551	N455	0.430600	0.259800	0.564100
N4561	N456	0.511700	0.398100	0.575800
N4571	N457	0.404200	0.324200	0.693100
O4581	O458	0.545300	0.536900	0.632400
O4591	O459	0.508500	0.322700	0.694700
Zn4601	Zn460	0.100320	0.431910	0.097850
H4611	H461	0.075600	0.297500	0.091000
H4621	H462	0.120000	0.435800	0.939000
H4631	H463	0.195000	0.549300	0.027400
H4641	H464	0.998000	0.324500	0.188500
C4651	C465	0.022100	0.314800	0.027000
C4661	C466	0.046400	0.282600	0.056000
C4671	C467	0.021200	0.221700	0.025700
C4681	C468	0.190200	0.432300	0.998500
C4691	C469	0.157100	0.436500	0.938300
C4701	C470	0.194000	0.441900	0.875500
C4711	C471	0.164200	0.555000	0.045800
C4721	C472	0.028500	0.354100	0.216200
N4731	N473	0.035100	0.371300	0.042800
N4741	N474	0.170800	0.430600	0.064100
N4751	N475	0.113600	0.511700	0.075800
N4761	N476	0.080000	0.404200	0.193100
O4771	O477	0.008400	0.545300	0.132400
O4781	O478	0.185800	0.508500	0.194700
Zn4791	Zn479	0.331590	0.899680	0.097850
H4801	H480	0.221900	0.924400	0.091000
H4811	H481	0.315800	0.880000	0.939000
H4821	H482	0.354300	0.805000	0.027400
H4831	H483	0.326500	0.002000	0.188500
C4841	C484	0.292700	0.977900	0.027000
C4851	C485	0.236200	0.953600	0.056000
C4861	C486	0.200500	0.978800	0.025700
C4871	C487	0.242100	0.809800	0.998500
C4881	C488	0.279400	0.842900	0.938300
C4891	C489	0.247900	0.806000	0.875500
C4901	C490	0.390800	0.835800	0.045800
C4911	C491	0.325600	0.971500	0.216200
N4921	N492	0.336200	0.964900	0.042800
N4931	N493	0.259800	0.829200	0.064100
N4941	N494	0.398100	0.886400	0.075800
N4951	N495	0.324200	0.920000	0.193100
O4961	O496	0.536900	0.991600	0.132400
O4971	O497	0.322700	0.814200	0.194700
Zn4981	Zn498	0.568090	0.668410	0.097850
H4991	H499	0.702500	0.778100	0.091000
H5001	H500	0.564200	0.684200	0.939000
H5011	H501	0.450700	0.645700	0.027400
H5021	H502	0.675500	0.673500	0.188500
C5031	C503	0.685200	0.707300	0.027000
C5041	C504	0.717400	0.763800	0.056000
C5051	C505	0.778300	0.799500	0.025700
C5061	C506	0.567700	0.757900	0.998500
C5071	C507	0.563500	0.720600	0.938300
C5081	C508	0.558100	0.752100	0.875500
C5091	C509	0.445000	0.609200	0.045800
C5101	C510	0.645900	0.674400	0.216200
N5111	N511	0.628700	0.663800	0.042800
N5121	N512	0.569400	0.740200	0.064100
N5131	N513	0.488300	0.601900	0.075800
N5141	N514	0.595800	0.675800	0.193100
O5151	O515	0.454700	0.463100	0.132400
O5161	O516	0.491500	0.677300	0.194700
H5171	H517	0.421000	0.000000	0.500000
C5181	C518	0.384200	0.000000	0.500000
H5191	H519	0.000000	0.421000	0.500000
C5201	C520	0.000000	0.384200	0.500000
H5211	H521	0.579000	0.579000	0.500000
C5221	C522	0.615800	0.615800	0.500000
H5231	H523	0.579000	0.000000	0.000000
C5241	C524	0.615800	0.000000	0.000000
H5251	H525	0.000000	0.579000	0.000000
C5261	C526	0.000000	0.615800	0.000000
H5271	H527	0.421000	0.421000	0.000000
C5281	C528	0.384200	0.384200	0.000000
H5291	H529	0.579000	0.000000	0.500000
C5301	C530	0.615800	0.000000	0.500000
H5311	H531	0.000000	0.579000	0.500000
C5321	C532	0.000000	0.615800	0.500000
H5331	H533	0.421000	0.421000	0.500000
C5341	C534	0.384200	0.384200	0.500000
H5351	H535	0.421000	0.000000	0.000000
C5361	C536	0.384200	0.000000	0.000000
H5371	H537	0.000000	0.421000	0.000000
C5381	C538	0.000000	0.384200	0.000000
H5391	H539	0.579000	0.579000	0.000000
C5401	C540	0.615800	0.615800	0.000000
H5411	H541	0.434100	0.217050	0.650600
C5421	C542	0.432100	0.216050	0.602600
H5431	H543	0.782950	0.217050	0.650600
C5441	C544	0.783950	0.216050	0.602600
H5451	H545	0.782950	0.565900	0.650600
C5461	C546	0.783950	0.567900	0.602600
H5471	H547	0.565900	0.782950	0.150600
C5481	C548	0.567900	0.783950	0.102600
H5491	H549	0.217050	0.782950	0.150600
C5501	C550	0.216050	0.783950	0.102600
H5511	H551	0.217050	0.434100	0.150600
C5521	C552	0.216050	0.432100	0.102600
H5531	H553	0.217050	0.434100	0.349400
C5541	C554	0.216050	0.432100	0.397400
H5551	H555	0.217050	0.782950	0.349400
C5561	C556	0.216050	0.783950	0.397400
H5571	H557	0.565900	0.782950	0.349400
C5581	C558	0.567900	0.783950	0.397400
H5591	H559	0.782950	0.565900	0.849400
C5601	C560	0.783950	0.567900	0.897400
H5611	H561	0.782950	0.217050	0.849400
C5621	C562	0.783950	0.216050	0.897400
H5631	H563	0.434100	0.217050	0.849400
C5641	C564	0.432100	0.216050	0.897400
C5651	C565	0.545850	0.091700	0.591300
N5661	N566	0.519500	0.039000	0.630000
C5671	C567	0.908300	0.454150	0.591300
N5681	N568	0.961000	0.480500	0.630000
C5691	C569	0.545850	0.454150	0.591300
N5701	N570	0.519500	0.480500	0.630000
C5711	C571	0.454150	0.908300	0.091300
N5721	N572	0.480500	0.961000	0.130000
C5731	C573	0.091700	0.545850	0.091300
N5741	N574	0.039000	0.519500	0.130000
C5751	C575	0.454150	0.545850	0.091300
N5761	N576	0.480500	0.519500	0.130000
C5771	C577	0.091700	0.545850	0.408700
N5781	N578	0.039000	0.519500	0.370000
C5791	C579	0.454150	0.908300	0.408700
N5801	N580	0.480500	0.961000	0.370000
C5811	C581	0.454150	0.545850	0.408700
N5821	N582	0.480500	0.519500	0.370000
C5831	C583	0.908300	0.454150	0.908700
N5841	N584	0.961000	0.480500	0.870000
C5851	C585	0.545850	0.091700	0.908700
N5861	N586	0.519500	0.039000	0.870000
C5871	C587	0.545850	0.454150	0.908700
N5881	N588	0.519500	0.480500	0.870000
C5891	C589	0.429600	0.106200	0.750000
N5901	N590	0.486600	0.162000	0.750000
C5911	C591	0.893800	0.323400	0.750000
N5921	N592	0.838000	0.324600	0.750000
C5931	C593	0.676600	0.570400	0.750000
N5941	N594	0.675400	0.513400	0.750000
C5951	C595	0.570400	0.893800	0.250000
N5961	N596	0.513400	0.838000	0.250000
C5971	C597	0.106200	0.676600	0.250000
N5981	N598	0.162000	0.675400	0.250000
C5991	C599	0.323400	0.429600	0.250000
N6001	N600	0.324600	0.486600	0.250000
C6011	C601	0.106200	0.429600	0.250000
N6021	N602	0.162000	0.486600	0.250000
C6031	C603	0.323400	0.893800	0.250000
N6041	N604	0.324600	0.838000	0.250000
C6051	C605	0.570400	0.676600	0.250000
N6061	N606	0.513400	0.675400	0.250000
C6071	C607	0.893800	0.570400	0.750000
N6081	N608	0.838000	0.513400	0.750000
C6091	C609	0.676600	0.106200	0.750000
N6101	N610	0.675400	0.162000	0.750000
C6111	C611	0.429600	0.323400	0.750000
N6121	N612	0.486600	0.324600	0.750000
H6131	H613	0.782940	0.914460	0.096110
H6141	H614	0.854660	0.986060	0.084720
H6151	H615	0.826800	0.928410	0.016810
H6161	H616	0.825970	0.272140	0.174140
H6171	H617	0.446370	0.177710	0.176540
H6181	H618	0.727860	0.174030	0.325860
H6191	H619	0.446370	0.268660	0.323460
H6201	H620	0.189890	0.153230	0.544640
H6211	H621	0.553830	0.825970	0.674140
H6221	H622	0.174030	0.727860	0.674140
H6231	H623	0.272140	0.825970	0.825860
H6241	H624	0.553830	0.727860	0.825860
H6251	H625	0.731340	0.553630	0.323460
H6261	H626	0.822290	0.553630	0.176540
H6271	H627	0.036660	0.189890	0.455360
H6281	H628	0.153230	0.963340	0.455360
H6291	H629	0.807930	0.846430	0.453130
H6301	H630	0.961500	0.807930	0.953130
H6311	H631	0.846430	0.038500	0.953130
H6321	H632	0.189890	0.153230	0.955360
H6331	H633	0.268660	0.446370	0.676540
H6341	H634	0.961500	0.807930	0.546870
H6351	H635	0.846430	0.038500	0.546870
H6361	H636	0.036660	0.189890	0.044640
H6371	H637	0.177710	0.446370	0.823460
H6381	H638	0.153230	0.963340	0.044640
H6391	H639	0.810110	0.846770	0.044640
H6401	H640	0.101680	0.169710	0.016430
H6411	H641	0.130020	0.218280	0.092680
H6421	H642	0.132830	0.147610	0.088530
H6431	H643	0.016260	0.879300	0.057490
H6441	H644	0.091350	0.895310	0.027820
H6451	H645	0.063480	0.860870	0.112330
H6461	H646	0.140010	0.028510	0.535650
H6471	H647	0.211720	0.100110	0.547040
H6481	H648	0.183870	0.042460	0.614950
H6491	H649	0.130020	0.218280	0.407320
H6501	H650	0.101680	0.169710	0.483570
H6511	H651	0.132830	0.147610	0.411470
H6521	H652	0.211720	0.100110	0.952960
H6531	H653	0.140010	0.028510	0.964350
H6541	H654	0.183870	0.042460	0.885050
H6551	H655	0.902210	0.122310	0.574270
H6561	H656	0.977290	0.138320	0.603940
H6571	H657	0.949420	0.103890	0.519430
H6581	H658	0.977290	0.138320	0.896060
H6591	H659	0.902210	0.122310	0.925730
H6601	H660	0.949420	0.103890	0.980570
H6611	H661	0.091350	0.895310	0.472180
H6621	H662	0.016260	0.879300	0.442510
H6631	H663	0.063480	0.860870	0.387670
H6641	H664	0.858660	0.812650	0.615330
H6651	H665	0.887000	0.861210	0.539090
H6661	H666	0.889810	0.790540	0.543230
H6671	H667	0.854660	0.986060	0.415280
H6681	H668	0.782940	0.914460	0.403890
H6691	H669	0.826800	0.928410	0.483190
H6701	H670	0.887000	0.861210	0.960910
H6711	H671	0.858660	0.812650	0.884670
H6721	H672	0.889810	0.790540	0.956770
