data_YUPSIM_freeONLY_PM
_symmetry_space_group_name_H-M	'P1'
_cell_length_a	8.578500
_cell_length_b	13.823600
_cell_length_c	31.932200
_cell_angle_alpha	90.000000
_cell_angle_beta	90.000000
_cell_angle_gamma	90.000000
_symmetry_Int_Tables_number 1

loop_
_symmetry_equiv_pos_as_xyz
'x,y,z'

loop_
_atom_site_label
_atom_site_type_symbol
_atom_site_fract_x
_atom_site_fract_y
_atom_site_fract_z
Pr11	Pr1	0.921040	0.798730	0.103430
Pr21	Pr2	0.578960	0.298730	0.896570
Pr31	Pr3	0.078960	0.201270	0.603430
Pr41	Pr4	0.421040	0.701270	0.396570
Pr51	Pr5	0.078960	0.201270	0.896570
Pr61	Pr6	0.421040	0.701270	0.103430
Pr71	Pr7	0.921040	0.798730	0.396570
Pr81	Pr8	0.578960	0.298730	0.603430
H11	H1	0.887100	0.594800	0.187600
H21	H2	0.466700	0.980100	0.109900
H31	H3	0.590300	0.185500	0.028200
H41	H4	0.212100	0.024800	0.005900
H51	H5	0.679400	0.517200	0.226700
H61	H6	0.657100	0.174600	0.110600
H71	H7	0.690500	0.073700	0.119800
H81	H8	0.764100	0.120600	0.084200
H91	H9	0.612900	0.094800	0.812400
H101	H10	0.033300	0.480100	0.890100
H111	H11	0.909700	0.685500	0.971800
H121	H12	0.287900	0.524800	0.994100
H131	H13	0.820600	0.017200	0.773300
H141	H14	0.842900	0.674600	0.889400
H151	H15	0.809500	0.573700	0.880200
H161	H16	0.735900	0.620600	0.915800
H171	H17	0.112900	0.405200	0.687600
H181	H18	0.533300	0.019900	0.609900
H191	H19	0.409700	0.814500	0.528200
H201	H20	0.787900	0.975200	0.505900
H211	H21	0.320600	0.482800	0.726700
H221	H22	0.342900	0.825400	0.610600
H231	H23	0.309500	0.926300	0.619800
H241	H24	0.235900	0.879400	0.584200
H251	H25	0.387100	0.905200	0.312400
H261	H26	0.966700	0.519900	0.390100
H271	H27	0.090300	0.314500	0.471800
H281	H28	0.712100	0.475200	0.494100
H291	H29	0.179400	0.982800	0.273300
H301	H30	0.157100	0.325400	0.389400
H311	H31	0.190500	0.426300	0.380200
H321	H32	0.264100	0.379400	0.415800
H331	H33	0.112900	0.405200	0.812400
H341	H34	0.533300	0.019900	0.890100
H351	H35	0.409700	0.814500	0.971800
H361	H36	0.787900	0.975200	0.994100
H371	H37	0.320600	0.482800	0.773300
H381	H38	0.342900	0.825400	0.889400
H391	H39	0.309500	0.926300	0.880200
H401	H40	0.235900	0.879400	0.915800
H411	H41	0.387100	0.905200	0.187600
H421	H42	0.966700	0.519900	0.109900
H431	H43	0.090300	0.314500	0.028200
H441	H44	0.712100	0.475200	0.005900
H451	H45	0.179400	0.982800	0.226700
H461	H46	0.157100	0.325400	0.110600
H471	H47	0.190500	0.426300	0.119800
H481	H48	0.264100	0.379400	0.084200
H491	H49	0.887100	0.594800	0.312400
H501	H50	0.466700	0.980100	0.390100
H511	H51	0.590300	0.185500	0.471800
H521	H52	0.212100	0.024800	0.494100
H531	H53	0.679400	0.517200	0.273300
H541	H54	0.657100	0.174600	0.389400
H551	H55	0.690500	0.073700	0.380200
H561	H56	0.764100	0.120600	0.415800
H571	H57	0.612900	0.094800	0.687600
H581	H58	0.033300	0.480100	0.609900
H591	H59	0.909700	0.685500	0.528200
H601	H60	0.287900	0.524800	0.505900
H611	H61	0.820600	0.017200	0.726700
H621	H62	0.842900	0.674600	0.610600
H631	H63	0.809500	0.573700	0.619800
H641	H64	0.735900	0.620600	0.584200
H651	H65	0.250300	0.708400	0.250000
H661	H66	0.249700	0.208400	0.750000
H671	H67	0.749700	0.291600	0.750000
H681	H68	0.750300	0.791600	0.250000
C11	C1	0.158300	0.685400	0.172500
C21	C2	0.080400	0.657800	0.212590
C31	C3	0.936300	0.610200	0.212700
C41	C4	0.207500	0.915700	0.073280
C51	C5	0.321500	0.991200	0.059920
C61	C6	0.448300	0.013600	0.085190
C71	C7	0.545800	0.087000	0.072480
C81	C8	0.523000	0.135800	0.035850
C91	C9	0.398400	0.110900	0.009950
C101	C10	0.297600	0.040200	0.022530
C111	C11	0.375100	0.161800	0.969350
C121	C12	0.341700	0.185400	0.827500
C131	C13	0.419600	0.157800	0.787410
C141	C14	0.563700	0.110200	0.787300
C151	C15	0.292500	0.415700	0.926720
C161	C16	0.178500	0.491200	0.940080
C171	C17	0.051700	0.513600	0.914810
C181	C18	0.954200	0.587000	0.927520
C191	C19	0.977000	0.635800	0.964150
C201	C20	0.101600	0.610900	0.990050
C211	C21	0.202400	0.540200	0.977470
C221	C22	0.124900	0.661800	0.030650
C231	C23	0.841700	0.314600	0.672500
C241	C24	0.919600	0.342200	0.712590
C251	C25	0.063700	0.389800	0.712700
C261	C26	0.792500	0.084300	0.573280
C271	C27	0.678500	0.008800	0.559920
C281	C28	0.551700	0.986400	0.585190
C291	C29	0.454200	0.913000	0.572480
C301	C30	0.477000	0.864200	0.535850
C311	C31	0.601600	0.889100	0.509950
C321	C32	0.702400	0.959800	0.522530
C331	C33	0.624900	0.838200	0.469350
C341	C34	0.658300	0.814600	0.327500
C351	C35	0.580400	0.842200	0.287410
C361	C36	0.436300	0.889800	0.287300
C371	C37	0.707500	0.584300	0.426720
C381	C38	0.821500	0.508800	0.440080
C391	C39	0.948300	0.486400	0.414810
C401	C40	0.045800	0.413000	0.427520
C411	C41	0.023000	0.364200	0.464150
C421	C42	0.898400	0.389100	0.490050
C431	C43	0.797600	0.459800	0.477470
C441	C44	0.875100	0.338200	0.530650
C451	C45	0.841700	0.314600	0.827500
C461	C46	0.919600	0.342200	0.787410
C471	C47	0.063700	0.389800	0.787300
C481	C48	0.792500	0.084300	0.926720
C491	C49	0.678500	0.008800	0.940080
C501	C50	0.551700	0.986400	0.914810
C511	C51	0.454200	0.913000	0.927520
C521	C52	0.477000	0.864200	0.964150
C531	C53	0.601600	0.889100	0.990050
C541	C54	0.702400	0.959800	0.977470
C551	C55	0.624900	0.838200	0.030650
C561	C56	0.658300	0.814600	0.172500
C571	C57	0.580400	0.842200	0.212590
C581	C58	0.436300	0.889800	0.212700
C591	C59	0.707500	0.584300	0.073280
C601	C60	0.821500	0.508800	0.059920
C611	C61	0.948300	0.486400	0.085190
C621	C62	0.045800	0.413000	0.072480
C631	C63	0.023000	0.364200	0.035850
C641	C64	0.898400	0.389100	0.009950
C651	C65	0.797600	0.459800	0.022530
C661	C66	0.875100	0.338200	0.969350
C671	C67	0.158300	0.685400	0.327500
C681	C68	0.080400	0.657800	0.287410
C691	C69	0.936300	0.610200	0.287300
C701	C70	0.207500	0.915700	0.426720
C711	C71	0.321500	0.991200	0.440080
C721	C72	0.448300	0.013600	0.414810
C731	C73	0.545800	0.087000	0.427520
C741	C74	0.523000	0.135800	0.464150
C751	C75	0.398400	0.110900	0.490050
C761	C76	0.297600	0.040200	0.477470
C771	C77	0.375100	0.161800	0.530650
C781	C78	0.341700	0.185400	0.672500
C791	C79	0.419600	0.157800	0.712590
C801	C80	0.563700	0.110200	0.712700
C811	C81	0.292500	0.415700	0.573280
C821	C82	0.178500	0.491200	0.559920
C831	C83	0.051700	0.513600	0.585190
C841	C84	0.954200	0.587000	0.572480
C851	C85	0.977000	0.635800	0.535850
C861	C86	0.101600	0.610900	0.509950
C871	C87	0.202400	0.540200	0.522530
C881	C88	0.124900	0.661800	0.469350
C891	C89	0.152500	0.679300	0.250000
C901	C90	0.869000	0.586800	0.250000
C911	C91	0.347500	0.179300	0.750000
C921	C92	0.631000	0.086800	0.750000
C931	C93	0.847500	0.320700	0.750000
C941	C94	0.131000	0.413200	0.750000
C951	C95	0.652500	0.820700	0.250000
C961	C96	0.369000	0.913200	0.250000
N11	N1	0.958300	0.972600	0.161800
N21	N2	0.677500	0.117000	0.099480
N31	N3	0.541700	0.472600	0.838200
N41	N4	0.822500	0.617000	0.900520
N51	N5	0.041700	0.027400	0.661800
N61	N6	0.322500	0.883000	0.599480
N71	N7	0.458300	0.527400	0.338200
N81	N8	0.177500	0.383000	0.400520
N91	N9	0.041700	0.027400	0.838200
N101	N10	0.322500	0.883000	0.900520
N111	N11	0.458300	0.527400	0.161800
N121	N12	0.177500	0.383000	0.099480
N131	N13	0.958300	0.972600	0.338200
N141	N14	0.677500	0.117000	0.400520
N151	N15	0.541700	0.472600	0.661800
N161	N16	0.822500	0.617000	0.599480
N171	N17	0.722200	0.533500	0.250000
N181	N18	0.777800	0.033500	0.750000
N191	N19	0.277800	0.466500	0.750000
N201	N20	0.222200	0.966500	0.250000
O11	O1	0.247400	0.842900	0.095050
O21	O2	0.065800	0.928700	0.063510
O31	O3	0.080200	0.680000	0.138460
O41	O4	0.296500	0.711600	0.173480
O51	O5	0.480000	0.221400	0.957990
O61	O6	0.257100	0.140900	0.948060
O71	O7	0.853400	0.968300	0.134370
O81	O8	0.059900	0.909700	0.163700
O91	O9	0.953700	0.038600	0.188700
O101	O10	0.252600	0.342900	0.904950
O111	O11	0.434200	0.428700	0.936490
O121	O12	0.419800	0.180000	0.861540
O131	O13	0.203500	0.211600	0.826520
O141	O14	0.020000	0.721400	0.042010
O151	O15	0.242900	0.640900	0.051940
O161	O16	0.646600	0.468300	0.865630
O171	O17	0.440100	0.409700	0.836300
O181	O18	0.546300	0.538600	0.811300
O191	O19	0.752600	0.157100	0.595050
O201	O20	0.934200	0.071300	0.563510
O211	O21	0.919800	0.320000	0.638460
O221	O22	0.703500	0.288400	0.673480
O231	O23	0.520000	0.778600	0.457990
O241	O24	0.742900	0.859100	0.448060
O251	O25	0.146600	0.031700	0.634370
O261	O26	0.940100	0.090300	0.663700
O271	O27	0.046300	0.961400	0.688700
O281	O28	0.747400	0.657100	0.404950
O291	O29	0.565800	0.571300	0.436490
O301	O30	0.580200	0.820000	0.361540
O311	O31	0.796500	0.788400	0.326520
O321	O32	0.980000	0.278600	0.542010
O331	O33	0.757100	0.359100	0.551940
O341	O34	0.353400	0.531700	0.365630
O351	O35	0.559900	0.590300	0.336300
O361	O36	0.453700	0.461400	0.311300
O371	O37	0.752600	0.157100	0.904950
O381	O38	0.934200	0.071300	0.936490
O391	O39	0.919800	0.320000	0.861540
O401	O40	0.703500	0.288400	0.826520
O411	O41	0.520000	0.778600	0.042010
O421	O42	0.742900	0.859100	0.051940
O431	O43	0.146600	0.031700	0.865630
O441	O44	0.940100	0.090300	0.836300
O451	O45	0.046300	0.961400	0.811300
O461	O46	0.747400	0.657100	0.095050
O471	O47	0.565800	0.571300	0.063510
O481	O48	0.580200	0.820000	0.138460
O491	O49	0.796500	0.788400	0.173480
O501	O50	0.980000	0.278600	0.957990
O511	O51	0.757100	0.359100	0.948060
O521	O52	0.353400	0.531700	0.134370
O531	O53	0.559900	0.590300	0.163700
O541	O54	0.453700	0.461400	0.188700
O551	O55	0.247400	0.842900	0.404950
O561	O56	0.065800	0.928700	0.436490
O571	O57	0.080200	0.680000	0.361540
O581	O58	0.296500	0.711600	0.326520
O591	O59	0.480000	0.221400	0.542010
O601	O60	0.257100	0.140900	0.551940
O611	O61	0.853400	0.968300	0.365630
O621	O62	0.059900	0.909700	0.336300
O631	O63	0.953700	0.038600	0.311300
O641	O64	0.252600	0.342900	0.595050
O651	O65	0.434200	0.428700	0.563510
O661	O66	0.419800	0.180000	0.638460
O671	O67	0.203500	0.211600	0.673480
O681	O68	0.020000	0.721400	0.457990
O691	O69	0.242900	0.640900	0.448060
O701	O70	0.646600	0.468300	0.634370
O711	O71	0.440100	0.409700	0.663700
O721	O72	0.546300	0.538600	0.688700
