data_YURJUR_freeONLY_PM
_symmetry_space_group_name_H-M	'P1'
_cell_length_a	17.575700
_cell_length_b	17.575700
_cell_length_c	17.575700
_cell_angle_alpha	90.929600
_cell_angle_beta	90.929600
_cell_angle_gamma	90.929600
_symmetry_Int_Tables_number 1

loop_
_symmetry_equiv_pos_as_xyz
'x,y,z'

loop_
_atom_site_label
_atom_site_type_symbol
_atom_site_fract_x
_atom_site_fract_y
_atom_site_fract_z
Ce11	Ce1	0.367050	0.367050	0.367050
Ce21	Ce2	0.632950	0.632950	0.632950
Ce31	Ce3	0.500000	0.500000	0.500000
H11	H1	0.382000	0.536200	0.232800
H21	H2	0.381100	0.573500	0.106700
H31	H3	0.610700	0.541100	0.237100
H41	H4	0.402600	0.614300	0.967300
H51	H5	0.663300	0.625600	0.916400
H61	H6	0.445600	0.636800	0.847500
H71	H7	0.232800	0.382000	0.536200
H81	H8	0.106700	0.381100	0.573500
H91	H9	0.237100	0.610700	0.541100
H101	H10	0.967300	0.402600	0.614300
H111	H11	0.916400	0.663300	0.625600
H121	H12	0.847500	0.445600	0.636800
H131	H13	0.536200	0.232800	0.382000
H141	H14	0.573500	0.106700	0.381100
H151	H15	0.541100	0.237100	0.610700
H161	H16	0.614300	0.967300	0.402600
H171	H17	0.625600	0.916400	0.663300
H181	H18	0.636800	0.847500	0.445600
H191	H19	0.618000	0.463800	0.767200
H201	H20	0.618900	0.426500	0.893300
H211	H21	0.389300	0.458900	0.762900
H221	H22	0.597400	0.385700	0.032700
H231	H23	0.336700	0.374400	0.083600
H241	H24	0.554400	0.363200	0.152500
H251	H25	0.767200	0.618000	0.463800
H261	H26	0.893300	0.618900	0.426500
H271	H27	0.762900	0.389300	0.458900
H281	H28	0.032700	0.597400	0.385700
H291	H29	0.083600	0.336700	0.374400
H301	H30	0.152500	0.554400	0.363200
H311	H31	0.463800	0.767200	0.618000
H321	H32	0.426500	0.893300	0.618900
H331	H33	0.458900	0.762900	0.389300
H341	H34	0.385700	0.032700	0.597400
H351	H35	0.374400	0.083600	0.336700
H361	H36	0.363200	0.152500	0.554400
C11	C1	0.497600	0.511400	0.328300
C21	C2	0.495300	0.534400	0.247900
C31	C3	0.427900	0.544700	0.208400
C41	C4	0.427000	0.567100	0.132900
C51	C5	0.564800	0.548400	0.211500
C61	C6	0.564100	0.573100	0.137400
C71	C7	0.496200	0.580300	0.097000
C81	C8	0.509400	0.601600	0.016300
C91	C9	0.585700	0.607400	0.999600
C101	C10	0.454400	0.615200	0.957500
C111	C11	0.611500	0.622600	0.926200
C121	C12	0.480900	0.629400	0.886500
C131	C13	0.558500	0.633100	0.869100
C141	C14	0.583100	0.643200	0.788500
C151	C15	0.328300	0.497600	0.511400
C161	C16	0.247900	0.495300	0.534400
C171	C17	0.208400	0.427900	0.544700
C181	C18	0.132900	0.427000	0.567100
C191	C19	0.211500	0.564800	0.548400
C201	C20	0.137400	0.564100	0.573100
C211	C21	0.097000	0.496200	0.580300
C221	C22	0.016300	0.509400	0.601600
C231	C23	0.999600	0.585700	0.607400
C241	C24	0.957500	0.454400	0.615200
C251	C25	0.926200	0.611500	0.622600
C261	C26	0.886500	0.480900	0.629400
C271	C27	0.869100	0.558500	0.633100
C281	C28	0.788500	0.583100	0.643200
C291	C29	0.511400	0.328300	0.497600
C301	C30	0.534400	0.247900	0.495300
C311	C31	0.544700	0.208400	0.427900
C321	C32	0.567100	0.132900	0.427000
C331	C33	0.548400	0.211500	0.564800
C341	C34	0.573100	0.137400	0.564100
C351	C35	0.580300	0.097000	0.496200
C361	C36	0.601600	0.016300	0.509400
C371	C37	0.607400	0.999600	0.585700
C381	C38	0.615200	0.957500	0.454400
C391	C39	0.622600	0.926200	0.611500
C401	C40	0.629400	0.886500	0.480900
C411	C41	0.633100	0.869100	0.558500
C421	C42	0.643200	0.788500	0.583100
C431	C43	0.502400	0.488600	0.671700
C441	C44	0.504700	0.465600	0.752100
C451	C45	0.572100	0.455300	0.791600
C461	C46	0.573000	0.432900	0.867100
C471	C47	0.435200	0.451600	0.788500
C481	C48	0.435900	0.426900	0.862600
C491	C49	0.503800	0.419700	0.903000
C501	C50	0.490600	0.398400	0.983700
C511	C51	0.414300	0.392600	0.000400
C521	C52	0.545600	0.384800	0.042500
C531	C53	0.388500	0.377400	0.073800
C541	C54	0.519100	0.370600	0.113500
C551	C55	0.441500	0.366900	0.130900
C561	C56	0.416900	0.356800	0.211500
C571	C57	0.671700	0.502400	0.488600
C581	C58	0.752100	0.504700	0.465600
C591	C59	0.791600	0.572100	0.455300
C601	C60	0.867100	0.573000	0.432900
C611	C61	0.788500	0.435200	0.451600
C621	C62	0.862600	0.435900	0.426900
C631	C63	0.903000	0.503800	0.419700
C641	C64	0.983700	0.490600	0.398400
C651	C65	0.000400	0.414300	0.392600
C661	C66	0.042500	0.545600	0.384800
C671	C67	0.073800	0.388500	0.377400
C681	C68	0.113500	0.519100	0.370600
C691	C69	0.130900	0.441500	0.366900
C701	C70	0.211500	0.416900	0.356800
C711	C71	0.488600	0.671700	0.502400
C721	C72	0.465600	0.752100	0.504700
C731	C73	0.455300	0.791600	0.572100
C741	C74	0.432900	0.867100	0.573000
C751	C75	0.451600	0.788500	0.435200
C761	C76	0.426900	0.862600	0.435900
C771	C77	0.419700	0.903000	0.503800
C781	C78	0.398400	0.983700	0.490600
C791	C79	0.392600	0.000400	0.414300
C801	C80	0.384800	0.042500	0.545600
C811	C81	0.377400	0.073800	0.388500
C821	C82	0.370600	0.113500	0.519100
C831	C83	0.366900	0.130900	0.441500
C841	C84	0.356800	0.211500	0.416900
S11	S1	0.643460	0.590210	0.079900
S21	S2	0.079900	0.643460	0.590210
S31	S3	0.590210	0.079900	0.643460
S41	S4	0.356540	0.409790	0.920100
S51	S5	0.920100	0.356540	0.409790
S61	S6	0.409790	0.920100	0.356540
O11	O1	0.559010	0.510210	0.364110
O21	O2	0.434430	0.491130	0.359930
O31	O3	0.653380	0.637580	0.775680
O41	O4	0.535220	0.654220	0.736920
O51	O5	0.683800	0.659000	0.107000
O61	O6	0.686300	0.521100	0.068400
O71	O7	0.364110	0.559010	0.510210
O81	O8	0.359930	0.434430	0.491130
O91	O9	0.775680	0.653380	0.637580
O101	O10	0.736920	0.535220	0.654220
O111	O11	0.107000	0.683800	0.659000
O121	O12	0.068400	0.686300	0.521100
O131	O13	0.510210	0.364110	0.559010
O141	O14	0.491130	0.359930	0.434430
O151	O15	0.637580	0.775680	0.653380
O161	O16	0.654220	0.736920	0.535220
O171	O17	0.659000	0.107000	0.683800
O181	O18	0.521100	0.068400	0.686300
O191	O19	0.440990	0.489790	0.635890
O201	O20	0.565570	0.508870	0.640070
O211	O21	0.346620	0.362420	0.224320
O221	O22	0.464780	0.345780	0.263080
O231	O23	0.316200	0.341000	0.893000
O241	O24	0.313700	0.478900	0.931600
O251	O25	0.635890	0.440990	0.489790
O261	O26	0.640070	0.565570	0.508870
O271	O27	0.224320	0.346620	0.362420
O281	O28	0.263080	0.464780	0.345780
O291	O29	0.893000	0.316200	0.341000
O301	O30	0.931600	0.313700	0.478900
O311	O31	0.489790	0.635890	0.440990
O321	O32	0.508870	0.640070	0.565570
O331	O33	0.362420	0.224320	0.346620
O341	O34	0.345780	0.263080	0.464780
O351	O35	0.341000	0.893000	0.316200
O361	O36	0.478900	0.931600	0.313700
