data_YURKAY_freeONLY_PM
_symmetry_space_group_name_H-M	'P1'
_cell_length_a	12.499600
_cell_length_b	17.700800
_cell_length_c	22.386900
_cell_angle_alpha	79.657000
_cell_angle_beta	80.452000
_cell_angle_gamma	81.326000
_symmetry_Int_Tables_number 1

loop_
_symmetry_equiv_pos_as_xyz
'x,y,z'

loop_
_atom_site_label
_atom_site_type_symbol
_atom_site_fract_x
_atom_site_fract_y
_atom_site_fract_z
Dy11	Dy1	0.653370	0.029210	0.997920
Dy21	Dy2	0.871180	0.429900	0.518050
Dy31	Dy3	0.346630	0.970790	0.002080
Dy41	Dy4	0.128820	0.570100	0.481950
H11	H1	0.753600	0.007300	0.201700
H21	H2	0.711600	0.230200	0.119500
H31	H3	0.777400	0.045800	0.291500
H41	H4	0.799300	0.108600	0.381000
H51	H5	0.758000	0.378500	0.332100
H61	H6	0.820600	0.184800	0.451500
H71	H7	0.690700	0.885900	0.125300
H81	H8	0.454200	0.746600	0.151100
H91	H9	0.530300	0.666700	0.232600
H101	H10	0.635500	0.596600	0.317600
H111	H11	0.747400	0.551400	0.395900
H121	H12	0.931100	0.726100	0.328500
H131	H13	0.955200	0.695400	0.636600
H141	H14	0.714700	0.560400	0.663000
H151	H15	0.618700	0.625400	0.742300
H161	H16	0.542000	0.711000	0.822000
H171	H17	0.768000	0.894700	0.830200
H181	H18	0.491600	0.799300	0.889000
H191	H19	0.703500	0.599200	0.525100
H201	H20	0.816800	0.885600	0.932200
H211	H21	0.089900	0.994400	0.868700
H221	H22	0.027900	0.054500	0.910200
H231	H23	0.000500	0.969000	0.923600
H241	H24	0.442900	0.662100	0.598800
H251	H25	0.562200	0.668200	0.609000
H261	H26	0.525400	0.698200	0.544400
H271	H27	0.408300	0.551400	0.602600
H281	H28	0.463200	0.501400	0.552000
H291	H29	0.504000	0.485500	0.616100
H301	H30	0.042000	0.002800	0.778700
H311	H31	0.924900	0.981600	0.777900
H321	H32	0.949100	0.067700	0.758500
H331	H33	0.051700	0.757300	0.937400
H341	H34	0.937000	0.757300	0.917800
H351	H35	0.005900	0.825600	0.889700
H361	H36	0.058700	0.784300	0.025300
H371	H37	0.016300	0.870600	0.032700
H381	H38	0.947200	0.804400	0.066400
H391	H39	0.246400	0.992700	0.798300
H401	H40	0.288400	0.769800	0.880500
H411	H41	0.222600	0.954200	0.708500
H421	H42	0.200700	0.891400	0.619000
H431	H43	0.242000	0.621500	0.667900
H441	H44	0.179400	0.815200	0.548500
H451	H45	0.309300	0.114100	0.874700
H461	H46	0.545800	0.253400	0.848900
H471	H47	0.469700	0.333300	0.767400
H481	H48	0.364500	0.403400	0.682400
H491	H49	0.252600	0.448600	0.604100
H501	H50	0.068900	0.273900	0.671500
H511	H51	0.044800	0.304600	0.363400
H521	H52	0.285300	0.439600	0.337000
H531	H53	0.381300	0.374600	0.257700
H541	H54	0.458000	0.289000	0.178000
H551	H55	0.232000	0.105300	0.169800
H561	H56	0.508400	0.200700	0.111000
H571	H57	0.296500	0.400800	0.474900
H581	H58	0.183200	0.114400	0.067800
H591	H59	0.910100	0.005600	0.131300
H601	H60	0.972100	0.945500	0.089800
H611	H61	0.999500	0.031000	0.076400
H621	H62	0.557100	0.337900	0.401200
H631	H63	0.437800	0.331800	0.391000
H641	H64	0.474600	0.301800	0.455600
H651	H65	0.591700	0.448600	0.397400
H661	H66	0.536800	0.498600	0.448000
H671	H67	0.496000	0.514500	0.383900
H681	H68	0.958000	0.997200	0.221300
H691	H69	0.075100	0.018400	0.222100
H701	H70	0.050900	0.932300	0.241500
H711	H71	0.948300	0.242700	0.062600
H721	H72	0.063000	0.242700	0.082200
H731	H73	0.994100	0.174400	0.110300
H741	H74	0.941300	0.215700	0.974700
H751	H75	0.983700	0.129400	0.967300
H761	H76	0.052800	0.195600	0.933600
C11	C1	0.724100	0.084700	0.092200
C21	C2	0.734400	0.114700	0.150800
C31	C3	0.751000	0.059600	0.203400
C41	C4	0.724800	0.193300	0.153500
C51	C5	0.735600	0.214500	0.207800
C61	C6	0.763500	0.082500	0.257400
C71	C7	0.754900	0.161300	0.260100
C81	C8	0.767800	0.197700	0.313200
C91	C9	0.754500	0.278300	0.300100
C101	C10	0.791700	0.162300	0.370700
C111	C11	0.766900	0.324800	0.342000
C121	C12	0.804300	0.208200	0.412900
C131	C13	0.792800	0.288800	0.398300
C141	C14	0.808500	0.338700	0.444900
C151	C15	0.503300	0.875900	0.081300
C161	C16	0.563300	0.824000	0.129300
C171	C17	0.658700	0.842500	0.145500
C181	C18	0.517400	0.758500	0.162200
C191	C19	0.562300	0.709700	0.211300
C201	C20	0.703400	0.792600	0.193600
C211	C21	0.657300	0.729500	0.226100
C221	C22	0.718600	0.687600	0.278500
C231	C23	0.809900	0.724600	0.281900
C241	C24	0.694100	0.622000	0.320200
C251	C25	0.761900	0.594900	0.367100
C261	C26	0.873200	0.699700	0.326600
C271	C27	0.852600	0.634900	0.369700
C281	C28	0.922300	0.605400	0.418000
C291	C29	0.904100	0.576200	0.591900
C301	C30	0.843900	0.619800	0.643300
C311	C31	0.889400	0.680500	0.657900
C321	C32	0.744200	0.600300	0.673900
C331	C33	0.832200	0.717800	0.705700
C341	C34	0.685400	0.639500	0.721600
C351	C35	0.731100	0.700100	0.736500
C361	C36	0.684600	0.749100	0.784400
C371	C37	0.750600	0.804600	0.787800
C381	C38	0.587700	0.747600	0.822700
C391	C39	0.721600	0.859000	0.828600
C401	C40	0.557600	0.801100	0.862900
C411	C41	0.622900	0.857300	0.865500
C421	C42	0.584800	0.914500	0.910700
C431	C43	0.656800	0.561200	0.535400
C441	C44	0.832200	0.057700	0.872900
C451	C45	0.844700	0.880100	0.968900
C461	C46	0.021100	0.010600	0.891900
C471	C47	0.518000	0.659400	0.580300
C481	C48	0.475800	0.524800	0.585200
C491	C49	0.965100	0.020100	0.785600
C501	C50	0.987000	0.789300	0.925900
C511	C51	0.995000	0.822000	0.029800
C521	C52	0.275900	0.915300	0.907800
C531	C53	0.265600	0.885300	0.849200
C541	C54	0.249000	0.940400	0.796600
C551	C55	0.275200	0.806700	0.846500
C561	C56	0.264400	0.785500	0.792200
C571	C57	0.236500	0.917500	0.742600
C581	C58	0.245100	0.838700	0.739900
C591	C59	0.232200	0.802300	0.686800
C601	C60	0.245500	0.721700	0.699900
C611	C61	0.208300	0.837700	0.629300
C621	C62	0.233100	0.675200	0.658000
C631	C63	0.195700	0.791800	0.587100
C641	C64	0.207200	0.711200	0.601700
C651	C65	0.191500	0.661300	0.555100
C661	C66	0.496700	0.124100	0.918700
C671	C67	0.436700	0.176000	0.870700
C681	C68	0.341300	0.157500	0.854500
C691	C69	0.482600	0.241500	0.837800
C701	C70	0.437700	0.290300	0.788700
C711	C71	0.296600	0.207400	0.806400
C721	C72	0.342700	0.270500	0.773900
C731	C73	0.281400	0.312400	0.721500
C741	C74	0.190100	0.275400	0.718100
C751	C75	0.305900	0.378000	0.679800
C761	C76	0.238100	0.405100	0.632900
C771	C77	0.126800	0.300300	0.673400
C781	C78	0.147400	0.365100	0.630300
C791	C79	0.077700	0.394600	0.582000
C801	C80	0.095900	0.423800	0.408100
C811	C81	0.156100	0.380200	0.356700
C821	C82	0.110600	0.319500	0.342100
C831	C83	0.255800	0.399700	0.326100
C841	C84	0.167800	0.282200	0.294300
C851	C85	0.314600	0.360500	0.278400
C861	C86	0.268900	0.299900	0.263500
C871	C87	0.315400	0.250900	0.215600
C881	C88	0.249400	0.195400	0.212200
C891	C89	0.412300	0.252400	0.177300
C901	C90	0.278400	0.141000	0.171400
C911	C91	0.442400	0.198900	0.137100
C921	C92	0.377100	0.142700	0.134500
C931	C93	0.415200	0.085500	0.089300
C941	C94	0.343200	0.438800	0.464600
C951	C95	0.167800	0.942300	0.127100
C961	C96	0.155300	0.119900	0.031100
C971	C97	0.978900	0.989400	0.108100
C981	C98	0.482000	0.340600	0.419700
C991	C99	0.524200	0.475200	0.414800
C1001	C100	0.034900	0.979900	0.214400
C1011	C101	0.013000	0.210700	0.074100
C1021	C102	0.005000	0.178000	0.970200
S11	S1	0.720000	0.310600	0.224410
S21	S2	0.820700	0.806400	0.224000
S31	S3	0.873700	0.795200	0.734800
S41	S4	0.280000	0.689400	0.775590
S51	S5	0.179300	0.193600	0.776000
S61	S6	0.126300	0.204800	0.265200
N11	N1	0.933400	0.033000	0.849200
N21	N2	0.555300	0.580200	0.562300
N31	N3	0.935900	0.830500	0.975000
N41	N4	0.066600	0.967000	0.150800
N51	N5	0.444700	0.419800	0.437700
N61	N6	0.064100	0.169500	0.025000
O11	O1	0.712900	0.014700	0.096000
O21	O2	0.723100	0.133300	0.041000
O31	O3	0.841200	0.303900	0.494900
O41	O4	0.793100	0.410000	0.430100
O51	O5	0.799600	0.355700	0.185000
O61	O6	0.605800	0.344600	0.227600
O71	O7	0.550400	0.932600	0.050600
O81	O8	0.411900	0.863900	0.073200
O91	O9	0.903300	0.545000	0.456600
O101	O10	0.001600	0.642300	0.418900
O111	O11	0.799900	0.874700	0.250500
O121	O12	0.920900	0.796100	0.181100
O131	O13	0.980600	0.605000	0.558000
O141	O14	0.867900	0.513700	0.589700
O151	O15	0.648800	0.961100	0.915300
O161	O16	0.879200	0.863100	0.689000
O171	O17	0.966300	0.767500	0.767800
O181	O18	0.490600	0.907800	0.941000
O191	O19	0.806400	0.064100	0.927700
O201	O20	0.794800	0.918800	0.007100
O211	O21	0.690800	0.498600	0.523800
O221	O22	0.765200	0.366300	0.608800
O231	O23	0.287100	0.985300	0.904000
O241	O24	0.276900	0.866700	0.959000
O251	O25	0.158800	0.696100	0.505100
O261	O26	0.206900	0.590000	0.569900
O271	O27	0.200400	0.644300	0.815000
O281	O28	0.394200	0.655400	0.772400
O291	O29	0.449600	0.067400	0.949400
O301	O30	0.588100	0.136100	0.926800
O311	O31	0.096700	0.455000	0.543400
O321	O32	0.998400	0.357700	0.581100
O331	O33	0.200100	0.125300	0.749500
O341	O34	0.079100	0.203900	0.818900
O351	O35	0.019400	0.395000	0.442000
O361	O36	0.132100	0.486300	0.410300
O371	O37	0.351200	0.038900	0.084700
O381	O38	0.120800	0.136900	0.311000
O391	O39	0.033700	0.232500	0.232200
O401	O40	0.509400	0.092200	0.059000
O411	O41	0.193600	0.935900	0.072300
O421	O42	0.205200	0.081200	0.992900
O431	O43	0.309200	0.501400	0.476200
O441	O44	0.234800	0.633700	0.391200
