data_YURKIG_freeONLY_PM
_symmetry_space_group_name_H-M	'P1'
_cell_length_a	14.935100
_cell_length_b	19.033200
_cell_length_c	30.341100
_cell_angle_alpha	96.823900
_cell_angle_beta	90.000000
_cell_angle_gamma	113.100000
_symmetry_Int_Tables_number 1

loop_
_symmetry_equiv_pos_as_xyz
'x,y,z'

loop_
_atom_site_label
_atom_site_type_symbol
_atom_site_fract_x
_atom_site_fract_y
_atom_site_fract_z
Pr11	Pr1	0.375760	0.829610	0.158350
Pr21	Pr2	0.378480	0.586420	0.644500
Pr31	Pr3	0.453850	0.829610	0.658350
Pr41	Pr4	0.207940	0.586420	0.144500
H11	H1	0.368200	0.068200	0.236400
H21	H2	0.237100	0.335800	0.103900
H31	H3	0.962500	0.626400	0.145700
H41	H4	0.329200	0.058400	0.103300
H51	H5	0.302600	0.298600	0.248400
H61	H6	0.339200	0.179600	0.248300
H71	H7	0.236700	0.599800	0.514600
H81	H8	0.396600	0.810600	0.311400
H91	H9	0.455100	0.805600	0.505400
H101	H10	0.264700	0.402400	0.236800
H111	H11	0.483100	0.925000	0.259000
H121	H12	0.458800	0.340800	0.514800
H131	H13	0.436200	0.329400	0.564500
H141	H14	0.543100	0.352200	0.549200
H151	H15	0.179900	0.592600	0.442400
H161	H16	0.541500	0.575000	0.138500
H171	H17	0.162300	0.610200	0.286800
H181	H18	0.153700	0.596200	0.361800
H191	H19	0.578500	0.799600	0.155100
H201	H20	0.516900	0.961400	0.082300
H211	H21	0.572400	0.521600	0.520900
H221	H22	0.624400	0.466000	0.527300
H231	H23	0.624100	0.527000	0.566800
H241	H24	0.746000	0.838200	0.156100
H251	H25	0.446200	0.506000	0.729200
H261	H26	0.075800	0.859400	0.162500
H271	H27	0.663100	0.952000	0.339600
H281	H28	0.612200	0.003800	0.324300
H291	H29	0.549300	0.923000	0.338800
H301	H30	0.921400	0.859400	0.161800
H311	H31	0.651300	0.846400	0.014400
H321	H32	0.661200	0.851000	0.066200
H331	H33	0.562500	0.797200	0.040400
H341	H34	0.376900	0.422400	0.581100
H351	H35	0.624800	0.408400	0.695200
H361	H36	0.639800	0.483200	0.674100
H371	H37	0.550200	0.406400	0.658300
H381	H38	0.646100	0.947600	0.990300
H391	H39	0.553300	0.964800	0.000700
H401	H40	0.652300	0.014000	0.027700
H411	H41	0.719600	0.896200	0.290700
H421	H42	0.642400	0.830800	0.257700
H431	H43	0.707700	0.909400	0.241400
H441	H44	0.566000	0.401800	0.763300
H451	H45	0.458600	0.396600	0.763800
H461	H46	0.544900	0.473200	0.783500
H471	H47	0.700000	0.068200	0.736400
H481	H48	0.098700	0.335800	0.603900
H491	H49	0.663900	0.626400	0.645700
H501	H50	0.729200	0.058400	0.603300
H511	H51	0.996000	0.298600	0.748400
H521	H52	0.840400	0.179600	0.748300
H531	H53	0.363100	0.599800	0.014600
H541	H54	0.414000	0.810600	0.811400
H551	H55	0.350500	0.805600	0.005400
H561	H56	0.137700	0.402400	0.736800
H571	H57	0.441900	0.925000	0.759000
H581	H58	0.882000	0.340800	0.014800
H591	H59	0.893200	0.329400	0.064500
H601	H60	0.809100	0.352200	0.049200
H611	H61	0.412700	0.592600	0.942400
H621	H62	0.033500	0.575000	0.638500
H631	H63	0.447900	0.610200	0.786800
H641	H64	0.442500	0.596200	0.861800
H651	H65	0.221100	0.799600	0.655100
H661	H66	0.444500	0.961400	0.582300
H671	H67	0.949200	0.521600	0.020900
H681	H68	0.841600	0.466000	0.027300
H691	H69	0.902900	0.527000	0.066800
H701	H70	0.092200	0.838200	0.656100
H711	H71	0.059800	0.506000	0.229200
H721	H72	0.783600	0.859400	0.662500
H731	H73	0.288900	0.952000	0.839600
H741	H74	0.391600	0.003800	0.824300
H751	H75	0.373700	0.923000	0.838800
H761	H76	0.938000	0.859400	0.661800
H771	H77	0.195100	0.846400	0.514400
H781	H78	0.189800	0.851000	0.566200
H791	H79	0.234700	0.797200	0.540400
H801	H80	0.045500	0.422400	0.081100
H811	H81	0.783600	0.408400	0.195200
H821	H82	0.843400	0.483200	0.174100
H831	H83	0.856200	0.406400	0.158300
H841	H84	0.301500	0.947600	0.490300
H851	H85	0.411500	0.964800	0.500700
H861	H86	0.361700	0.014000	0.527700
H871	H87	0.176600	0.896200	0.790700
H881	H88	0.188400	0.830800	0.757700
H891	H89	0.201700	0.909400	0.741400
H901	H90	0.835800	0.401800	0.263300
H911	H91	0.938000	0.396600	0.263800
H921	H92	0.928300	0.473200	0.283500
C11	C1	0.354260	0.088720	0.212210
C21	C2	0.368970	0.978940	0.162370
C31	C3	0.250620	0.329040	0.132660
C41	C4	0.275140	0.692480	0.381050
C51	C5	0.289600	0.690800	0.429140
C61	C6	0.315830	0.186060	0.183160
C71	C7	0.955220	0.673040	0.148820
C81	C8	0.351220	0.051440	0.169050
C91	C9	0.542390	0.682980	0.147950
C101	C10	0.331000	0.082000	0.132130
C111	C11	0.352560	0.701920	0.517200
C121	C12	0.279880	0.711360	0.291390
C131	C13	0.281080	0.716960	0.242400
C141	C14	0.219710	0.446020	0.162730
C151	C15	0.388120	0.701840	0.563150
C161	C16	0.290110	0.306220	0.219720
C171	C17	0.314010	0.148620	0.140400
C181	C18	0.138340	0.747680	0.152640
C191	C19	0.035360	0.742120	0.153540
C201	C20	0.336840	0.155480	0.219530
C211	C21	0.269880	0.638960	0.497750
C221	C22	0.349270	0.767140	0.320970
C231	C23	0.246500	0.379600	0.169500
C241	C24	0.371110	0.753620	0.448480
C251	C25	0.862530	0.675060	0.148820
C261	C26	0.682680	0.653560	0.144750
C271	C27	0.434670	0.660260	0.149090
C281	C28	0.345760	0.755920	0.365320
C291	C29	0.402720	0.761840	0.492730
C301	C30	0.266880	0.368160	0.212660
C311	C31	0.530970	0.907740	0.249480
C321	C32	0.483200	0.358600	0.545000
C331	C33	0.236310	0.633420	0.454310
C341	C34	0.294600	0.255800	0.183440
C351	C35	0.275270	0.268740	0.140610
C361	C36	0.581100	0.627200	0.142900
C371	C37	0.208240	0.647480	0.307090
C381	C38	0.744690	0.731180	0.150810
C391	C39	0.203310	0.637820	0.351800
C401	C40	0.849570	0.744140	0.153310
C411	C41	0.605250	0.762700	0.152600
C421	C42	0.537070	0.920740	0.080970
C431	C43	0.587100	0.492600	0.541500
C441	C44	0.705560	0.786120	0.153600
C451	C45	0.485290	0.497380	0.707160
C461	C46	0.021740	0.812880	0.158800
C471	C47	0.606880	0.951760	0.324190
C481	C48	0.929570	0.813140	0.158500
C491	C49	0.617700	0.845200	0.041400
C501	C50	0.433870	0.460740	0.573600
C511	C51	0.592300	0.437200	0.683300
C521	C52	0.611500	0.963600	0.013400
C531	C53	0.673900	0.885600	0.266100
C541	C54	0.525400	0.429800	0.760700
C551	C55	0.734460	0.088720	0.712210
C561	C56	0.609970	0.978940	0.662370
C571	C57	0.078420	0.329040	0.632660
C581	C58	0.417340	0.692480	0.881050
C591	C59	0.401200	0.690800	0.929140
C601	C60	0.870230	0.186060	0.683160
C611	C61	0.717820	0.673040	0.648820
C621	C62	0.700220	0.051440	0.669050
C631	C63	0.140590	0.682980	0.647950
C641	C64	0.751000	0.082000	0.632130
C651	C65	0.349360	0.701920	0.017200
C661	C66	0.431480	0.711360	0.791390
C671	C67	0.435880	0.716960	0.742400
C681	C68	0.226310	0.446020	0.662730
C691	C69	0.313720	0.701840	0.063150
C701	C70	0.016110	0.306220	0.719720
C711	C71	0.834610	0.148620	0.640400
C721	C72	0.609340	0.747680	0.652640
C731	C73	0.706760	0.742120	0.653540
C741	C74	0.818640	0.155480	0.719530
C751	C75	0.369080	0.638960	0.997750
C761	C76	0.417870	0.767140	0.820970
C771	C77	0.133100	0.379600	0.669500
C781	C78	0.382510	0.753620	0.948480
C791	C79	0.812530	0.675060	0.648820
C801	C80	0.970880	0.653560	0.644750
C811	C81	0.225590	0.660260	0.649090
C821	C82	0.410160	0.755920	0.865320
C831	C83	0.359120	0.761840	0.992730
C841	C84	0.101280	0.368160	0.712660
C851	C85	0.376770	0.907740	0.749480
C861	C86	0.875400	0.358600	0.045000
C871	C87	0.397110	0.633420	0.954310
C881	C88	0.961200	0.255800	0.683440
C891	C89	0.993470	0.268740	0.640610
C901	C90	0.046100	0.627200	0.642900
C911	C91	0.439240	0.647480	0.807090
C921	C92	0.986490	0.731180	0.650810
C931	C93	0.434510	0.637820	0.851800
C941	C94	0.894570	0.744140	0.653310
C951	C95	0.157450	0.762700	0.652600
C961	C96	0.383670	0.920740	0.580970
C971	C97	0.905500	0.492600	0.041500
C981	C98	0.080560	0.786120	0.653600
C991	C99	0.012090	0.497380	0.207160
C1001	C100	0.791140	0.812880	0.658800
C1011	C101	0.344880	0.951760	0.824190
C1021	C102	0.883570	0.813140	0.658500
C1031	C103	0.227500	0.845200	0.541400
C1041	C104	0.026870	0.460740	0.073600
C1051	C105	0.844900	0.437200	0.183300
C1061	C106	0.352100	0.963600	0.513400
C1071	C107	0.211700	0.885600	0.766100
C1081	C108	0.904400	0.429800	0.260700
S11	S1	0.283650	0.196780	0.099910
S21	S2	0.749280	0.594760	0.144110
S31	S3	0.431220	0.814780	0.408730
S41	S4	0.913130	0.196780	0.599910
S51	S5	0.845480	0.594760	0.644110
S61	S6	0.383560	0.814780	0.908730
N11	N1	0.584970	0.908140	0.046560
N21	N2	0.600710	0.916220	0.278840
N31	N3	0.500700	0.439400	0.555100
N41	N4	0.535680	0.457160	0.716800
N51	N5	0.323170	0.908140	0.546560
N61	N6	0.315510	0.916220	0.778840
N71	N7	0.938700	0.439400	0.055100
N81	N8	0.921480	0.457160	0.216800
O11	O1	0.393600	0.956880	0.196630
O21	O2	0.329120	0.781240	0.229970
O31	O3	0.524120	0.878300	0.209930
O41	O4	0.446280	0.765160	0.583720
O51	O5	0.357390	0.637380	0.577170
O61	O6	0.358170	0.941900	0.124240
O71	O7	0.198690	0.452760	0.123140
O81	O8	0.233760	0.655120	0.217630
O91	O9	0.401530	0.712380	0.154600
O101	O10	0.220330	0.492260	0.195430
O111	O11	0.362880	0.227560	0.071520
O121	O12	0.205550	0.812220	0.163040
O131	O13	0.517630	0.879460	0.112290
O141	O14	0.379480	0.590420	0.145850
O151	O15	0.148820	0.685640	0.140520
O161	O16	0.190330	0.150060	0.078540
O171	O17	0.737360	0.547320	0.102270
O181	O18	0.524790	0.813180	0.401400
O191	O19	0.427590	0.889380	0.418070
O201	O20	0.733370	0.556740	0.183120
O211	O21	0.441370	0.526340	0.581270
O221	O22	0.483500	0.524400	0.673220
O231	O23	0.563280	0.956880	0.696630
O241	O24	0.452120	0.781240	0.729970
O251	O25	0.354180	0.878300	0.709930
O261	O26	0.318880	0.765160	0.083720
O271	O27	0.279990	0.637380	0.077170
O281	O28	0.583730	0.941900	0.624240
O291	O29	0.254070	0.452760	0.623140
O301	O30	0.421360	0.655120	0.717630
O311	O31	0.310850	0.712380	0.654600
O321	O32	0.271930	0.492260	0.695430
O331	O33	0.864680	0.227560	0.571520
O341	O34	0.606670	0.812220	0.663040
O351	O35	0.361830	0.879460	0.612290
O361	O36	0.210940	0.590420	0.645850
O371	O37	0.536820	0.685640	0.640520
O381	O38	0.959730	0.150060	0.578540
O391	O39	0.809960	0.547320	0.602270
O401	O40	0.288390	0.813180	0.901400
O411	O41	0.461790	0.889380	0.918070
O421	O42	0.823370	0.556740	0.683120
O431	O43	0.084970	0.526340	0.081270
O441	O44	0.040900	0.524400	0.173220
Pr51	Pr5	0.546150	0.170390	0.341650
Pr61	Pr6	0.792060	0.413580	0.855500
Pr71	Pr7	0.624240	0.170390	0.841650
Pr81	Pr8	0.621520	0.413580	0.355500
H931	H93	0.300000	0.931800	0.263600
H941	H94	0.901300	0.664200	0.396100
H951	H95	0.336100	0.373600	0.354300
H961	H96	0.270800	0.941600	0.396700
H971	H97	0.004000	0.701400	0.251600
H981	H98	0.159600	0.820400	0.251700
H991	H99	0.636900	0.400200	0.985400
H1001	H100	0.586000	0.189400	0.188600
H1011	H101	0.649500	0.194400	0.994600
H1021	H102	0.862300	0.597600	0.263200
H1031	H103	0.558100	0.075000	0.241000
H1041	H104	0.118000	0.659200	0.985200
H1051	H105	0.106800	0.670600	0.935500
H1061	H106	0.190900	0.647800	0.950800
H1071	H107	0.587300	0.407400	0.057600
H1081	H108	0.966500	0.425000	0.361500
H1091	H109	0.552100	0.389800	0.213200
H1101	H110	0.557500	0.403800	0.138200
H1111	H111	0.778900	0.200400	0.344900
H1121	H112	0.555500	0.038600	0.417700
H1131	H113	0.050800	0.478400	0.979100
H1141	H114	0.158400	0.534000	0.972700
H1151	H115	0.097100	0.473000	0.933200
H1161	H116	0.907800	0.161800	0.343900
H1171	H117	0.940200	0.494000	0.770800
H1181	H118	0.216400	0.140600	0.337500
H1191	H119	0.711100	0.048000	0.160400
H1201	H120	0.608400	0.996200	0.175700
H1211	H121	0.626300	0.077000	0.161200
H1221	H122	0.062000	0.140600	0.338200
H1231	H123	0.804900	0.153600	0.485600
H1241	H124	0.810200	0.149000	0.433800
H1251	H125	0.765300	0.202800	0.459600
H1261	H126	0.954500	0.577600	0.918900
H1271	H127	0.216400	0.591600	0.804800
H1281	H128	0.156600	0.516800	0.825900
H1291	H129	0.143800	0.593600	0.841700
H1301	H130	0.698500	0.052400	0.509700
H1311	H131	0.588500	0.035200	0.499300
H1321	H132	0.638300	0.986000	0.472300
H1331	H133	0.823400	0.103800	0.209300
H1341	H134	0.811600	0.169200	0.242300
H1351	H135	0.798300	0.090600	0.258600
H1361	H136	0.164200	0.598200	0.736700
H1371	H137	0.062000	0.603400	0.736200
H1381	H138	0.071700	0.526800	0.716500
H1391	H139	0.631800	0.931800	0.763600
H1401	H140	0.762900	0.664200	0.896100
H1411	H141	0.037500	0.373600	0.854300
H1421	H142	0.670800	0.941600	0.896700
H1431	H143	0.697400	0.701400	0.751600
H1441	H144	0.660800	0.820400	0.751700
H1451	H145	0.763300	0.400200	0.485400
H1461	H146	0.603400	0.189400	0.688600
H1471	H147	0.544900	0.194400	0.494600
H1481	H148	0.735300	0.597600	0.763200
H1491	H149	0.516900	0.075000	0.741000
H1501	H150	0.541200	0.659200	0.485200
H1511	H151	0.563800	0.670600	0.435500
H1521	H152	0.456900	0.647800	0.450800
H1531	H153	0.820100	0.407400	0.557600
H1541	H154	0.458500	0.425000	0.861500
H1551	H155	0.837700	0.389800	0.713200
H1561	H156	0.846300	0.403800	0.638200
H1571	H157	0.421500	0.200400	0.844900
H1581	H158	0.483100	0.038600	0.917700
H1591	H159	0.427600	0.478400	0.479100
H1601	H160	0.375600	0.534000	0.472700
H1611	H161	0.375900	0.473000	0.433200
H1621	H162	0.254000	0.161800	0.843900
H1631	H163	0.553800	0.494000	0.270800
H1641	H164	0.924200	0.140600	0.837500
H1651	H165	0.336900	0.048000	0.660400
H1661	H166	0.387800	0.996200	0.675700
H1671	H167	0.450700	0.077000	0.661200
H1681	H168	0.078600	0.140600	0.838200
H1691	H169	0.348700	0.153600	0.985600
H1701	H170	0.338800	0.149000	0.933800
H1711	H171	0.437500	0.202800	0.959600
H1721	H172	0.623100	0.577600	0.418900
H1731	H173	0.375200	0.591600	0.304800
H1741	H174	0.360200	0.516800	0.325900
H1751	H175	0.449800	0.593600	0.341700
H1761	H176	0.353900	0.052400	0.009700
H1771	H177	0.446700	0.035200	0.999300
H1781	H178	0.347700	0.986000	0.972300
H1791	H179	0.280400	0.103800	0.709300
H1801	H180	0.357600	0.169200	0.742300
H1811	H181	0.292300	0.090600	0.758600
H1821	H182	0.434000	0.598200	0.236700
H1831	H183	0.541400	0.603400	0.236200
H1841	H184	0.455100	0.526800	0.216500
C1091	C109	0.265540	0.911280	0.287790
C1101	C110	0.390030	0.021060	0.337630
C1111	C111	0.921580	0.670960	0.367340
C1121	C112	0.582660	0.307520	0.118950
C1131	C113	0.598800	0.309200	0.070860
C1141	C114	0.129770	0.813940	0.316840
C1151	C115	0.282180	0.326960	0.351180
C1161	C116	0.299780	0.948560	0.330950
C1171	C117	0.859410	0.317020	0.352050
C1181	C118	0.249000	0.918000	0.367870
C1191	C119	0.650640	0.298080	0.982800
C1201	C120	0.568520	0.288640	0.208610
C1211	C121	0.564120	0.283040	0.257600
C1221	C122	0.773690	0.553980	0.337270
C1231	C123	0.686280	0.298160	0.936850
C1241	C124	0.983890	0.693780	0.280280
C1251	C125	0.165390	0.851380	0.359600
C1261	C126	0.390660	0.252320	0.347360
C1271	C127	0.293240	0.257880	0.346460
C1281	C128	0.181360	0.844520	0.280470
C1291	C129	0.630920	0.361040	0.002250
C1301	C130	0.582130	0.232860	0.179030
C1311	C131	0.866900	0.620400	0.330500
C1321	C132	0.617490	0.246380	0.051520
C1331	C133	0.187470	0.324940	0.351180
C1341	C134	0.029120	0.346440	0.355250
C1351	C135	0.774410	0.339740	0.350910
C1361	C136	0.589840	0.244080	0.134680
C1371	C137	0.640880	0.238160	0.007270
C1381	C138	0.898720	0.631840	0.287340
C1391	C139	0.623230	0.092260	0.250520
C1401	C140	0.124600	0.641400	0.955000
C1411	C141	0.602890	0.366580	0.045690
C1421	C142	0.038800	0.744200	0.316560
C1431	C143	0.006530	0.731260	0.359390
C1441	C144	0.953900	0.372800	0.357100
C1451	C145	0.560760	0.352520	0.192910
C1461	C146	0.013510	0.268820	0.349190
C1471	C147	0.565490	0.362180	0.148200
C1481	C148	0.105430	0.255860	0.346690
C1491	C149	0.842550	0.237300	0.347400
C1501	C150	0.616330	0.079260	0.419030
C1511	C151	0.094500	0.507400	0.958500
C1521	C152	0.919440	0.213880	0.346400
C1531	C153	0.987910	0.502620	0.792840
C1541	C154	0.208860	0.187120	0.341200
C1551	C155	0.655120	0.048240	0.175810
C1561	C156	0.116430	0.186860	0.341500
C1571	C157	0.772500	0.154800	0.458600
C1581	C158	0.973130	0.539260	0.926400
C1591	C159	0.155100	0.562800	0.816700
C1601	C160	0.647900	0.036400	0.486600
C1611	C161	0.788300	0.114400	0.233900
C1621	C162	0.095600	0.570200	0.739300
C1631	C163	0.645740	0.911280	0.787790
C1641	C164	0.631030	0.021060	0.837630
C1651	C165	0.749380	0.670960	0.867340
C1661	C166	0.724860	0.307520	0.618950
C1671	C167	0.710400	0.309200	0.570860
C1681	C168	0.684170	0.813940	0.816840
C1691	C169	0.044780	0.326960	0.851180
C1701	C170	0.648780	0.948560	0.830950
C1711	C171	0.457610	0.317020	0.852050
C1721	C172	0.669000	0.918000	0.867870
C1731	C173	0.647440	0.298080	0.482800
C1741	C174	0.720120	0.288640	0.708610
C1751	C175	0.718920	0.283040	0.757600
C1761	C176	0.780290	0.553980	0.837270
C1771	C177	0.611880	0.298160	0.436850
C1781	C178	0.709890	0.693780	0.780280
C1791	C179	0.685990	0.851380	0.859600
C1801	C180	0.861660	0.252320	0.847360
C1811	C181	0.964640	0.257880	0.846460
C1821	C182	0.663160	0.844520	0.780470
C1831	C183	0.730120	0.361040	0.502250
C1841	C184	0.650730	0.232860	0.679030
C1851	C185	0.753500	0.620400	0.830500
C1861	C186	0.628890	0.246380	0.551520
C1871	C187	0.137470	0.324940	0.851180
C1881	C188	0.317320	0.346440	0.855250
C1891	C189	0.565330	0.339740	0.850910
C1901	C190	0.654240	0.244080	0.634680
C1911	C191	0.597280	0.238160	0.507270
C1921	C192	0.733120	0.631840	0.787340
C1931	C193	0.469030	0.092260	0.750520
C1941	C194	0.516800	0.641400	0.455000
C1951	C195	0.763690	0.366580	0.545690
C1961	C196	0.705400	0.744200	0.816560
C1971	C197	0.724730	0.731260	0.859390
C1981	C198	0.418900	0.372800	0.857100
C1991	C199	0.791760	0.352520	0.692910
C2001	C200	0.255310	0.268820	0.849190
C2011	C201	0.796690	0.362180	0.648200
C2021	C202	0.150430	0.255860	0.846690
C2031	C203	0.394750	0.237300	0.847400
C2041	C204	0.462930	0.079260	0.919030
C2051	C205	0.412900	0.507400	0.458500
C2061	C206	0.294440	0.213880	0.846400
C2071	C207	0.514710	0.502620	0.292840
C2081	C208	0.978260	0.187120	0.841200
C2091	C209	0.393120	0.048240	0.675810
C2101	C210	0.070430	0.186860	0.841500
C2111	C211	0.382300	0.154800	0.958600
C2121	C212	0.566130	0.539260	0.426400
C2131	C213	0.407700	0.562800	0.316700
C2141	C214	0.388500	0.036400	0.986600
C2151	C215	0.326100	0.114400	0.733900
C2161	C216	0.474600	0.570200	0.239300
S71	S7	0.086870	0.803220	0.400090
S81	S8	0.154520	0.405240	0.355890
S91	S9	0.616440	0.185220	0.091270
S101	S10	0.716350	0.803220	0.900090
S111	S11	0.250720	0.405240	0.855890
S121	S12	0.568780	0.185220	0.591270
N91	N9	0.676830	0.091860	0.453440
N101	N10	0.684490	0.083780	0.221160
N111	N11	0.061300	0.560600	0.944900
N121	N12	0.078520	0.542840	0.783200
N131	N13	0.415030	0.091860	0.953440
N141	N14	0.399290	0.083780	0.721160
N151	N15	0.499300	0.560600	0.444900
N161	N16	0.464320	0.542840	0.283200
O451	O45	0.436720	0.043120	0.303370
O461	O46	0.547880	0.218760	0.270030
O471	O47	0.645820	0.121700	0.290070
O481	O48	0.681120	0.234840	0.916280
O491	O49	0.720010	0.362620	0.922830
O501	O50	0.416270	0.058100	0.375760
O511	O51	0.745930	0.547240	0.376860
O521	O52	0.578640	0.344880	0.282370
O531	O53	0.689150	0.287620	0.345400
O541	O54	0.728070	0.507740	0.304570
O551	O55	0.135320	0.772440	0.428480
O561	O56	0.393330	0.187780	0.336960
O571	O57	0.638170	0.120540	0.387710
O581	O58	0.789060	0.409580	0.354150
O591	O59	0.463180	0.314360	0.359480
O601	O60	0.040270	0.849940	0.421460
O611	O61	0.190040	0.452680	0.397730
O621	O62	0.711610	0.186820	0.098600
O631	O63	0.538210	0.110620	0.081930
O641	O64	0.176630	0.443260	0.316880
O651	O65	0.915030	0.473660	0.918730
O661	O66	0.959100	0.475600	0.826780
O671	O67	0.606400	0.043120	0.803370
O681	O68	0.670880	0.218760	0.770030
O691	O69	0.475880	0.121700	0.790070
O701	O70	0.553720	0.234840	0.416280
O711	O71	0.642610	0.362620	0.422830
O721	O72	0.641830	0.058100	0.875760
O731	O73	0.801310	0.547240	0.876860
O741	O74	0.766240	0.344880	0.782370
O751	O75	0.598470	0.287620	0.845400
O761	O76	0.779670	0.507740	0.804570
O771	O77	0.637120	0.772440	0.928480
O781	O78	0.794450	0.187780	0.836960
O791	O79	0.482370	0.120540	0.887710
O801	O80	0.620520	0.409580	0.854150
O811	O81	0.851180	0.314360	0.859480
O821	O82	0.809670	0.849940	0.921460
O831	O83	0.262640	0.452680	0.897730
O841	O84	0.475210	0.186820	0.598600
O851	O85	0.572410	0.110620	0.581930
O861	O86	0.266630	0.443260	0.816880
O871	O87	0.558630	0.473660	0.418730
O881	O88	0.516500	0.475600	0.326780
