data_YUWHOO_SL_PM
_symmetry_space_group_name_H-M	'P1'
_cell_length_a	12.194500
_cell_length_b	12.194500
_cell_length_c	12.169000
_cell_angle_alpha	119.482000
_cell_angle_beta	119.482000
_cell_angle_gamma	52.678200
_symmetry_Int_Tables_number 1

loop_
_symmetry_equiv_pos_as_xyz
'x,y,z'

loop_
_atom_site_label
_atom_site_type_symbol
_atom_site_fract_x
_atom_site_fract_y
_atom_site_fract_z
H11	H1	0.496000	0.286000	0.081000
H21	H2	0.525000	0.013000	0.750000
H31	H3	0.553000	0.191000	0.760000
H41	H4	0.604000	0.728000	0.756000
H51	H5	0.209000	0.997000	0.772000
H61	H6	0.205000	0.791000	0.567000
H71	H7	0.248000	0.306000	0.946000
H81	H8	0.221000	0.075000	0.051000
H91	H9	0.986000	0.306000	0.039000
H101	H10	0.235000	0.749000	0.136000
C111	C11	0.504660	0.245260	0.999800
C121	C12	0.528580	0.195380	0.815000
C131	C13	0.524410	0.085610	0.814600
C141	C14	0.501150	0.768750	0.729500
C151	C15	0.283510	0.805910	0.631600
C161	C16	0.284100	0.917100	0.742600
C171	C17	0.213120	0.281120	0.976400
C181	C18	0.068180	0.276780	0.024400
C191	C19	0.195040	0.153040	0.033100
C201	C20	0.306210	0.686210	0.190800
N211	N21	0.509980	0.116780	0.932200
N221	N22	0.514270	0.299270	0.934300
N231	N23	0.423960	0.892760	0.806600
N241	N24	0.422650	0.709650	0.622900
N251	N25	0.288520	0.155320	0.002900
N261	N26	0.080300	0.357900	0.988200
N271	N27	0.425290	0.564290	0.152800
H281	H28	0.464720	0.006990	0.469030
H291	H29	0.714000	0.504000	0.419000
H301	H30	0.987000	0.475000	0.750000
H311	H31	0.809000	0.447000	0.740000
H321	H32	0.272000	0.396000	0.744000
H331	H33	0.003000	0.791000	0.728000
H341	H34	0.209000	0.795000	0.933000
H351	H35	0.694000	0.752000	0.554000
H361	H36	0.925000	0.779000	0.449000
H371	H37	0.694000	0.014000	0.461000
H381	H38	0.251000	0.765000	0.364000
C391	C39	0.754740	0.495340	0.500200
C401	C40	0.804620	0.471420	0.685000
C411	C41	0.914390	0.475590	0.685400
C421	C42	0.231250	0.498850	0.770500
C431	C43	0.194090	0.716490	0.868400
C441	C44	0.082900	0.715900	0.757400
C451	C45	0.718880	0.786880	0.523600
C461	C46	0.723220	0.931820	0.475600
C471	C47	0.846960	0.804960	0.466900
C481	C48	0.313790	0.693790	0.309200
N491	N49	0.883220	0.490020	0.567800
N501	N50	0.700730	0.485730	0.565700
N511	N51	0.107240	0.576040	0.693400
N521	N52	0.290350	0.577350	0.877100
N531	N53	0.844680	0.711480	0.497100
N541	N54	0.642100	0.919700	0.511800
N551	N55	0.435710	0.574710	0.347200
H561	H56	0.993010	0.535280	0.030970
H571	H57	0.504000	0.714000	0.919000
H581	H58	0.475000	0.987000	0.250000
H591	H59	0.447000	0.809000	0.240000
H601	H60	0.396000	0.272000	0.244000
H611	H61	0.791000	0.003000	0.228000
H621	H62	0.795000	0.209000	0.433000
H631	H63	0.752000	0.694000	0.054000
H641	H64	0.779000	0.925000	0.949000
H651	H65	0.014000	0.694000	0.961000
H661	H66	0.765000	0.251000	0.864000
C671	C67	0.495340	0.754740	0.000200
C681	C68	0.471420	0.804620	0.185000
C691	C69	0.475590	0.914390	0.185400
C701	C70	0.498850	0.231250	0.270500
C711	C71	0.716490	0.194090	0.368400
C721	C72	0.715900	0.082900	0.257400
C731	C73	0.786880	0.718880	0.023600
C741	C74	0.931820	0.723220	0.975600
C751	C75	0.804960	0.846960	0.966900
C761	C76	0.693790	0.313790	0.809200
N771	N77	0.490020	0.883220	0.067800
N781	N78	0.485730	0.700730	0.065700
N791	N79	0.576040	0.107240	0.193400
N801	N80	0.577350	0.290350	0.377100
N811	N81	0.711480	0.844680	0.997100
N821	N82	0.919700	0.642100	0.011800
N831	N83	0.574710	0.435710	0.847200
H841	H84	0.286000	0.496000	0.581000
H851	H85	0.013000	0.525000	0.250000
H861	H86	0.191000	0.553000	0.260000
H871	H87	0.728000	0.604000	0.256000
H881	H88	0.997000	0.209000	0.272000
H891	H89	0.791000	0.205000	0.067000
H901	H90	0.306000	0.248000	0.446000
H911	H91	0.075000	0.221000	0.551000
H921	H92	0.306000	0.986000	0.539000
H931	H93	0.749000	0.235000	0.636000
C941	C94	0.245260	0.504660	0.499800
C951	C95	0.195380	0.528580	0.315000
C961	C96	0.085610	0.524410	0.314600
C971	C97	0.768750	0.501150	0.229500
C981	C98	0.805910	0.283510	0.131600
C991	C99	0.917100	0.284100	0.242600
C1001	C100	0.281120	0.213120	0.476400
C1011	C101	0.276780	0.068180	0.524400
C1021	C102	0.153040	0.195040	0.533100
C1031	C103	0.686210	0.306210	0.690800
N1041	N104	0.116780	0.509980	0.432200
N1051	N105	0.299270	0.514270	0.434300
N1061	N106	0.892760	0.423960	0.306600
N1071	N107	0.709650	0.422650	0.122900
N1081	N108	0.155320	0.288520	0.502900
N1091	N109	0.357900	0.080300	0.488200
N1101	N110	0.564290	0.425290	0.652800
Ga1111	Ga111	0.500000	0.000000	0.000000
Ga1121	Ga112	0.000000	0.500000	0.500000
Ga1131	Ga113	0.500000	0.500000	0.000000
Ga1141	Ga114	0.500000	0.500000	0.500000
H1151	H115	0.581000	0.419000	0.250000
C1161	C116	0.497700	0.502300	0.250000
H1171	H117	0.419000	0.581000	0.750000
C1181	C118	0.502300	0.497700	0.750000
