data_YUXQIS_freeONLY_PM
_symmetry_space_group_name_H-M	'P1'
_cell_length_a	11.690000
_cell_length_b	25.290000
_cell_length_c	25.290000
_cell_angle_alpha	120.000000
_cell_angle_beta	90.000000
_cell_angle_gamma	90.000000
_symmetry_Int_Tables_number 1

loop_
_symmetry_equiv_pos_as_xyz
'x,y,z'

loop_
_atom_site_label
_atom_site_type_symbol
_atom_site_fract_x
_atom_site_fract_y
_atom_site_fract_z
Cd11	Cd1	0.000000	0.412390	0.937470
Cd21	Cd2	0.000000	0.525080	0.587610
Cd31	Cd3	0.000000	0.062530	0.474920
Cd41	Cd4	0.000000	0.587610	0.062530
Cd51	Cd5	0.000000	0.474920	0.412390
Cd61	Cd6	0.000000	0.937470	0.525080
H11	H1	0.220200	0.382500	0.988700
H21	H2	0.415000	0.386500	0.992800
H31	H3	0.410500	0.447100	0.879700
H41	H4	0.216300	0.449300	0.884200
H51	H5	0.220200	0.606200	0.617500
H61	H6	0.415000	0.606300	0.613500
H71	H7	0.410500	0.432600	0.552900
H81	H8	0.216300	0.434900	0.550700
H91	H9	0.220200	0.011300	0.393800
H101	H10	0.415000	0.007200	0.393700
H111	H11	0.410500	0.120300	0.567400
H121	H12	0.216300	0.115800	0.565100
H131	H13	0.220200	0.617500	0.011300
H141	H14	0.415000	0.613500	0.007200
H151	H15	0.410500	0.552900	0.120300
H161	H16	0.216300	0.550700	0.115800
H171	H17	0.220200	0.393800	0.382500
H181	H18	0.415000	0.393700	0.386500
H191	H19	0.410500	0.567400	0.447100
H201	H20	0.216300	0.565100	0.449300
H211	H21	0.220200	0.988700	0.606200
H221	H22	0.415000	0.992800	0.606300
H231	H23	0.410500	0.879700	0.432600
H241	H24	0.216300	0.884200	0.434900
H251	H25	0.779800	0.617500	0.011300
H261	H26	0.585000	0.613500	0.007200
H271	H27	0.589500	0.552900	0.120300
H281	H28	0.783700	0.550700	0.115800
H291	H29	0.779800	0.393800	0.382500
H301	H30	0.585000	0.393700	0.386500
H311	H31	0.589500	0.567400	0.447100
H321	H32	0.783700	0.565100	0.449300
H331	H33	0.779800	0.988700	0.606200
H341	H34	0.585000	0.992800	0.606300
H351	H35	0.589500	0.879700	0.432600
H361	H36	0.783700	0.884200	0.434900
H371	H37	0.779800	0.382500	0.988700
H381	H38	0.585000	0.386500	0.992800
H391	H39	0.589500	0.447100	0.879700
H401	H40	0.783700	0.449300	0.884200
H411	H41	0.779800	0.606200	0.617500
H421	H42	0.585000	0.606300	0.613500
H431	H43	0.589500	0.432600	0.552900
H441	H44	0.783700	0.434900	0.550700
H451	H45	0.779800	0.011300	0.393800
H461	H46	0.585000	0.007200	0.393700
H471	H47	0.589500	0.120300	0.567400
H481	H48	0.783700	0.115800	0.565100
H491	H49	0.000000	0.548400	0.171700
H501	H50	0.000000	0.582900	0.319400
H511	H51	0.000000	0.607300	0.276600
H521	H52	0.000000	0.378900	0.195300
H531	H53	0.000000	0.368300	0.100300
H541	H54	0.000000	0.623300	0.451600
H551	H55	0.000000	0.736500	0.417100
H561	H56	0.000000	0.669300	0.392700
H571	H57	0.000000	0.816400	0.621100
H581	H58	0.000000	0.732000	0.631700
H591	H59	0.000000	0.828300	0.376700
H601	H60	0.000000	0.680600	0.263500
H611	H61	0.000000	0.723400	0.330700
H621	H62	0.000000	0.804700	0.183600
H631	H63	0.000000	0.899700	0.268000
H641	H64	0.000000	0.451600	0.828300
H651	H65	0.000000	0.417100	0.680600
H661	H66	0.000000	0.392700	0.723400
H671	H67	0.000000	0.621100	0.804700
H681	H68	0.000000	0.631700	0.899700
H691	H69	0.000000	0.376700	0.548400
H701	H70	0.000000	0.263500	0.582900
H711	H71	0.000000	0.330700	0.607300
H721	H72	0.000000	0.183600	0.378900
H731	H73	0.000000	0.268000	0.368300
H741	H74	0.000000	0.171700	0.623300
H751	H75	0.000000	0.319400	0.736500
H761	H76	0.000000	0.276600	0.669300
H771	H77	0.000000	0.195300	0.816400
H781	H78	0.000000	0.100300	0.732000
C11	C1	0.258400	0.397800	0.967000
C21	C2	0.376700	0.398500	0.968200
C31	C3	0.436800	0.416200	0.934900
C41	C4	0.374300	0.434200	0.904000
C51	C5	0.255700	0.434900	0.906400
C61	C6	0.258400	0.569200	0.602200
C71	C7	0.376700	0.569700	0.601500
C81	C8	0.436800	0.518700	0.583800
C91	C9	0.374300	0.469800	0.565800
C101	C10	0.255700	0.471500	0.565100
C111	C11	0.258400	0.033000	0.430800
C121	C12	0.376700	0.031800	0.430300
C131	C13	0.436800	0.065100	0.481300
C141	C14	0.374300	0.096000	0.530200
C151	C15	0.255700	0.093600	0.528500
C161	C16	0.258400	0.602200	0.033000
C171	C17	0.376700	0.601500	0.031800
C181	C18	0.436800	0.583800	0.065100
C191	C19	0.374300	0.565800	0.096000
C201	C20	0.255700	0.565100	0.093600
C211	C21	0.258400	0.430800	0.397800
C221	C22	0.376700	0.430300	0.398500
C231	C23	0.436800	0.481300	0.416200
C241	C24	0.374300	0.530200	0.434200
C251	C25	0.255700	0.528500	0.434900
C261	C26	0.258400	0.967000	0.569200
C271	C27	0.376700	0.968200	0.569700
C281	C28	0.436800	0.934900	0.518700
C291	C29	0.374300	0.904000	0.469800
C301	C30	0.255700	0.906400	0.471500
C311	C31	0.741600	0.602200	0.033000
C321	C32	0.623300	0.601500	0.031800
C331	C33	0.563200	0.583800	0.065100
C341	C34	0.625700	0.565800	0.096000
C351	C35	0.744300	0.565100	0.093600
C361	C36	0.741600	0.430800	0.397800
C371	C37	0.623300	0.430300	0.398500
C381	C38	0.563200	0.481300	0.416200
C391	C39	0.625700	0.530200	0.434200
C401	C40	0.744300	0.528500	0.434900
C411	C41	0.741600	0.967000	0.569200
C421	C42	0.623300	0.968200	0.569700
C431	C43	0.563200	0.934900	0.518700
C441	C44	0.625700	0.904000	0.469800
C451	C45	0.744300	0.906400	0.471500
C461	C46	0.741600	0.397800	0.967000
C471	C47	0.623300	0.398500	0.968200
C481	C48	0.563200	0.416200	0.934900
C491	C49	0.625700	0.434200	0.904000
C501	C50	0.744300	0.434900	0.906400
C511	C51	0.741600	0.569200	0.602200
C521	C52	0.623300	0.569700	0.601500
C531	C53	0.563200	0.518700	0.583800
C541	C54	0.625700	0.469800	0.565800
C551	C55	0.744300	0.471500	0.565100
C561	C56	0.741600	0.033000	0.430800
C571	C57	0.623300	0.031800	0.430300
C581	C58	0.563200	0.065100	0.481300
C591	C59	0.625700	0.096000	0.530200
C601	C60	0.744300	0.093600	0.528500
C611	C61	0.000000	0.449500	0.064900
C621	C62	0.000000	0.457600	0.127500
C631	C63	0.000000	0.514200	0.176400
C641	C64	0.000000	0.520200	0.235600
C651	C65	0.000000	0.470600	0.244000
C661	C66	0.000000	0.413700	0.191600
C671	C67	0.000000	0.407200	0.134600
C681	C68	0.000000	0.475000	0.304600
C691	C69	0.000000	0.615400	0.550500
C701	C70	0.000000	0.669900	0.542400
C711	C71	0.000000	0.662200	0.485800
C721	C72	0.000000	0.715400	0.479800
C731	C73	0.000000	0.773400	0.529400
C741	C74	0.000000	0.777900	0.586300
C751	C75	0.000000	0.727400	0.592800
C761	C76	0.000000	0.829600	0.525000
C771	C77	0.000000	0.935100	0.384600
C781	C78	0.000000	0.872500	0.330100
C791	C79	0.000000	0.823600	0.337800
C801	C80	0.000000	0.764400	0.284600
C811	C81	0.000000	0.756000	0.226600
C821	C82	0.000000	0.808400	0.222100
C831	C83	0.000000	0.865400	0.272600
C841	C84	0.000000	0.695400	0.170400
C851	C85	0.000000	0.550500	0.935100
C861	C86	0.000000	0.542400	0.872500
C871	C87	0.000000	0.485800	0.823600
C881	C88	0.000000	0.479800	0.764400
C891	C89	0.000000	0.529400	0.756000
C901	C90	0.000000	0.586300	0.808400
C911	C91	0.000000	0.592800	0.865400
C921	C92	0.000000	0.525000	0.695400
C931	C93	0.000000	0.384600	0.449500
C941	C94	0.000000	0.330100	0.457600
C951	C95	0.000000	0.337800	0.514200
C961	C96	0.000000	0.284600	0.520200
C971	C97	0.000000	0.226600	0.470600
C981	C98	0.000000	0.222100	0.413700
C991	C99	0.000000	0.272600	0.407200
C1001	C100	0.000000	0.170400	0.475000
C1011	C101	0.000000	0.064900	0.615400
C1021	C102	0.000000	0.127500	0.669900
C1031	C103	0.000000	0.176400	0.662200
C1041	C104	0.000000	0.235600	0.715400
C1051	C105	0.000000	0.244000	0.773400
C1061	C106	0.000000	0.191600	0.777900
C1071	C107	0.000000	0.134600	0.727400
C1081	C108	0.000000	0.304600	0.829600
N11	N1	0.197500	0.417000	0.937000
N21	N2	0.197500	0.520000	0.583000
N31	N3	0.197500	0.063000	0.480000
N41	N4	0.197500	0.583000	0.063000
N51	N5	0.197500	0.480000	0.417000
N61	N6	0.197500	0.937000	0.520000
N71	N7	0.802500	0.583000	0.063000
N81	N8	0.802500	0.480000	0.417000
N91	N9	0.802500	0.937000	0.520000
N101	N10	0.802500	0.417000	0.937000
N111	N11	0.802500	0.520000	0.583000
N121	N12	0.802500	0.063000	0.480000
N131	N13	0.000000	0.576800	0.282800
N141	N14	0.000000	0.706000	0.423200
N151	N15	0.000000	0.717200	0.294000
N161	N16	0.000000	0.423200	0.717200
N171	N17	0.000000	0.294000	0.576800
N181	N18	0.000000	0.282800	0.706000
O11	O1	0.000000	0.397400	0.019200
O21	O2	0.000000	0.497000	0.059700
O31	O3	0.000000	0.427600	0.308100
O41	O4	0.000000	0.526900	0.352300
O51	O5	0.000000	0.621800	0.602600
O61	O6	0.000000	0.562700	0.503000
O71	O7	0.000000	0.880500	0.572400
O81	O8	0.000000	0.825400	0.473100
O91	O9	0.000000	0.980800	0.378200
O101	O10	0.000000	0.940300	0.437300
O111	O11	0.000000	0.691900	0.119500
O121	O12	0.000000	0.647700	0.174600
O131	O13	0.000000	0.602600	0.980800
O141	O14	0.000000	0.503000	0.940300
O151	O15	0.000000	0.572400	0.691900
O161	O16	0.000000	0.473100	0.647700
O171	O17	0.000000	0.378200	0.397400
O181	O18	0.000000	0.437300	0.497000
O191	O19	0.000000	0.119500	0.427600
O201	O20	0.000000	0.174600	0.526900
O211	O21	0.000000	0.019200	0.621800
O221	O22	0.000000	0.059700	0.562700
O231	O23	0.000000	0.308100	0.880500
O241	O24	0.000000	0.352300	0.825400
