data_ZELQAK_freeONLY_PM
_symmetry_space_group_name_H-M	'P1'
_cell_length_a	26.115000
_cell_length_b	26.436000
_cell_length_c	26.347300
_cell_angle_alpha	90.000000
_cell_angle_beta	90.000000
_cell_angle_gamma	90.000000
_symmetry_Int_Tables_number 1

loop_
_symmetry_equiv_pos_as_xyz
'x,y,z'

loop_
_atom_site_label
_atom_site_type_symbol
_atom_site_fract_x
_atom_site_fract_y
_atom_site_fract_z
Zn11	Zn1	0.246080	0.527300	0.753250
Zn21	Zn2	0.290340	0.598610	0.850930
Zn31	Zn3	0.905240	0.721180	0.166140
Zn41	Zn4	0.971630	0.731360	0.763720
Zn51	Zn5	0.253920	0.972700	0.753250
Zn61	Zn6	0.209660	0.901390	0.850930
Zn71	Zn7	0.594760	0.778820	0.166140
Zn81	Zn8	0.528370	0.768640	0.763720
Zn91	Zn9	0.746080	0.472700	0.746750
Zn101	Zn10	0.790340	0.401390	0.649070
Zn111	Zn11	0.405240	0.278820	0.333860
Zn121	Zn12	0.471630	0.268640	0.736280
Zn131	Zn13	0.753920	0.027300	0.746750
Zn141	Zn14	0.709660	0.098610	0.649070
Zn151	Zn15	0.094760	0.221180	0.333860
Zn161	Zn16	0.028370	0.231360	0.736280
Zn171	Zn17	0.753920	0.472700	0.246750
Zn181	Zn18	0.709660	0.401390	0.149070
Zn191	Zn19	0.094760	0.278820	0.833860
Zn201	Zn20	0.028370	0.268640	0.236280
Zn211	Zn21	0.746080	0.027300	0.246750
Zn221	Zn22	0.790340	0.098610	0.149070
Zn231	Zn23	0.405240	0.221180	0.833860
Zn241	Zn24	0.471630	0.231360	0.236280
Zn251	Zn25	0.253920	0.527300	0.253250
Zn261	Zn26	0.209660	0.598610	0.350930
Zn271	Zn27	0.594760	0.721180	0.666140
Zn281	Zn28	0.528370	0.731360	0.263720
Zn291	Zn29	0.246080	0.972700	0.253250
Zn301	Zn30	0.290340	0.901390	0.350930
Zn311	Zn31	0.905240	0.778820	0.666140
Zn321	Zn32	0.971630	0.768640	0.263720
H11	H1	0.099600	0.632100	0.786600
H21	H2	0.043900	0.649600	0.929000
H31	H3	0.174400	0.568700	0.905500
H41	H4	0.082400	0.660200	0.016800
H51	H5	0.036500	0.652300	0.105100
H61	H6	0.096900	0.661400	0.246400
H71	H7	0.171500	0.583200	0.136800
H81	H8	0.158200	0.388600	0.736000
H91	H9	0.089800	0.317000	0.618400
H101	H10	0.166400	0.448400	0.595200
H111	H11	0.162000	0.422600	0.504200
H121	H12	0.148500	0.463800	0.419200
H131	H13	0.135500	0.416100	0.273800
H141	H14	0.076400	0.331100	0.387700
H151	H15	0.235900	0.673400	0.779200
H161	H16	0.183200	0.735100	0.744600
H171	H17	0.169800	0.781700	0.781000
H181	H18	0.130600	0.735400	0.775800
H191	H19	0.145500	0.713000	0.878200
H201	H20	0.163300	0.769900	0.867600
H211	H21	0.202400	0.730400	0.892500
H221	H22	0.318900	0.554300	0.950400
H231	H23	0.239100	0.644400	0.004400
H241	H24	0.261100	0.634600	0.060200
H251	H25	0.214400	0.601300	0.039400
H261	H26	0.324500	0.522000	0.030700
H271	H27	0.284900	0.540900	0.073000
H281	H28	0.336200	0.572300	0.062600
H291	H29	0.397300	0.581800	0.838400
H301	H30	0.429200	0.690500	0.902400
H311	H31	0.460200	0.709100	0.853400
H321	H32	0.489400	0.680000	0.898100
H331	H33	0.478000	0.578700	0.811300
H341	H34	0.518000	0.604400	0.849400
H351	H35	0.500700	0.633700	0.799100
H361	H36	0.931600	0.619200	0.176400
H371	H37	0.939900	0.540300	0.201300
H381	H38	0.885700	0.517000	0.217100
H391	H39	0.913900	0.497700	0.166800
H401	H40	0.823200	0.580900	0.112100
H411	H41	0.832000	0.521900	0.122200
H421	H42	0.805900	0.556400	0.164900
H431	H43	0.965700	0.716800	0.064400
H441	H44	0.931900	0.687900	0.944600
H451	H45	0.954900	0.744000	0.944500
H461	H46	0.982200	0.700500	0.976900
H471	H47	0.846000	0.752400	0.020400
H481	H48	0.877500	0.784500	0.979500
H491	H49	0.854900	0.730200	0.964600
H501	H50	0.821100	0.770900	0.228700
H511	H51	0.780500	0.801900	0.110200
H521	H52	0.726500	0.823400	0.129300
H531	H53	0.775200	0.860000	0.126200
H541	H54	0.768700	0.830700	0.257600
H551	H55	0.749100	0.873300	0.219100
H561	H56	0.715700	0.823300	0.228000
H571	H57	0.400400	0.867900	0.786600
H581	H58	0.456100	0.850400	0.929000
H591	H59	0.325600	0.931300	0.905500
H601	H60	0.417600	0.839800	0.016800
H611	H61	0.463500	0.847700	0.105100
H621	H62	0.403100	0.838600	0.246400
H631	H63	0.328500	0.916800	0.136800
H641	H64	0.341800	0.111400	0.736000
H651	H65	0.410200	0.183000	0.618400
H661	H66	0.333600	0.051600	0.595200
H671	H67	0.338000	0.077400	0.504200
H681	H68	0.351500	0.036200	0.419200
H691	H69	0.364500	0.083900	0.273800
H701	H70	0.423600	0.168900	0.387700
H711	H71	0.264100	0.826600	0.779200
H721	H72	0.316800	0.764900	0.744600
H731	H73	0.330200	0.718300	0.781000
H741	H74	0.369400	0.764600	0.775800
H751	H75	0.354500	0.787000	0.878200
H761	H76	0.336700	0.730100	0.867600
H771	H77	0.297600	0.769600	0.892500
H781	H78	0.181100	0.945700	0.950400
H791	H79	0.260900	0.855600	0.004400
H801	H80	0.238900	0.865400	0.060200
H811	H81	0.285600	0.898700	0.039400
H821	H82	0.175500	0.978000	0.030700
H831	H83	0.215100	0.959100	0.073000
H841	H84	0.163800	0.927700	0.062600
H851	H85	0.102700	0.918200	0.838400
H861	H86	0.070800	0.809500	0.902400
H871	H87	0.039800	0.790900	0.853400
H881	H88	0.010600	0.820000	0.898100
H891	H89	0.022000	0.921300	0.811300
H901	H90	0.982000	0.895600	0.849400
H911	H91	0.999300	0.866300	0.799100
H921	H92	0.568400	0.880800	0.176400
H931	H93	0.560100	0.959700	0.201300
H941	H94	0.614300	0.983000	0.217100
H951	H95	0.586100	0.002300	0.166800
H961	H96	0.676800	0.919100	0.112100
H971	H97	0.668000	0.978100	0.122200
H981	H98	0.694100	0.943600	0.164900
H991	H99	0.534300	0.783200	0.064400
H1001	H100	0.568100	0.812100	0.944600
H1011	H101	0.545100	0.756000	0.944500
H1021	H102	0.517800	0.799500	0.976900
H1031	H103	0.654000	0.747600	0.020400
H1041	H104	0.622500	0.715500	0.979500
H1051	H105	0.645100	0.769800	0.964600
H1061	H106	0.678900	0.729100	0.228700
H1071	H107	0.719500	0.698100	0.110200
H1081	H108	0.773500	0.676600	0.129300
H1091	H109	0.724800	0.640000	0.126200
H1101	H110	0.731300	0.669300	0.257600
H1111	H111	0.750900	0.626700	0.219100
H1121	H112	0.784300	0.676700	0.228000
H1131	H113	0.599600	0.367900	0.713400
H1141	H114	0.543900	0.350400	0.571000
H1151	H115	0.674400	0.431300	0.594500
H1161	H116	0.582400	0.339800	0.483200
H1171	H117	0.536500	0.347700	0.394900
H1181	H118	0.596900	0.338600	0.253600
H1191	H119	0.671500	0.416800	0.363200
H1201	H120	0.658200	0.611400	0.764000
H1211	H121	0.589800	0.683000	0.881600
H1221	H122	0.666400	0.551600	0.904800
H1231	H123	0.662000	0.577400	0.995800
H1241	H124	0.648500	0.536200	0.080800
H1251	H125	0.635500	0.583900	0.226200
H1261	H126	0.576400	0.668900	0.112300
H1271	H127	0.735900	0.326600	0.720800
H1281	H128	0.683200	0.264900	0.755400
H1291	H129	0.669800	0.218300	0.719000
H1301	H130	0.630600	0.264600	0.724200
H1311	H131	0.645500	0.287000	0.621800
H1321	H132	0.663300	0.230100	0.632400
H1331	H133	0.702400	0.269600	0.607500
H1341	H134	0.818900	0.445700	0.549600
H1351	H135	0.739100	0.355600	0.495600
H1361	H136	0.761100	0.365400	0.439800
H1371	H137	0.714400	0.398700	0.460600
H1381	H138	0.824500	0.478000	0.469300
H1391	H139	0.784900	0.459100	0.427000
H1401	H140	0.836200	0.427700	0.437400
H1411	H141	0.897300	0.418200	0.661600
H1421	H142	0.929200	0.309500	0.597600
H1431	H143	0.960200	0.290900	0.646600
H1441	H144	0.989400	0.320000	0.601900
H1451	H145	0.978000	0.421300	0.688700
H1461	H146	0.018000	0.395600	0.650600
H1471	H147	0.000700	0.366300	0.700900
H1481	H148	0.431600	0.380800	0.323600
H1491	H149	0.439900	0.459700	0.298700
H1501	H150	0.385700	0.483000	0.282900
H1511	H151	0.413900	0.502300	0.333200
H1521	H152	0.323200	0.419100	0.387900
H1531	H153	0.332000	0.478100	0.377800
H1541	H154	0.305900	0.443600	0.335100
H1551	H155	0.465700	0.283200	0.435600
H1561	H156	0.431900	0.312100	0.555400
H1571	H157	0.454900	0.256000	0.555500
H1581	H158	0.482200	0.299500	0.523100
H1591	H159	0.346000	0.247600	0.479600
H1601	H160	0.377500	0.215500	0.520500
H1611	H161	0.354900	0.269800	0.535400
H1621	H162	0.321100	0.229100	0.271300
H1631	H163	0.280500	0.198100	0.389800
H1641	H164	0.226500	0.176600	0.370700
H1651	H165	0.275200	0.140000	0.373800
H1661	H166	0.268700	0.169300	0.242400
H1671	H167	0.249100	0.126700	0.280900
H1681	H168	0.215700	0.176700	0.272000
H1691	H169	0.900400	0.132100	0.713400
H1701	H170	0.956100	0.149600	0.571000
H1711	H171	0.825600	0.068700	0.594500
H1721	H172	0.917600	0.160200	0.483200
H1731	H173	0.963500	0.152300	0.394900
H1741	H174	0.903100	0.161400	0.253600
H1751	H175	0.828500	0.083200	0.363200
H1761	H176	0.841800	0.888600	0.764000
H1771	H177	0.910200	0.817000	0.881600
H1781	H178	0.833600	0.948400	0.904800
H1791	H179	0.838000	0.922600	0.995800
H1801	H180	0.851500	0.963800	0.080800
H1811	H181	0.864500	0.916100	0.226200
H1821	H182	0.923600	0.831100	0.112300
H1831	H183	0.764100	0.173400	0.720800
H1841	H184	0.816800	0.235100	0.755400
H1851	H185	0.830200	0.281700	0.719000
H1861	H186	0.869400	0.235400	0.724200
H1871	H187	0.854500	0.213000	0.621800
H1881	H188	0.836700	0.269900	0.632400
H1891	H189	0.797600	0.230400	0.607500
H1901	H190	0.681100	0.054300	0.549600
H1911	H191	0.760900	0.144400	0.495600
H1921	H192	0.738900	0.134600	0.439800
H1931	H193	0.785600	0.101300	0.460600
H1941	H194	0.675500	0.022000	0.469300
H1951	H195	0.715100	0.040900	0.427000
H1961	H196	0.663800	0.072300	0.437400
H1971	H197	0.602700	0.081800	0.661600
H1981	H198	0.570800	0.190500	0.597600
H1991	H199	0.539800	0.209100	0.646600
H2001	H200	0.510600	0.180000	0.601900
H2011	H201	0.522000	0.078700	0.688700
H2021	H202	0.482000	0.104400	0.650600
H2031	H203	0.499300	0.133700	0.700900
H2041	H204	0.068400	0.119200	0.323600
H2051	H205	0.060100	0.040300	0.298700
H2061	H206	0.114300	0.017000	0.282900
H2071	H207	0.086100	0.997700	0.333200
H2081	H208	0.176800	0.080900	0.387900
H2091	H209	0.168000	0.021900	0.377800
H2101	H210	0.194100	0.056400	0.335100
H2111	H211	0.034300	0.216800	0.435600
H2121	H212	0.068100	0.187900	0.555400
H2131	H213	0.045100	0.244000	0.555500
H2141	H214	0.017800	0.200500	0.523100
H2151	H215	0.154000	0.252400	0.479600
H2161	H216	0.122500	0.284500	0.520500
H2171	H217	0.145100	0.230200	0.535400
H2181	H218	0.178900	0.270900	0.271300
H2191	H219	0.219500	0.301900	0.389800
H2201	H220	0.273500	0.323400	0.370700
H2211	H221	0.224800	0.360000	0.373800
H2221	H222	0.231300	0.330700	0.242400
H2231	H223	0.250900	0.373300	0.280900
H2241	H224	0.284300	0.323300	0.272000
H2251	H225	0.900400	0.367900	0.213400
H2261	H226	0.956100	0.350400	0.071000
H2271	H227	0.825600	0.431300	0.094500
H2281	H228	0.917600	0.339800	0.983200
H2291	H229	0.963500	0.347700	0.894900
H2301	H230	0.903100	0.338600	0.753600
H2311	H231	0.828500	0.416800	0.863200
H2321	H232	0.841800	0.611400	0.264000
H2331	H233	0.910200	0.683000	0.381600
H2341	H234	0.833600	0.551600	0.404800
H2351	H235	0.838000	0.577400	0.495800
H2361	H236	0.851500	0.536200	0.580800
H2371	H237	0.864500	0.583900	0.726200
H2381	H238	0.923600	0.668900	0.612300
H2391	H239	0.764100	0.326600	0.220800
H2401	H240	0.816800	0.264900	0.255400
H2411	H241	0.830200	0.218300	0.219000
H2421	H242	0.869400	0.264600	0.224200
H2431	H243	0.854500	0.287000	0.121800
H2441	H244	0.836700	0.230100	0.132400
H2451	H245	0.797600	0.269600	0.107500
H2461	H246	0.681100	0.445700	0.049600
H2471	H247	0.760900	0.355600	0.995600
H2481	H248	0.738900	0.365400	0.939800
H2491	H249	0.785600	0.398700	0.960600
H2501	H250	0.675500	0.478000	0.969300
H2511	H251	0.715100	0.459100	0.927000
H2521	H252	0.663800	0.427700	0.937400
H2531	H253	0.602700	0.418200	0.161600
H2541	H254	0.570800	0.309500	0.097600
H2551	H255	0.539800	0.290900	0.146600
H2561	H256	0.510600	0.320000	0.101900
H2571	H257	0.522000	0.421300	0.188700
H2581	H258	0.482000	0.395600	0.150600
H2591	H259	0.499300	0.366300	0.200900
H2601	H260	0.068400	0.380800	0.823600
H2611	H261	0.060100	0.459700	0.798700
H2621	H262	0.114300	0.483000	0.782900
H2631	H263	0.086100	0.502300	0.833200
H2641	H264	0.176800	0.419100	0.887900
H2651	H265	0.168000	0.478100	0.877800
H2661	H266	0.194100	0.443600	0.835100
H2671	H267	0.034300	0.283200	0.935600
H2681	H268	0.068100	0.312100	0.055400
H2691	H269	0.045100	0.256000	0.055500
H2701	H270	0.017800	0.299500	0.023100
H2711	H271	0.154000	0.247600	0.979600
H2721	H272	0.122500	0.215500	0.020500
H2731	H273	0.145100	0.269800	0.035400
H2741	H274	0.178900	0.229100	0.771300
H2751	H275	0.219500	0.198100	0.889800
H2761	H276	0.273500	0.176600	0.870700
H2771	H277	0.224800	0.140000	0.873800
H2781	H278	0.231300	0.169300	0.742400
H2791	H279	0.250900	0.126700	0.780900
H2801	H280	0.284300	0.176700	0.772000
H2811	H281	0.599600	0.132100	0.213400
H2821	H282	0.543900	0.149600	0.071000
H2831	H283	0.674400	0.068700	0.094500
H2841	H284	0.582400	0.160200	0.983200
H2851	H285	0.536500	0.152300	0.894900
H2861	H286	0.596900	0.161400	0.753600
H2871	H287	0.671500	0.083200	0.863200
H2881	H288	0.658200	0.888600	0.264000
H2891	H289	0.589800	0.817000	0.381600
H2901	H290	0.666400	0.948400	0.404800
H2911	H291	0.662000	0.922600	0.495800
H2921	H292	0.648500	0.963800	0.580800
H2931	H293	0.635500	0.916100	0.726200
H2941	H294	0.576400	0.831100	0.612300
H2951	H295	0.735900	0.173400	0.220800
H2961	H296	0.683200	0.235100	0.255400
H2971	H297	0.669800	0.281700	0.219000
H2981	H298	0.630600	0.235400	0.224200
H2991	H299	0.645500	0.213000	0.121800
H3001	H300	0.663300	0.269900	0.132400
H3011	H301	0.702400	0.230400	0.107500
H3021	H302	0.818900	0.054300	0.049600
H3031	H303	0.739100	0.144400	0.995600
H3041	H304	0.761100	0.134600	0.939800
H3051	H305	0.714400	0.101300	0.960600
H3061	H306	0.824500	0.022000	0.969300
H3071	H307	0.784900	0.040900	0.927000
H3081	H308	0.836200	0.072300	0.937400
H3091	H309	0.897300	0.081800	0.161600
H3101	H310	0.929200	0.190500	0.097600
H3111	H311	0.960200	0.209100	0.146600
H3121	H312	0.989400	0.180000	0.101900
H3131	H313	0.978000	0.078700	0.188700
H3141	H314	0.018000	0.104400	0.150600
H3151	H315	0.000700	0.133700	0.200900
H3161	H316	0.431600	0.119200	0.823600
H3171	H317	0.439900	0.040300	0.798700
H3181	H318	0.385700	0.017000	0.782900
H3191	H319	0.413900	0.997700	0.833200
H3201	H320	0.323200	0.080900	0.887900
H3211	H321	0.332000	0.021900	0.877800
H3221	H322	0.305900	0.056400	0.835100
H3231	H323	0.465700	0.216800	0.935600
H3241	H324	0.431900	0.187900	0.055400
H3251	H325	0.454900	0.244000	0.055500
H3261	H326	0.482200	0.200500	0.023100
H3271	H327	0.346000	0.252400	0.979600
H3281	H328	0.377500	0.284500	0.020500
H3291	H329	0.354900	0.230200	0.035400
H3301	H330	0.321100	0.270900	0.771300
H3311	H331	0.280500	0.301900	0.889800
H3321	H332	0.226500	0.323400	0.870700
H3331	H333	0.275200	0.360000	0.873800
H3341	H334	0.268700	0.330700	0.742400
H3351	H335	0.249100	0.373300	0.780900
H3361	H336	0.215700	0.323300	0.772000
H3371	H337	0.400400	0.632100	0.286600
H3381	H338	0.456100	0.649600	0.429000
H3391	H339	0.325600	0.568700	0.405500
H3401	H340	0.417600	0.660200	0.516800
H3411	H341	0.463500	0.652300	0.605100
H3421	H342	0.403100	0.661400	0.746400
H3431	H343	0.328500	0.583200	0.636800
H3441	H344	0.341800	0.388600	0.236000
H3451	H345	0.410200	0.317000	0.118400
H3461	H346	0.333600	0.448400	0.095200
H3471	H347	0.338000	0.422600	0.004200
H3481	H348	0.351500	0.463800	0.919200
H3491	H349	0.364500	0.416100	0.773800
H3501	H350	0.423600	0.331100	0.887700
H3511	H351	0.264100	0.673400	0.279200
H3521	H352	0.316800	0.735100	0.244600
H3531	H353	0.330200	0.781700	0.281000
H3541	H354	0.369400	0.735400	0.275800
H3551	H355	0.354500	0.713000	0.378200
H3561	H356	0.336700	0.769900	0.367600
H3571	H357	0.297600	0.730400	0.392500
H3581	H358	0.181100	0.554300	0.450400
H3591	H359	0.260900	0.644400	0.504400
H3601	H360	0.238900	0.634600	0.560200
H3611	H361	0.285600	0.601300	0.539400
H3621	H362	0.175500	0.522000	0.530700
H3631	H363	0.215100	0.540900	0.573000
H3641	H364	0.163800	0.572300	0.562600
H3651	H365	0.102700	0.581800	0.338400
H3661	H366	0.070800	0.690500	0.402400
H3671	H367	0.039800	0.709100	0.353400
H3681	H368	0.010600	0.680000	0.398100
H3691	H369	0.022000	0.578700	0.311300
H3701	H370	0.982000	0.604400	0.349400
H3711	H371	0.999300	0.633700	0.299100
H3721	H372	0.568400	0.619200	0.676400
H3731	H373	0.560100	0.540300	0.701300
H3741	H374	0.614300	0.517000	0.717100
H3751	H375	0.586100	0.497700	0.666800
H3761	H376	0.676800	0.580900	0.612100
H3771	H377	0.668000	0.521900	0.622200
H3781	H378	0.694100	0.556400	0.664900
H3791	H379	0.534300	0.716800	0.564400
H3801	H380	0.568100	0.687900	0.444600
H3811	H381	0.545100	0.744000	0.444500
H3821	H382	0.517800	0.700500	0.476900
H3831	H383	0.654000	0.752400	0.520400
H3841	H384	0.622500	0.784500	0.479500
H3851	H385	0.645100	0.730200	0.464600
H3861	H386	0.678900	0.770900	0.728700
H3871	H387	0.719500	0.801900	0.610200
H3881	H388	0.773500	0.823400	0.629300
H3891	H389	0.724800	0.860000	0.626200
H3901	H390	0.731300	0.830700	0.757600
H3911	H391	0.750900	0.873300	0.719100
H3921	H392	0.784300	0.823300	0.728000
H3931	H393	0.099600	0.867900	0.286600
H3941	H394	0.043900	0.850400	0.429000
H3951	H395	0.174400	0.931300	0.405500
H3961	H396	0.082400	0.839800	0.516800
H3971	H397	0.036500	0.847700	0.605100
H3981	H398	0.096900	0.838600	0.746400
H3991	H399	0.171500	0.916800	0.636800
H4001	H400	0.158200	0.111400	0.236000
H4011	H401	0.089800	0.183000	0.118400
H4021	H402	0.166400	0.051600	0.095200
H4031	H403	0.162000	0.077400	0.004200
H4041	H404	0.148500	0.036200	0.919200
H4051	H405	0.135500	0.083900	0.773800
H4061	H406	0.076400	0.168900	0.887700
H4071	H407	0.235900	0.826600	0.279200
H4081	H408	0.183200	0.764900	0.244600
H4091	H409	0.169800	0.718300	0.281000
H4101	H410	0.130600	0.764600	0.275800
H4111	H411	0.145500	0.787000	0.378200
H4121	H412	0.163300	0.730100	0.367600
H4131	H413	0.202400	0.769600	0.392500
H4141	H414	0.318900	0.945700	0.450400
H4151	H415	0.239100	0.855600	0.504400
H4161	H416	0.261100	0.865400	0.560200
H4171	H417	0.214400	0.898700	0.539400
H4181	H418	0.324500	0.978000	0.530700
H4191	H419	0.284900	0.959100	0.573000
H4201	H420	0.336200	0.927700	0.562600
H4211	H421	0.397300	0.918200	0.338400
H4221	H422	0.429200	0.809500	0.402400
H4231	H423	0.460200	0.790900	0.353400
H4241	H424	0.489400	0.820000	0.398100
H4251	H425	0.478000	0.921300	0.311300
H4261	H426	0.518000	0.895600	0.349400
H4271	H427	0.500700	0.866300	0.299100
H4281	H428	0.931600	0.880800	0.676400
H4291	H429	0.939900	0.959700	0.701300
H4301	H430	0.885700	0.983000	0.717100
H4311	H431	0.913900	0.002300	0.666800
H4321	H432	0.823200	0.919100	0.612100
H4331	H433	0.832000	0.978100	0.622200
H4341	H434	0.805900	0.943600	0.664900
H4351	H435	0.965700	0.783200	0.564400
H4361	H436	0.931900	0.812100	0.444600
H4371	H437	0.954900	0.756000	0.444500
H4381	H438	0.982200	0.799500	0.476900
H4391	H439	0.846000	0.747600	0.520400
H4401	H440	0.877500	0.715500	0.479500
H4411	H441	0.854900	0.769800	0.464600
H4421	H442	0.821100	0.729100	0.728700
H4431	H443	0.780500	0.698100	0.610200
H4441	H444	0.726500	0.676600	0.629300
H4451	H445	0.775200	0.640000	0.626200
H4461	H446	0.768700	0.669300	0.757600
H4471	H447	0.749100	0.626700	0.719100
H4481	H448	0.715700	0.676700	0.728000
C11	C1	0.181070	0.576590	0.804300
C21	C2	0.142740	0.597890	0.841030
C31	C3	0.102310	0.626460	0.822110
C41	C4	0.065940	0.646840	0.854460
C51	C5	0.023910	0.679460	0.834750
C61	C6	0.069020	0.636670	0.906440
C71	C7	0.109160	0.607600	0.924700
C81	C8	0.146810	0.588110	0.892490
C91	C9	0.097800	0.627720	0.018410
C101	C10	0.109980	0.601070	0.060420
C111	C11	0.105210	0.616390	0.112790
C121	C12	0.063260	0.644670	0.128310
C131	C13	0.060750	0.661750	0.178150
C141	C14	0.015140	0.692230	0.194110
C151	C15	0.098720	0.649420	0.212460
C161	C16	0.139910	0.619290	0.197000
C171	C17	0.180940	0.603170	0.233690
C181	C18	0.143290	0.603240	0.147380
C191	C19	0.199030	0.467470	0.688420
C201	C20	0.167530	0.423980	0.668320
C211	C21	0.150570	0.386570	0.700810
C221	C22	0.122430	0.346030	0.682430
C231	C23	0.102050	0.306060	0.716980
C241	C24	0.109390	0.344420	0.631330
C251	C25	0.125180	0.383280	0.599070
C261	C26	0.154810	0.422540	0.617420
C271	C27	0.109910	0.381460	0.546340
C281	C28	0.132310	0.401940	0.504970
C291	C29	0.111990	0.396040	0.411820
C301	C30	0.137160	0.439330	0.395340
C311	C31	0.145700	0.446610	0.343800
C321	C32	0.174450	0.492740	0.326240
C331	C33	0.128800	0.411370	0.308890
C341	C34	0.101600	0.368420	0.325240
C351	C35	0.081920	0.332280	0.287030
C361	C36	0.093930	0.360530	0.376420
C371	C37	0.226700	0.684100	0.812400
C381	C38	0.166900	0.745000	0.776600
C391	C39	0.174300	0.734500	0.868100
C401	C40	0.290600	0.574800	0.959800
C411	C41	0.246300	0.618500	0.030100
C421	C42	0.309200	0.551800	0.046900
C431	C43	0.400600	0.613400	0.855100
C441	C44	0.457300	0.682400	0.879100
C451	C45	0.489400	0.610800	0.826200
C461	C46	0.900100	0.613600	0.159200
C471	C47	0.907400	0.527100	0.188500
C481	C48	0.831600	0.555500	0.137800
C491	C49	0.932000	0.727900	0.056400
C501	C50	0.949200	0.713700	0.965100
C511	C51	0.870100	0.750300	0.991900
C521	C52	0.813300	0.778600	0.194400
C531	C53	0.763800	0.825500	0.133600
C541	C54	0.750600	0.836900	0.225700
C551	C55	0.318930	0.923410	0.804300
C561	C56	0.357260	0.902110	0.841030
C571	C57	0.397690	0.873540	0.822110
C581	C58	0.434060	0.853160	0.854460
C591	C59	0.476090	0.820540	0.834750
C601	C60	0.430980	0.863330	0.906440
C611	C61	0.390840	0.892400	0.924700
C621	C62	0.353190	0.911890	0.892490
C631	C63	0.402200	0.872280	0.018410
C641	C64	0.390020	0.898930	0.060420
C651	C65	0.394790	0.883610	0.112790
C661	C66	0.436740	0.855330	0.128310
C671	C67	0.439250	0.838250	0.178150
C681	C68	0.484860	0.807770	0.194110
C691	C69	0.401280	0.850580	0.212460
C701	C70	0.360090	0.880710	0.197000
C711	C71	0.319060	0.896830	0.233690
C721	C72	0.356710	0.896760	0.147380
C731	C73	0.300970	0.032530	0.688420
C741	C74	0.332470	0.076020	0.668320
C751	C75	0.349430	0.113430	0.700810
C761	C76	0.377570	0.153970	0.682430
C771	C77	0.397950	0.193940	0.716980
C781	C78	0.390610	0.155580	0.631330
C791	C79	0.374820	0.116720	0.599070
C801	C80	0.345190	0.077460	0.617420
C811	C81	0.390090	0.118540	0.546340
C821	C82	0.367690	0.098060	0.504970
C831	C83	0.388010	0.103960	0.411820
C841	C84	0.362840	0.060670	0.395340
C851	C85	0.354300	0.053390	0.343800
C861	C86	0.325550	0.007260	0.326240
C871	C87	0.371200	0.088630	0.308890
C881	C88	0.398400	0.131580	0.325240
C891	C89	0.418080	0.167720	0.287030
C901	C90	0.406070	0.139470	0.376420
C911	C91	0.273300	0.815900	0.812400
C921	C92	0.333100	0.755000	0.776600
C931	C93	0.325700	0.765500	0.868100
C941	C94	0.209400	0.925200	0.959800
C951	C95	0.253700	0.881500	0.030100
C961	C96	0.190800	0.948200	0.046900
C971	C97	0.099400	0.886600	0.855100
C981	C98	0.042700	0.817600	0.879100
C991	C99	0.010600	0.889200	0.826200
C1001	C100	0.599900	0.886400	0.159200
C1011	C101	0.592600	0.972900	0.188500
C1021	C102	0.668400	0.944500	0.137800
C1031	C103	0.568000	0.772100	0.056400
C1041	C104	0.550800	0.786300	0.965100
C1051	C105	0.629900	0.749700	0.991900
C1061	C106	0.686700	0.721400	0.194400
C1071	C107	0.736200	0.674500	0.133600
C1081	C108	0.749400	0.663100	0.225700
C1091	C109	0.681070	0.423410	0.695700
C1101	C110	0.642740	0.402110	0.658970
C1111	C111	0.602310	0.373540	0.677890
C1121	C112	0.565940	0.353160	0.645540
C1131	C113	0.523910	0.320540	0.665250
C1141	C114	0.569020	0.363330	0.593560
C1151	C115	0.609160	0.392400	0.575300
C1161	C116	0.646810	0.411890	0.607510
C1171	C117	0.597800	0.372280	0.481590
C1181	C118	0.609980	0.398930	0.439580
C1191	C119	0.605210	0.383610	0.387210
C1201	C120	0.563260	0.355330	0.371690
C1211	C121	0.560750	0.338250	0.321850
C1221	C122	0.515140	0.307770	0.305890
C1231	C123	0.598720	0.350580	0.287540
C1241	C124	0.639910	0.380710	0.303000
C1251	C125	0.680940	0.396830	0.266310
C1261	C126	0.643290	0.396760	0.352620
C1271	C127	0.699030	0.532530	0.811580
C1281	C128	0.667530	0.576020	0.831680
C1291	C129	0.650570	0.613430	0.799190
C1301	C130	0.622430	0.653970	0.817570
C1311	C131	0.602050	0.693940	0.783020
C1321	C132	0.609390	0.655580	0.868670
C1331	C133	0.625180	0.616720	0.900930
C1341	C134	0.654810	0.577460	0.882580
C1351	C135	0.609910	0.618540	0.953660
C1361	C136	0.632310	0.598060	0.995030
C1371	C137	0.611990	0.603960	0.088180
C1381	C138	0.637160	0.560670	0.104660
C1391	C139	0.645700	0.553390	0.156200
C1401	C140	0.674450	0.507260	0.173760
C1411	C141	0.628800	0.588630	0.191110
C1421	C142	0.601600	0.631580	0.174760
C1431	C143	0.581920	0.667720	0.212970
C1441	C144	0.593930	0.639470	0.123580
C1451	C145	0.726700	0.315900	0.687600
C1461	C146	0.666900	0.255000	0.723400
C1471	C147	0.674300	0.265500	0.631900
C1481	C148	0.790600	0.425200	0.540200
C1491	C149	0.746300	0.381500	0.469900
C1501	C150	0.809200	0.448200	0.453100
C1511	C151	0.900600	0.386600	0.644900
C1521	C152	0.957300	0.317600	0.620900
C1531	C153	0.989400	0.389200	0.673800
C1541	C154	0.400100	0.386400	0.340800
C1551	C155	0.407400	0.472900	0.311500
C1561	C156	0.331600	0.444500	0.362200
C1571	C157	0.432000	0.272100	0.443600
C1581	C158	0.449200	0.286300	0.534900
C1591	C159	0.370100	0.249700	0.508100
C1601	C160	0.313300	0.221400	0.305600
C1611	C161	0.263800	0.174500	0.366400
C1621	C162	0.250600	0.163100	0.274300
C1631	C163	0.818930	0.076590	0.695700
C1641	C164	0.857260	0.097890	0.658970
C1651	C165	0.897690	0.126460	0.677890
C1661	C166	0.934060	0.146840	0.645540
C1671	C167	0.976090	0.179460	0.665250
C1681	C168	0.930980	0.136670	0.593560
C1691	C169	0.890840	0.107600	0.575300
C1701	C170	0.853190	0.088110	0.607510
C1711	C171	0.902200	0.127720	0.481590
C1721	C172	0.890020	0.101070	0.439580
C1731	C173	0.894790	0.116390	0.387210
C1741	C174	0.936740	0.144670	0.371690
C1751	C175	0.939250	0.161750	0.321850
C1761	C176	0.984860	0.192230	0.305890
C1771	C177	0.901280	0.149420	0.287540
C1781	C178	0.860090	0.119290	0.303000
C1791	C179	0.819060	0.103170	0.266310
C1801	C180	0.856710	0.103240	0.352620
C1811	C181	0.800970	0.967470	0.811580
C1821	C182	0.832470	0.923980	0.831680
C1831	C183	0.849430	0.886570	0.799190
C1841	C184	0.877570	0.846030	0.817570
C1851	C185	0.897950	0.806060	0.783020
C1861	C186	0.890610	0.844420	0.868670
C1871	C187	0.874820	0.883280	0.900930
C1881	C188	0.845190	0.922540	0.882580
C1891	C189	0.890090	0.881460	0.953660
C1901	C190	0.867690	0.901940	0.995030
C1911	C191	0.888010	0.896040	0.088180
C1921	C192	0.862840	0.939330	0.104660
C1931	C193	0.854300	0.946610	0.156200
C1941	C194	0.825550	0.992740	0.173760
C1951	C195	0.871200	0.911370	0.191110
C1961	C196	0.898400	0.868420	0.174760
C1971	C197	0.918080	0.832280	0.212970
C1981	C198	0.906070	0.860530	0.123580
C1991	C199	0.773300	0.184100	0.687600
C2001	C200	0.833100	0.245000	0.723400
C2011	C201	0.825700	0.234500	0.631900
C2021	C202	0.709400	0.074800	0.540200
C2031	C203	0.753700	0.118500	0.469900
C2041	C204	0.690800	0.051800	0.453100
C2051	C205	0.599400	0.113400	0.644900
C2061	C206	0.542700	0.182400	0.620900
C2071	C207	0.510600	0.110800	0.673800
C2081	C208	0.099900	0.113600	0.340800
C2091	C209	0.092600	0.027100	0.311500
C2101	C210	0.168400	0.055500	0.362200
C2111	C211	0.068000	0.227900	0.443600
C2121	C212	0.050800	0.213700	0.534900
C2131	C213	0.129900	0.250300	0.508100
C2141	C214	0.186700	0.278600	0.305600
C2151	C215	0.236200	0.325500	0.366400
C2161	C216	0.249400	0.336900	0.274300
C2171	C217	0.818930	0.423410	0.195700
C2181	C218	0.857260	0.402110	0.158970
C2191	C219	0.897690	0.373540	0.177890
C2201	C220	0.934060	0.353160	0.145540
C2211	C221	0.976090	0.320540	0.165250
C2221	C222	0.930980	0.363330	0.093560
C2231	C223	0.890840	0.392400	0.075300
C2241	C224	0.853190	0.411890	0.107510
C2251	C225	0.902200	0.372280	0.981590
C2261	C226	0.890020	0.398930	0.939580
C2271	C227	0.894790	0.383610	0.887210
C2281	C228	0.936740	0.355330	0.871690
C2291	C229	0.939250	0.338250	0.821850
C2301	C230	0.984860	0.307770	0.805890
C2311	C231	0.901280	0.350580	0.787540
C2321	C232	0.860090	0.380710	0.803000
C2331	C233	0.819060	0.396830	0.766310
C2341	C234	0.856710	0.396760	0.852620
C2351	C235	0.800970	0.532530	0.311580
C2361	C236	0.832470	0.576020	0.331680
C2371	C237	0.849430	0.613430	0.299190
C2381	C238	0.877570	0.653970	0.317570
C2391	C239	0.897950	0.693940	0.283020
C2401	C240	0.890610	0.655580	0.368670
C2411	C241	0.874820	0.616720	0.400930
C2421	C242	0.845190	0.577460	0.382580
C2431	C243	0.890090	0.618540	0.453660
C2441	C244	0.867690	0.598060	0.495030
C2451	C245	0.888010	0.603960	0.588180
C2461	C246	0.862840	0.560670	0.604660
C2471	C247	0.854300	0.553390	0.656200
C2481	C248	0.825550	0.507260	0.673760
C2491	C249	0.871200	0.588630	0.691110
C2501	C250	0.898400	0.631580	0.674760
C2511	C251	0.918080	0.667720	0.712970
C2521	C252	0.906070	0.639470	0.623580
C2531	C253	0.773300	0.315900	0.187600
C2541	C254	0.833100	0.255000	0.223400
C2551	C255	0.825700	0.265500	0.131900
C2561	C256	0.709400	0.425200	0.040200
C2571	C257	0.753700	0.381500	0.969900
C2581	C258	0.690800	0.448200	0.953100
C2591	C259	0.599400	0.386600	0.144900
C2601	C260	0.542700	0.317600	0.120900
C2611	C261	0.510600	0.389200	0.173800
C2621	C262	0.099900	0.386400	0.840800
C2631	C263	0.092600	0.472900	0.811500
C2641	C264	0.168400	0.444500	0.862200
C2651	C265	0.068000	0.272100	0.943600
C2661	C266	0.050800	0.286300	0.034900
C2671	C267	0.129900	0.249700	0.008100
C2681	C268	0.186700	0.221400	0.805600
C2691	C269	0.236200	0.174500	0.866400
C2701	C270	0.249400	0.163100	0.774300
C2711	C271	0.681070	0.076590	0.195700
C2721	C272	0.642740	0.097890	0.158970
C2731	C273	0.602310	0.126460	0.177890
C2741	C274	0.565940	0.146840	0.145540
C2751	C275	0.523910	0.179460	0.165250
C2761	C276	0.569020	0.136670	0.093560
C2771	C277	0.609160	0.107600	0.075300
C2781	C278	0.646810	0.088110	0.107510
C2791	C279	0.597800	0.127720	0.981590
C2801	C280	0.609980	0.101070	0.939580
C2811	C281	0.605210	0.116390	0.887210
C2821	C282	0.563260	0.144670	0.871690
C2831	C283	0.560750	0.161750	0.821850
C2841	C284	0.515140	0.192230	0.805890
C2851	C285	0.598720	0.149420	0.787540
C2861	C286	0.639910	0.119290	0.803000
C2871	C287	0.680940	0.103170	0.766310
C2881	C288	0.643290	0.103240	0.852620
C2891	C289	0.699030	0.967470	0.311580
C2901	C290	0.667530	0.923980	0.331680
C2911	C291	0.650570	0.886570	0.299190
C2921	C292	0.622430	0.846030	0.317570
C2931	C293	0.602050	0.806060	0.283020
C2941	C294	0.609390	0.844420	0.368670
C2951	C295	0.625180	0.883280	0.400930
C2961	C296	0.654810	0.922540	0.382580
C2971	C297	0.609910	0.881460	0.453660
C2981	C298	0.632310	0.901940	0.495030
C2991	C299	0.611990	0.896040	0.588180
C3001	C300	0.637160	0.939330	0.604660
C3011	C301	0.645700	0.946610	0.656200
C3021	C302	0.674450	0.992740	0.673760
C3031	C303	0.628800	0.911370	0.691110
C3041	C304	0.601600	0.868420	0.674760
C3051	C305	0.581920	0.832280	0.712970
C3061	C306	0.593930	0.860530	0.623580
C3071	C307	0.726700	0.184100	0.187600
C3081	C308	0.666900	0.245000	0.223400
C3091	C309	0.674300	0.234500	0.131900
C3101	C310	0.790600	0.074800	0.040200
C3111	C311	0.746300	0.118500	0.969900
C3121	C312	0.809200	0.051800	0.953100
C3131	C313	0.900600	0.113400	0.144900
C3141	C314	0.957300	0.182400	0.120900
C3151	C315	0.989400	0.110800	0.173800
C3161	C316	0.400100	0.113600	0.840800
C3171	C317	0.407400	0.027100	0.811500
C3181	C318	0.331600	0.055500	0.862200
C3191	C319	0.432000	0.227900	0.943600
C3201	C320	0.449200	0.213700	0.034900
C3211	C321	0.370100	0.250300	0.008100
C3221	C322	0.313300	0.278600	0.805600
C3231	C323	0.263800	0.325500	0.866400
C3241	C324	0.250600	0.336900	0.774300
C3251	C325	0.318930	0.576590	0.304300
C3261	C326	0.357260	0.597890	0.341030
C3271	C327	0.397690	0.626460	0.322110
C3281	C328	0.434060	0.646840	0.354460
C3291	C329	0.476090	0.679460	0.334750
C3301	C330	0.430980	0.636670	0.406440
C3311	C331	0.390840	0.607600	0.424700
C3321	C332	0.353190	0.588110	0.392490
C3331	C333	0.402200	0.627720	0.518410
C3341	C334	0.390020	0.601070	0.560420
C3351	C335	0.394790	0.616390	0.612790
C3361	C336	0.436740	0.644670	0.628310
C3371	C337	0.439250	0.661750	0.678150
C3381	C338	0.484860	0.692230	0.694110
C3391	C339	0.401280	0.649420	0.712460
C3401	C340	0.360090	0.619290	0.697000
C3411	C341	0.319060	0.603170	0.733690
C3421	C342	0.356710	0.603240	0.647380
C3431	C343	0.300970	0.467470	0.188420
C3441	C344	0.332470	0.423980	0.168320
C3451	C345	0.349430	0.386570	0.200810
C3461	C346	0.377570	0.346030	0.182430
C3471	C347	0.397950	0.306060	0.216980
C3481	C348	0.390610	0.344420	0.131330
C3491	C349	0.374820	0.383280	0.099070
C3501	C350	0.345190	0.422540	0.117420
C3511	C351	0.390090	0.381460	0.046340
C3521	C352	0.367690	0.401940	0.004970
C3531	C353	0.388010	0.396040	0.911820
C3541	C354	0.362840	0.439330	0.895340
C3551	C355	0.354300	0.446610	0.843800
C3561	C356	0.325550	0.492740	0.826240
C3571	C357	0.371200	0.411370	0.808890
C3581	C358	0.398400	0.368420	0.825240
C3591	C359	0.418080	0.332280	0.787030
C3601	C360	0.406070	0.360530	0.876420
C3611	C361	0.273300	0.684100	0.312400
C3621	C362	0.333100	0.745000	0.276600
C3631	C363	0.325700	0.734500	0.368100
C3641	C364	0.209400	0.574800	0.459800
C3651	C365	0.253700	0.618500	0.530100
C3661	C366	0.190800	0.551800	0.546900
C3671	C367	0.099400	0.613400	0.355100
C3681	C368	0.042700	0.682400	0.379100
C3691	C369	0.010600	0.610800	0.326200
C3701	C370	0.599900	0.613600	0.659200
C3711	C371	0.592600	0.527100	0.688500
C3721	C372	0.668400	0.555500	0.637800
C3731	C373	0.568000	0.727900	0.556400
C3741	C374	0.550800	0.713700	0.465100
C3751	C375	0.629900	0.750300	0.491900
C3761	C376	0.686700	0.778600	0.694400
C3771	C377	0.736200	0.825500	0.633600
C3781	C378	0.749400	0.836900	0.725700
C3791	C379	0.181070	0.923410	0.304300
C3801	C380	0.142740	0.902110	0.341030
C3811	C381	0.102310	0.873540	0.322110
C3821	C382	0.065940	0.853160	0.354460
C3831	C383	0.023910	0.820540	0.334750
C3841	C384	0.069020	0.863330	0.406440
C3851	C385	0.109160	0.892400	0.424700
C3861	C386	0.146810	0.911890	0.392490
C3871	C387	0.097800	0.872280	0.518410
C3881	C388	0.109980	0.898930	0.560420
C3891	C389	0.105210	0.883610	0.612790
C3901	C390	0.063260	0.855330	0.628310
C3911	C391	0.060750	0.838250	0.678150
C3921	C392	0.015140	0.807770	0.694110
C3931	C393	0.098720	0.850580	0.712460
C3941	C394	0.139910	0.880710	0.697000
C3951	C395	0.180940	0.896830	0.733690
C3961	C396	0.143290	0.896760	0.647380
C3971	C397	0.199030	0.032530	0.188420
C3981	C398	0.167530	0.076020	0.168320
C3991	C399	0.150570	0.113430	0.200810
C4001	C400	0.122430	0.153970	0.182430
C4011	C401	0.102050	0.193940	0.216980
C4021	C402	0.109390	0.155580	0.131330
C4031	C403	0.125180	0.116720	0.099070
C4041	C404	0.154810	0.077460	0.117420
C4051	C405	0.109910	0.118540	0.046340
C4061	C406	0.132310	0.098060	0.004970
C4071	C407	0.111990	0.103960	0.911820
C4081	C408	0.137160	0.060670	0.895340
C4091	C409	0.145700	0.053390	0.843800
C4101	C410	0.174450	0.007260	0.826240
C4111	C411	0.128800	0.088630	0.808890
C4121	C412	0.101600	0.131580	0.825240
C4131	C413	0.081920	0.167720	0.787030
C4141	C414	0.093930	0.139470	0.876420
C4151	C415	0.226700	0.815900	0.312400
C4161	C416	0.166900	0.755000	0.276600
C4171	C417	0.174300	0.765500	0.368100
C4181	C418	0.290600	0.925200	0.459800
C4191	C419	0.246300	0.881500	0.530100
C4201	C420	0.309200	0.948200	0.546900
C4211	C421	0.400600	0.886600	0.355100
C4221	C422	0.457300	0.817600	0.379100
C4231	C423	0.489400	0.889200	0.326200
C4241	C424	0.900100	0.886400	0.659200
C4251	C425	0.907400	0.972900	0.688500
C4261	C426	0.831600	0.944500	0.637800
C4271	C427	0.932000	0.772100	0.556400
C4281	C428	0.949200	0.786300	0.465100
C4291	C429	0.870100	0.749700	0.491900
C4301	C430	0.813300	0.721400	0.694400
C4311	C431	0.763800	0.674500	0.633600
C4321	C432	0.750600	0.663100	0.725700
N11	N1	0.191700	0.719900	0.818000
N21	N2	0.282900	0.581400	0.009400
N31	N3	0.446800	0.634200	0.854200
N41	N4	0.881230	0.566370	0.158900
N51	N5	0.917400	0.726400	0.008900
N61	N6	0.777100	0.812500	0.185200
N71	N7	0.112470	0.597630	0.978750
N81	N8	0.131980	0.554010	0.997090
N91	N9	0.130580	0.556140	0.046720
N101	N10	0.065750	0.358310	0.531590
N111	N11	0.062230	0.361500	0.482150
N121	N12	0.104210	0.387230	0.465400
N131	N13	0.308300	0.780100	0.818000
N141	N14	0.217100	0.918600	0.009400
N151	N15	0.053200	0.865800	0.854200
N161	N16	0.618770	0.933630	0.158900
N171	N17	0.582600	0.773600	0.008900
N181	N18	0.722900	0.687500	0.185200
N191	N19	0.387530	0.902370	0.978750
N201	N20	0.368020	0.945990	0.997090
N211	N21	0.369420	0.943860	0.046720
N221	N22	0.434250	0.141690	0.531590
N231	N23	0.437770	0.138500	0.482150
N241	N24	0.395790	0.112770	0.465400
N251	N25	0.691700	0.280100	0.682000
N261	N26	0.782900	0.418600	0.490600
N271	N27	0.946800	0.365800	0.645800
N281	N28	0.381230	0.433630	0.341100
N291	N29	0.417400	0.273600	0.491100
N301	N30	0.277100	0.187500	0.314800
N311	N31	0.612470	0.402370	0.521250
N321	N32	0.631980	0.445990	0.502910
N331	N33	0.630580	0.443860	0.453280
N341	N34	0.565750	0.641690	0.968410
N351	N35	0.562230	0.638500	0.017850
N361	N36	0.604210	0.612770	0.034600
N371	N37	0.808300	0.219900	0.682000
N381	N38	0.717100	0.081400	0.490600
N391	N39	0.553200	0.134200	0.645800
N401	N40	0.118770	0.066370	0.341100
N411	N41	0.082600	0.226400	0.491100
N421	N42	0.222900	0.312500	0.314800
N431	N43	0.887530	0.097630	0.521250
N441	N44	0.868020	0.054010	0.502910
N451	N45	0.869420	0.056140	0.453280
N461	N46	0.934250	0.858310	0.968410
N471	N47	0.937770	0.861500	0.017850
N481	N48	0.895790	0.887230	0.034600
N491	N49	0.808300	0.280100	0.182000
N501	N50	0.717100	0.418600	0.990600
N511	N51	0.553200	0.365800	0.145800
N521	N52	0.118770	0.433630	0.841100
N531	N53	0.082600	0.273600	0.991100
N541	N54	0.222900	0.187500	0.814800
N551	N55	0.887530	0.402370	0.021250
N561	N56	0.868020	0.445990	0.002910
N571	N57	0.869420	0.443860	0.953280
N581	N58	0.934250	0.641690	0.468410
N591	N59	0.937770	0.638500	0.517850
N601	N60	0.895790	0.612770	0.534600
N611	N61	0.691700	0.219900	0.182000
N621	N62	0.782900	0.081400	0.990600
N631	N63	0.946800	0.134200	0.145800
N641	N64	0.381230	0.066370	0.841100
N651	N65	0.417400	0.226400	0.991100
N661	N66	0.277100	0.312500	0.814800
N671	N67	0.612470	0.097630	0.021250
N681	N68	0.631980	0.054010	0.002910
N691	N69	0.630580	0.056140	0.953280
N701	N70	0.565750	0.858310	0.468410
N711	N71	0.562230	0.861500	0.517850
N721	N72	0.604210	0.887230	0.534600
N731	N73	0.308300	0.719900	0.318000
N741	N74	0.217100	0.581400	0.509400
N751	N75	0.053200	0.634200	0.354200
N761	N76	0.618770	0.566370	0.658900
N771	N77	0.582600	0.726400	0.508900
N781	N78	0.722900	0.812500	0.685200
N791	N79	0.387530	0.597630	0.478750
N801	N80	0.368020	0.554010	0.497090
N811	N81	0.369420	0.556140	0.546720
N821	N82	0.434250	0.358310	0.031590
N831	N83	0.437770	0.361500	0.982150
N841	N84	0.395790	0.387230	0.965400
N851	N85	0.191700	0.780100	0.318000
N861	N86	0.282900	0.918600	0.509400
N871	N87	0.446800	0.865800	0.354200
N881	N88	0.881230	0.933630	0.658900
N891	N89	0.917400	0.773600	0.508900
N901	N90	0.777100	0.687500	0.685200
N911	N91	0.112470	0.902370	0.478750
N921	N92	0.131980	0.945990	0.497090
N931	N93	0.130580	0.943860	0.546720
N941	N94	0.065750	0.141690	0.031590
N951	N95	0.062230	0.138500	0.982150
N961	N96	0.104210	0.112770	0.965400
O11	O1	0.247800	0.664200	0.849600
O21	O2	0.265400	0.592200	0.925750
O31	O3	0.360900	0.630600	0.875300
O41	O4	0.879400	0.650200	0.138500
O51	O5	0.905400	0.742600	0.090400
O61	O6	0.837200	0.756600	0.161000
O71	O7	0.222910	0.557950	0.821910
O81	O8	0.171230	0.575160	0.758580
O91	O9	0.025810	0.688340	0.787120
O101	O10	0.990670	0.695440	0.863280
O111	O11	0.215960	0.576830	0.214600
O121	O12	0.177420	0.616070	0.279160
O131	O13	0.017880	0.713760	0.236540
O141	O14	0.977810	0.693620	0.164160
O151	O15	0.202100	0.469800	0.737100
O161	O16	0.225100	0.496000	0.660600
O171	O17	0.113370	0.308280	0.762430
O181	O18	0.074240	0.272870	0.696180
O191	O19	0.176940	0.529230	0.356450
O201	O20	0.193390	0.489930	0.282590
O211	O21	0.085470	0.341030	0.241570
O221	O22	0.059870	0.291590	0.303330
O231	O23	0.252200	0.835800	0.849600
O241	O24	0.234600	0.907800	0.925750
O251	O25	0.139100	0.869400	0.875300
O261	O26	0.620600	0.849800	0.138500
O271	O27	0.594600	0.757400	0.090400
O281	O28	0.662800	0.743400	0.161000
O291	O29	0.277090	0.942050	0.821910
O301	O30	0.328770	0.924840	0.758580
O311	O31	0.474190	0.811660	0.787120
O321	O32	0.509330	0.804560	0.863280
O331	O33	0.284040	0.923170	0.214600
O341	O34	0.322580	0.883930	0.279160
O351	O35	0.482120	0.786240	0.236540
O361	O36	0.522190	0.806380	0.164160
O371	O37	0.297900	0.030200	0.737100
O381	O38	0.274900	0.004000	0.660600
O391	O39	0.386630	0.191720	0.762430
O401	O40	0.425760	0.227130	0.696180
O411	O41	0.323060	0.970770	0.356450
O421	O42	0.306610	0.010070	0.282590
O431	O43	0.414530	0.158970	0.241570
O441	O44	0.440130	0.208410	0.303330
O451	O45	0.747800	0.335800	0.650400
O461	O46	0.765400	0.407800	0.574250
O471	O47	0.860900	0.369400	0.624700
O481	O48	0.379400	0.349800	0.361500
O491	O49	0.405400	0.257400	0.409600
O501	O50	0.337200	0.243400	0.339000
O511	O51	0.722910	0.442050	0.678090
O521	O52	0.671230	0.424840	0.741420
O531	O53	0.525810	0.311660	0.712880
O541	O54	0.490670	0.304560	0.636720
O551	O55	0.715960	0.423170	0.285400
O561	O56	0.677420	0.383930	0.220840
O571	O57	0.517880	0.286240	0.263460
O581	O58	0.477810	0.306380	0.335840
O591	O59	0.702100	0.530200	0.762900
O601	O60	0.725100	0.504000	0.839400
O611	O61	0.613370	0.691720	0.737570
O621	O62	0.574240	0.727130	0.803820
O631	O63	0.676940	0.470770	0.143550
O641	O64	0.693390	0.510070	0.217410
O651	O65	0.585470	0.658970	0.258430
O661	O66	0.559870	0.708410	0.196670
O671	O67	0.752200	0.164200	0.650400
O681	O68	0.734600	0.092200	0.574250
O691	O69	0.639100	0.130600	0.624700
O701	O70	0.120600	0.150200	0.361500
O711	O71	0.094600	0.242600	0.409600
O721	O72	0.162800	0.256600	0.339000
O731	O73	0.777090	0.057950	0.678090
O741	O74	0.828770	0.075160	0.741420
O751	O75	0.974190	0.188340	0.712880
O761	O76	0.009330	0.195440	0.636720
O771	O77	0.784040	0.076830	0.285400
O781	O78	0.822580	0.116070	0.220840
O791	O79	0.982120	0.213760	0.263460
O801	O80	0.022190	0.193620	0.335840
O811	O81	0.797900	0.969800	0.762900
O821	O82	0.774900	0.996000	0.839400
O831	O83	0.886630	0.808280	0.737570
O841	O84	0.925760	0.772870	0.803820
O851	O85	0.823060	0.029230	0.143550
O861	O86	0.806610	0.989930	0.217410
O871	O87	0.914530	0.841030	0.258430
O881	O88	0.940130	0.791590	0.196670
O891	O89	0.752200	0.335800	0.150400
O901	O90	0.734600	0.407800	0.074250
O911	O91	0.639100	0.369400	0.124700
O921	O92	0.120600	0.349800	0.861500
O931	O93	0.094600	0.257400	0.909600
O941	O94	0.162800	0.243400	0.839000
O951	O95	0.777090	0.442050	0.178090
O961	O96	0.828770	0.424840	0.241420
O971	O97	0.974190	0.311660	0.212880
O981	O98	0.009330	0.304560	0.136720
O991	O99	0.784040	0.423170	0.785400
O1001	O100	0.822580	0.383930	0.720840
O1011	O101	0.982120	0.286240	0.763460
O1021	O102	0.022190	0.306380	0.835840
O1031	O103	0.797900	0.530200	0.262900
O1041	O104	0.774900	0.504000	0.339400
O1051	O105	0.886630	0.691720	0.237570
O1061	O106	0.925760	0.727130	0.303820
O1071	O107	0.823060	0.470770	0.643550
O1081	O108	0.806610	0.510070	0.717410
O1091	O109	0.914530	0.658970	0.758430
O1101	O110	0.940130	0.708410	0.696670
O1111	O111	0.747800	0.164200	0.150400
O1121	O112	0.765400	0.092200	0.074250
O1131	O113	0.860900	0.130600	0.124700
O1141	O114	0.379400	0.150200	0.861500
O1151	O115	0.405400	0.242600	0.909600
O1161	O116	0.337200	0.256600	0.839000
O1171	O117	0.722910	0.057950	0.178090
O1181	O118	0.671230	0.075160	0.241420
O1191	O119	0.525810	0.188340	0.212880
O1201	O120	0.490670	0.195440	0.136720
O1211	O121	0.715960	0.076830	0.785400
O1221	O122	0.677420	0.116070	0.720840
O1231	O123	0.517880	0.213760	0.763460
O1241	O124	0.477810	0.193620	0.835840
O1251	O125	0.702100	0.969800	0.262900
O1261	O126	0.725100	0.996000	0.339400
O1271	O127	0.613370	0.808280	0.237570
O1281	O128	0.574240	0.772870	0.303820
O1291	O129	0.676940	0.029230	0.643550
O1301	O130	0.693390	0.989930	0.717410
O1311	O131	0.585470	0.841030	0.758430
O1321	O132	0.559870	0.791590	0.696670
O1331	O133	0.252200	0.664200	0.349600
O1341	O134	0.234600	0.592200	0.425750
O1351	O135	0.139100	0.630600	0.375300
O1361	O136	0.620600	0.650200	0.638500
O1371	O137	0.594600	0.742600	0.590400
O1381	O138	0.662800	0.756600	0.661000
O1391	O139	0.277090	0.557950	0.321910
O1401	O140	0.328770	0.575160	0.258580
O1411	O141	0.474190	0.688340	0.287120
O1421	O142	0.509330	0.695440	0.363280
O1431	O143	0.284040	0.576830	0.714600
O1441	O144	0.322580	0.616070	0.779160
O1451	O145	0.482120	0.713760	0.736540
O1461	O146	0.522190	0.693620	0.664160
O1471	O147	0.297900	0.469800	0.237100
O1481	O148	0.274900	0.496000	0.160600
O1491	O149	0.386630	0.308280	0.262430
O1501	O150	0.425760	0.272870	0.196180
O1511	O151	0.323060	0.529230	0.856450
O1521	O152	0.306610	0.489930	0.782590
O1531	O153	0.414530	0.341030	0.741570
O1541	O154	0.440130	0.291590	0.803330
O1551	O155	0.247800	0.835800	0.349600
O1561	O156	0.265400	0.907800	0.425750
O1571	O157	0.360900	0.869400	0.375300
O1581	O158	0.879400	0.849800	0.638500
O1591	O159	0.905400	0.757400	0.590400
O1601	O160	0.837200	0.743400	0.661000
O1611	O161	0.222910	0.942050	0.321910
O1621	O162	0.171230	0.924840	0.258580
O1631	O163	0.025810	0.811660	0.287120
O1641	O164	0.990670	0.804560	0.363280
O1651	O165	0.215960	0.923170	0.714600
O1661	O166	0.177420	0.883930	0.779160
O1671	O167	0.017880	0.786240	0.736540
O1681	O168	0.977810	0.806380	0.664160
O1691	O169	0.202100	0.030200	0.237100
O1701	O170	0.225100	0.004000	0.160600
O1711	O171	0.113370	0.191720	0.262430
O1721	O172	0.074240	0.227130	0.196180
O1731	O173	0.176940	0.970770	0.856450
O1741	O174	0.193390	0.010070	0.782590
O1751	O175	0.085470	0.158970	0.741570
O1761	O176	0.059870	0.208410	0.803330
