data_ZETQIA_freeONLY_PM
_symmetry_space_group_name_H-M	'P1'
_cell_length_a	12.073300
_cell_length_b	19.507700
_cell_length_c	19.507700
_cell_angle_alpha	84.504900
_cell_angle_beta	71.973900
_cell_angle_gamma	71.973800
_symmetry_Int_Tables_number 1

loop_
_symmetry_equiv_pos_as_xyz
'x,y,z'

loop_
_atom_site_label
_atom_site_type_symbol
_atom_site_fract_x
_atom_site_fract_y
_atom_site_fract_z
Nd11	Nd1	0.987300	0.202040	0.637000
Nd21	Nd2	0.931190	0.020540	0.605840
Nd31	Nd3	0.326340	0.297960	0.863000
Nd41	Nd4	0.057570	0.479460	0.894160
Nd51	Nd5	0.624300	0.363000	0.702040
Nd61	Nd6	0.537020	0.394170	0.520540
Nd71	Nd7	0.189340	0.137000	0.797960
Nd81	Nd8	0.951730	0.105840	0.979460
Nd91	Nd9	0.012700	0.797960	0.363000
Nd101	Nd10	0.068810	0.979460	0.394160
Nd111	Nd11	0.673660	0.702040	0.137000
Nd121	Nd12	0.942430	0.520540	0.105840
Nd131	Nd13	0.375700	0.637000	0.297960
Nd141	Nd14	0.462980	0.605830	0.479460
Nd151	Nd15	0.810660	0.863000	0.202040
Nd161	Nd16	0.048260	0.894170	0.020540
H11	H1	0.159000	0.206900	0.439700
H21	H2	0.272500	0.139700	0.437700
H31	H3	0.304600	0.090300	0.549900
H41	H4	0.369300	0.151000	0.534200
H51	H5	0.038700	0.945000	0.777800
H61	H6	0.172100	0.913900	0.727900
H71	H7	0.966900	0.839900	0.684300
H81	H8	0.985300	0.851700	0.758100
H91	H9	0.555800	0.152000	0.669400
H101	H10	0.619500	0.101100	0.722300
H111	H11	0.599100	0.073000	0.551200
H121	H12	0.642200	0.141400	0.548400
H131	H13	0.206400	0.231600	0.528600
H141	H14	0.110900	0.887600	0.647800
H151	H15	0.664800	0.030300	0.635900
H161	H16	0.305600	0.293100	0.060300
H171	H17	0.349900	0.360300	0.062300
H181	H18	0.444800	0.409700	0.950100
H191	H19	0.554500	0.349000	0.965800
H201	H20	0.261500	0.555000	0.722200
H211	H21	0.313900	0.586100	0.772100
H221	H22	0.991100	0.660100	0.815700
H231	H23	0.095100	0.648300	0.741900
H241	H24	0.877200	0.348000	0.830600
H251	H25	0.942900	0.398900	0.777700
H261	H26	0.723300	0.427000	0.948800
H271	H27	0.832000	0.358600	0.951600
H281	H28	0.466600	0.268400	0.971400
H291	H29	0.146300	0.612400	0.852200
H301	H30	0.831000	0.469700	0.864100
H311	H31	0.598700	0.560300	0.706900
H321	H32	0.710200	0.562300	0.639700
H331	H33	0.854500	0.450100	0.590300
H341	H34	0.903500	0.465800	0.651000
H351	H35	0.816500	0.222200	0.445000
H361	H36	0.900000	0.272100	0.413900
H371	H37	0.651200	0.315700	0.339900
H381	H38	0.743400	0.241900	0.351700
H391	H39	0.225200	0.330600	0.652000
H401	H40	0.341800	0.277700	0.601100
H411	H41	0.150300	0.448800	0.573000
H421	H42	0.190600	0.451600	0.641400
H431	H43	0.735000	0.471400	0.731600
H441	H44	0.758700	0.352200	0.387600
H451	H45	0.300700	0.364100	0.530300
H461	H46	0.365900	0.939700	0.793100
H471	H47	0.412200	0.937700	0.860300
H481	H48	0.394900	0.049900	0.909700
H491	H49	0.520300	0.034200	0.849000
H501	H50	0.983700	0.277800	0.055000
H511	H51	0.086000	0.227900	0.086100
H521	H52	0.806800	0.184300	0.160100
H531	H53	0.837000	0.258100	0.148300
H541	H54	0.707800	0.169400	0.848000
H551	H55	0.720600	0.222300	0.898900
H561	H56	0.672100	0.051200	0.927000
H571	H57	0.783600	0.048400	0.858600
H581	H58	0.438000	0.028600	0.768400
H591	H59	0.998500	0.147800	0.112400
H601	H60	0.695100	0.135900	0.969700
H611	H61	0.841000	0.793100	0.560300
H621	H62	0.727500	0.860300	0.562300
H631	H63	0.695400	0.909700	0.450100
H641	H64	0.630700	0.849000	0.465800
H651	H65	0.961300	0.055000	0.222200
H661	H66	0.827900	0.086100	0.272100
H671	H67	0.033100	0.160100	0.315700
H681	H68	0.014700	0.148300	0.241900
H691	H69	0.444200	0.848000	0.330600
H701	H70	0.380500	0.898900	0.277700
H711	H71	0.400900	0.927000	0.448800
H721	H72	0.357800	0.858600	0.451600
H731	H73	0.793600	0.768400	0.471400
H741	H74	0.889100	0.112400	0.352200
H751	H75	0.335200	0.969700	0.364100
H761	H76	0.694400	0.706900	0.939700
H771	H77	0.650100	0.639700	0.937700
H781	H78	0.555200	0.590300	0.049900
H791	H79	0.445500	0.651000	0.034200
H801	H80	0.738500	0.445000	0.277800
H811	H81	0.686100	0.413900	0.227900
H821	H82	0.008900	0.339900	0.184300
H831	H83	0.904900	0.351700	0.258100
H841	H84	0.122800	0.652000	0.169400
H851	H85	0.057100	0.601100	0.222300
H861	H86	0.276700	0.573000	0.051200
H871	H87	0.168000	0.641400	0.048400
H881	H88	0.533400	0.731600	0.028600
H891	H89	0.853700	0.387600	0.147800
H901	H90	0.169000	0.530300	0.135900
H911	H91	0.401300	0.439700	0.293100
H921	H92	0.289800	0.437700	0.360300
H931	H93	0.145500	0.549900	0.409700
H941	H94	0.096500	0.534200	0.349000
H951	H95	0.183500	0.777800	0.555000
H961	H96	0.100000	0.727900	0.586100
H971	H97	0.348800	0.684300	0.660100
H981	H98	0.256600	0.758100	0.648300
H991	H99	0.774800	0.669400	0.348000
H1001	H100	0.658200	0.722300	0.398900
H1011	H101	0.849700	0.551200	0.427000
H1021	H102	0.809400	0.548400	0.358600
H1031	H103	0.265000	0.528600	0.268400
H1041	H104	0.241300	0.647800	0.612400
H1051	H105	0.699300	0.635900	0.469700
H1061	H106	0.634100	0.060300	0.206900
H1071	H107	0.587800	0.062300	0.139700
H1081	H108	0.605100	0.950100	0.090300
H1091	H109	0.479700	0.965800	0.151000
H1101	H110	0.016300	0.722200	0.945000
H1111	H111	0.914000	0.772100	0.913900
H1121	H112	0.193200	0.815700	0.839900
H1131	H113	0.163000	0.741900	0.851700
H1141	H114	0.292200	0.830600	0.152000
H1151	H115	0.279400	0.777700	0.101100
H1161	H116	0.327900	0.948800	0.073000
H1171	H117	0.216400	0.951600	0.141400
H1181	H118	0.562000	0.971400	0.231600
H1191	H119	0.001500	0.852200	0.887600
H1201	H120	0.304900	0.864100	0.030300
C11	C1	0.110950	0.115490	0.478210
C21	C2	0.190400	0.164600	0.466400
C31	C3	0.294500	0.139800	0.560400
C41	C4	0.271910	0.147610	0.640570
C51	C5	0.101790	0.022050	0.712970
C61	C6	0.092100	0.945900	0.729100
C71	C7	0.961800	0.876200	0.716800
C81	C8	0.832700	0.924400	0.741600
C91	C9	0.709640	0.173530	0.671790
C101	C10	0.634100	0.124000	0.675200
C111	C11	0.667300	0.089200	0.551400
C121	C12	0.772700	0.059500	0.485700
C131	C13	0.204650	0.384510	0.021790
C141	C14	0.321400	0.335400	0.033600
C151	C15	0.494700	0.360200	0.939600
C161	C16	0.560090	0.352390	0.859430
C171	C17	0.336810	0.477950	0.787030
C181	C18	0.267100	0.554100	0.770900
C191	C19	0.054800	0.623800	0.783200
C201	C20	0.998700	0.575600	0.758400
C211	C21	0.054960	0.326470	0.828210
C221	C22	0.933300	0.376000	0.824800
C231	C23	0.807900	0.410800	0.948600
C241	C24	0.817900	0.440500	0.014300
C251	C25	0.589160	0.521790	0.615490
C261	C26	0.656800	0.533600	0.664600
C271	C27	0.854900	0.439600	0.639800
C281	C28	0.912480	0.359430	0.647610
C291	C29	0.814760	0.287030	0.522050
C301	C30	0.821200	0.270900	0.445900
C311	C31	0.678600	0.283200	0.376200
C321	C32	0.574300	0.258400	0.424400
C331	C33	0.381430	0.328210	0.673530
C341	C34	0.309300	0.324800	0.624000
C351	C35	0.218700	0.448600	0.589200
C361	C36	0.258400	0.514300	0.559500
C371	C37	0.226440	0.978210	0.884510
C381	C38	0.355000	0.966400	0.835400
C391	C39	0.434300	0.060400	0.860200
C401	C40	0.419520	0.140570	0.852390
C411	C41	0.123840	0.212970	0.977950
C421	C42	0.038000	0.229100	0.054100
C431	C43	0.838000	0.216800	0.123800
C441	C44	0.757100	0.241600	0.075600
C451	C45	0.883170	0.171790	0.826470
C461	C46	0.758100	0.175200	0.876000
C471	C47	0.756500	0.051400	0.910800
C481	C48	0.832200	0.985700	0.940500
C491	C49	0.889050	0.884510	0.521790
C501	C50	0.809600	0.835400	0.533600
C511	C51	0.705500	0.860200	0.439600
C521	C52	0.728090	0.852390	0.359430
C531	C53	0.898210	0.977950	0.287030
C541	C54	0.907900	0.054100	0.270900
C551	C55	0.038200	0.123800	0.283200
C561	C56	0.167300	0.075600	0.258400
C571	C57	0.290360	0.826470	0.328210
C581	C58	0.365900	0.876000	0.324800
C591	C59	0.332700	0.910800	0.448600
C601	C60	0.227300	0.940500	0.514300
C611	C61	0.795350	0.615490	0.978210
C621	C62	0.678600	0.664600	0.966400
C631	C63	0.505300	0.639800	0.060400
C641	C64	0.439910	0.647610	0.140570
C651	C65	0.663190	0.522050	0.212970
C661	C66	0.732900	0.445900	0.229100
C671	C67	0.945200	0.376200	0.216800
C681	C68	0.001300	0.424400	0.241600
C691	C69	0.945040	0.673530	0.171790
C701	C70	0.066700	0.624000	0.175200
C711	C71	0.192100	0.589200	0.051400
C721	C72	0.182100	0.559500	0.985700
C731	C73	0.410840	0.478210	0.384510
C741	C74	0.343200	0.466400	0.335400
C751	C75	0.145100	0.560400	0.360200
C761	C76	0.087520	0.640570	0.352390
C771	C77	0.185240	0.712970	0.477950
C781	C78	0.178800	0.729100	0.554100
C791	C79	0.321400	0.716800	0.623800
C801	C80	0.425700	0.741600	0.575600
C811	C81	0.618570	0.671790	0.326470
C821	C82	0.690700	0.675200	0.376000
C831	C83	0.781300	0.551400	0.410800
C841	C84	0.741600	0.485700	0.440500
C851	C85	0.773560	0.021790	0.115490
C861	C86	0.645000	0.033600	0.164600
C871	C87	0.565700	0.939600	0.139800
C881	C88	0.580480	0.859430	0.147610
C891	C89	0.876160	0.787030	0.022050
C901	C90	0.962000	0.770900	0.945900
C911	C91	0.162000	0.783200	0.876200
C921	C92	0.242900	0.758400	0.924400
C931	C93	0.116830	0.828210	0.173530
C941	C94	0.241900	0.824800	0.124000
C951	C95	0.243500	0.948600	0.089200
C961	C96	0.167800	0.014300	0.059500
N11	N1	0.194150	0.187400	0.535900
N21	N2	0.045930	0.917510	0.679830
N31	N3	0.694810	0.068140	0.619040
N41	N4	0.417450	0.312600	0.964100
N51	N5	0.143270	0.582490	0.820170
N61	N6	0.881990	0.431860	0.880960
N71	N7	0.730050	0.464100	0.687400
N81	N8	0.725760	0.320170	0.417510
N91	N9	0.313850	0.380960	0.568140
N101	N10	0.381550	0.035900	0.812600
N111	N11	0.963440	0.179830	0.082490
N121	N12	0.762950	0.119040	0.931860
N131	N13	0.805850	0.812600	0.464100
N141	N14	0.954070	0.082490	0.320170
N151	N15	0.305190	0.931860	0.380960
N161	N16	0.582550	0.687400	0.035900
N171	N17	0.856730	0.417510	0.179830
N181	N18	0.118010	0.568140	0.119040
N191	N19	0.269950	0.535900	0.312600
N201	N20	0.274240	0.679830	0.582490
N211	N21	0.686150	0.619040	0.431860
N221	N22	0.618450	0.964100	0.187400
N231	N23	0.036560	0.820170	0.917510
N241	N24	0.237050	0.880960	0.068140
O11	O1	0.045110	0.108690	0.541290
O21	O2	0.114580	0.084720	0.423720
O31	O3	0.162930	0.180710	0.677630
O41	O4	0.352930	0.121430	0.669510
O51	O5	0.035570	0.063640	0.677420
O61	O6	0.170790	0.038840	0.739780
O71	O7	0.812890	0.989370	0.723850
O81	O8	0.750900	0.894000	0.773000
O91	O9	0.824810	0.147550	0.643830
O101	O10	0.660080	0.234980	0.697660
O111	O11	0.881730	0.046400	0.490540
O121	O12	0.752390	0.050000	0.430020
O131	O13	0.195090	0.391310	0.958710
O141	O14	0.123020	0.415280	0.076280
O151	O15	0.521270	0.319290	0.822370
O161	O16	0.643870	0.378570	0.830490
O171	O17	0.276630	0.436360	0.822580
O181	O18	0.449410	0.461160	0.760220
O191	O19	0.026110	0.510630	0.776150
O201	O20	0.917900	0.606000	0.727000
O211	O21	0.116190	0.352450	0.856170
O221	O22	0.092720	0.265020	0.802340
O231	O23	0.918670	0.453600	0.009460
O241	O24	0.732410	0.450000	0.069980
O251	O25	0.586400	0.458710	0.608690
O261	O26	0.538300	0.576280	0.584720
O271	O27	0.840560	0.322370	0.680710
O281	O28	0.022440	0.330490	0.621430
O291	O29	0.712990	0.322580	0.563640
O301	O30	0.910570	0.260220	0.538840
O311	O31	0.536740	0.276150	0.489370
O321	O32	0.523900	0.227000	0.394000
O331	O33	0.468640	0.356170	0.647550
O341	O34	0.357740	0.302340	0.734980
O351	O35	0.372270	0.509460	0.546400
O361	O36	0.182410	0.569980	0.550000
O371	O37	0.153800	0.041290	0.891310
O381	O38	0.199300	0.923720	0.915280
O391	O39	0.343640	0.177630	0.819290
O401	O40	0.474360	0.169510	0.878570
O411	O41	0.099210	0.177420	0.936360
O421	O42	0.209630	0.239780	0.961160
O431	O43	0.802260	0.223850	0.010630
O441	O44	0.644900	0.273000	0.106000
O451	O45	0.972360	0.143830	0.852450
O461	O46	0.895060	0.197660	0.765020
O471	O47	0.928130	0.990540	0.953600
O481	O48	0.802390	0.930020	0.950000
O491	O49	0.954890	0.891310	0.458710
O501	O50	0.885420	0.915280	0.576280
O511	O51	0.837070	0.819290	0.322370
O521	O52	0.647070	0.878570	0.330490
O531	O53	0.964430	0.936360	0.322580
O541	O54	0.829210	0.961160	0.260220
O551	O55	0.187110	0.010630	0.276150
O561	O56	0.249100	0.106000	0.227000
O571	O57	0.175190	0.852450	0.356170
O581	O58	0.339920	0.765020	0.302340
O591	O59	0.118270	0.953600	0.509460
O601	O60	0.247610	0.950000	0.569980
O611	O61	0.804910	0.608690	0.041290
O621	O62	0.876980	0.584720	0.923720
O631	O63	0.478730	0.680710	0.177630
O641	O64	0.356130	0.621430	0.169510
O651	O65	0.723370	0.563640	0.177420
O661	O66	0.550590	0.538840	0.239780
O671	O67	0.973890	0.489370	0.223850
O681	O68	0.082100	0.394000	0.273000
O691	O69	0.883810	0.647550	0.143830
O701	O70	0.907280	0.734980	0.197660
O711	O71	0.081330	0.546400	0.990540
O721	O72	0.267590	0.550000	0.930020
O731	O73	0.413600	0.541290	0.391310
O741	O74	0.461700	0.423720	0.415280
O751	O75	0.159440	0.677630	0.319290
O761	O76	0.977560	0.669510	0.378570
O771	O77	0.287010	0.677420	0.436360
O781	O78	0.089430	0.739780	0.461160
O791	O79	0.463260	0.723850	0.510630
O801	O80	0.476100	0.773000	0.606000
O811	O81	0.531360	0.643830	0.352450
O821	O82	0.642260	0.697660	0.265020
O831	O83	0.627730	0.490540	0.453600
O841	O84	0.817590	0.430020	0.450000
O851	O85	0.846200	0.958710	0.108690
O861	O86	0.800700	0.076280	0.084720
O871	O87	0.656360	0.822370	0.180710
O881	O88	0.525640	0.830490	0.121430
O891	O89	0.900790	0.822580	0.063640
O901	O90	0.790370	0.760220	0.038840
O911	O91	0.197740	0.776150	0.989370
O921	O92	0.355100	0.727000	0.894000
O931	O93	0.027640	0.856170	0.147550
O941	O94	0.104940	0.802340	0.234980
O951	O95	0.071870	0.009460	0.046400
O961	O96	0.197610	0.069980	0.050000
