data_ZIMJOW_freeONLY_PM
_symmetry_space_group_name_H-M	'P1'
_cell_length_a	11.799200
_cell_length_b	11.860600
_cell_length_c	13.630100
_cell_angle_alpha	95.263000
_cell_angle_beta	108.547000
_cell_angle_gamma	108.081000
_symmetry_Int_Tables_number 1

loop_
_symmetry_equiv_pos_as_xyz
'x,y,z'

loop_
_atom_site_label
_atom_site_type_symbol
_atom_site_fract_x
_atom_site_fract_y
_atom_site_fract_z
Ce11	Ce1	0.001390	0.997800	0.749800
Ce21	Ce2	0.372530	0.358640	0.612350
Ce31	Ce3	0.998610	0.002200	0.250200
Ce41	Ce4	0.627470	0.641360	0.387650
H11	H1	0.619200	0.195200	0.693700
H21	H2	0.469000	0.833100	0.584000
H31	H3	0.533700	0.169900	0.863700
H41	H4	0.396600	0.815600	0.869700
H51	H5	0.232100	0.925400	0.512100
H61	H6	0.705700	0.897500	0.954100
H71	H7	0.140000	0.310000	0.669000
H81	H8	0.069000	0.346000	0.593000
H91	H9	0.130900	0.503300	0.399500
H101	H10	0.168300	0.388600	0.384300
H111	H11	0.443300	0.608000	0.533300
H121	H12	0.159000	0.419000	0.223000
H131	H13	0.127000	0.517000	0.232000
H141	H14	0.476000	0.589000	0.816600
H151	H15	0.437000	0.620000	0.727000
H161	H16	0.380800	0.804800	0.306300
H171	H17	0.531000	0.166900	0.416000
H181	H18	0.466300	0.830100	0.136300
H191	H19	0.603400	0.184400	0.130300
H201	H20	0.767900	0.074600	0.487900
H211	H21	0.294300	0.102500	0.045900
H221	H22	0.860000	0.690000	0.331000
H231	H23	0.931000	0.654000	0.407000
H241	H24	0.869100	0.496700	0.600500
H251	H25	0.831700	0.611400	0.615700
H261	H26	0.556700	0.392000	0.466700
H271	H27	0.841000	0.581000	0.777000
H281	H28	0.873000	0.483000	0.768000
H291	H29	0.524000	0.411000	0.183400
H301	H30	0.563000	0.380000	0.273000
C11	C1	0.748100	0.110500	0.715230
C21	C2	0.628100	0.120400	0.682310
C31	C3	0.522200	0.015200	0.631840
C41	C4	0.539100	0.905100	0.615140
C51	C5	0.663000	0.905000	0.646000
C61	C6	0.869600	0.217100	0.777210
C71	C7	0.391200	0.023400	0.592100
C81	C8	0.695300	0.794600	0.620850
C91	C9	0.341000	0.096000	0.821790
C101	C10	0.466000	0.098800	0.854720
C111	C11	0.487600	0.993000	0.873900
C121	C12	0.384700	0.888200	0.859290
C131	C13	0.263000	0.894900	0.828600
C141	C14	0.304000	0.202200	0.791930
C151	C15	0.623800	0.997300	0.913920
C161	C16	0.143700	0.789000	0.813630
C171	C17	0.069200	0.046200	0.023860
C181	C18	0.041700	0.960400	0.508530
C191	C19	0.316100	0.547200	0.409100
C201	C20	0.177200	0.467600	0.366800
C211	C21	0.251900	0.889500	0.284770
C221	C22	0.371900	0.879600	0.317690
C231	C23	0.477800	0.984800	0.368160
C241	C24	0.460900	0.094900	0.384860
C251	C25	0.337000	0.095000	0.354000
C261	C26	0.130400	0.782900	0.222790
C271	C27	0.608800	0.976600	0.407900
C281	C28	0.304700	0.205400	0.379150
C291	C29	0.659000	0.904000	0.178210
C301	C30	0.534000	0.901200	0.145280
C311	C31	0.512400	0.007000	0.126100
C321	C32	0.615300	0.111800	0.140710
C331	C33	0.737000	0.105100	0.171400
C341	C34	0.696000	0.797800	0.208070
C351	C35	0.376200	0.002700	0.086080
C361	C36	0.856300	0.211000	0.186370
C371	C37	0.930800	0.953800	0.976140
C381	C38	0.958300	0.039600	0.491470
C391	C39	0.683900	0.452800	0.590900
C401	C40	0.822800	0.532400	0.633200
N11	N1	0.765290	0.006100	0.695590
N21	N2	0.242060	0.996630	0.810870
N31	N3	0.122400	0.453300	0.251300
N41	N4	0.234710	0.993900	0.304410
N51	N5	0.757940	0.003370	0.189130
N61	N6	0.877600	0.546700	0.748700
O11	O1	0.971460	0.194050	0.806400
O21	O2	0.862060	0.317740	0.798520
O31	O3	0.302300	0.918200	0.532500
O41	O4	0.373230	0.117450	0.599870
O51	O5	0.607040	0.693790	0.580550
O61	O6	0.811290	0.812770	0.639490
O71	O7	0.186450	0.185150	0.759720
O81	O8	0.389380	0.299290	0.797950
O91	O9	0.630570	0.892010	0.932430
O101	O10	0.713940	0.088560	0.929920
O111	O11	0.153110	0.687620	0.821090
O121	O12	0.042160	0.809950	0.794420
O131	O13	0.124150	0.077170	0.959970
O141	O14	0.116020	0.082310	0.122160
O151	O15	0.069590	0.929080	0.595190
O161	O16	0.076100	0.935070	0.433810
O171	O17	0.143500	0.356500	0.628800
O181	O18	0.367590	0.564170	0.512820
O191	O19	0.372020	0.588970	0.353700
O201	O20	0.486000	0.587800	0.758730
O211	O21	0.028540	0.805950	0.193600
O221	O22	0.137940	0.682260	0.201480
O231	O23	0.697700	0.081800	0.467500
O241	O24	0.626770	0.882550	0.400130
O251	O25	0.392960	0.306210	0.419450
O261	O26	0.188710	0.187230	0.360510
O271	O27	0.813550	0.814850	0.240280
O281	O28	0.610620	0.700710	0.202050
O291	O29	0.369430	0.107990	0.067570
O301	O30	0.286060	0.911440	0.070080
O311	O31	0.846890	0.312380	0.178910
O321	O32	0.957840	0.190050	0.205580
O331	O33	0.875850	0.922830	0.040030
O341	O34	0.883980	0.917690	0.877840
O351	O35	0.930410	0.070920	0.404810
O361	O36	0.923900	0.064930	0.566190
O371	O37	0.856500	0.643500	0.371200
O381	O38	0.632410	0.435830	0.487180
O391	O39	0.627980	0.411030	0.646300
O401	O40	0.514000	0.412200	0.241270
