data_image0
_cell_length_a       26.647
_cell_length_b       26.647
_cell_length_c       26.647
_cell_angle_alpha    90
_cell_angle_beta     90
_cell_angle_gamma    90

_symmetry_space_group_name_H-M    "P 1"
_symmetry_int_tables_number       1

loop_
  _symmetry_equiv_pos_as_xyz
  'x, y, z'

loop_
  _atom_site_label
  _atom_site_occupancy
  _atom_site_fract_x
  _atom_site_fract_y
  _atom_site_fract_z
  _atom_site_thermal_displace_type
  _atom_site_B_iso_or_equiv
  _atom_site_type_symbol
  O1       1.0000 0.24260  0.31700  0.05310  Biso   1.000  O
  O2       1.0000 0.24260  0.81700  0.55310  Biso   1.000  O
  O3       1.0000 0.74260  0.31700  0.55310  Biso   1.000  O
  O4       1.0000 0.74260  0.81700  0.05310  Biso   1.000  O
  O5       1.0000 0.75740  0.68300  0.05310  Biso   1.000  O
  O6       1.0000 0.75740  0.18300  0.55310  Biso   1.000  O
  O7       1.0000 0.25740  0.68300  0.55310  Biso   1.000  O
  O8       1.0000 0.25740  0.18300  0.05310  Biso   1.000  O
  O9       1.0000 0.75740  0.31700  0.94690  Biso   1.000  O
  O10      1.0000 0.75740  0.81700  0.44690  Biso   1.000  O
  O11      1.0000 0.25740  0.31700  0.44690  Biso   1.000  O
  O12      1.0000 0.25740  0.81700  0.94690  Biso   1.000  O
  O13      1.0000 0.24260  0.68300  0.94690  Biso   1.000  O
  O14      1.0000 0.24260  0.18300  0.44690  Biso   1.000  O
  O15      1.0000 0.74260  0.68300  0.44690  Biso   1.000  O
  O16      1.0000 0.74260  0.18300  0.94690  Biso   1.000  O
  O17      1.0000 0.05310  0.24260  0.31700  Biso   1.000  O
  O18      1.0000 0.05310  0.74260  0.81700  Biso   1.000  O
  O19      1.0000 0.55310  0.24260  0.81700  Biso   1.000  O
  O20      1.0000 0.55310  0.74260  0.31700  Biso   1.000  O
  O21      1.0000 0.05310  0.75740  0.68300  Biso   1.000  O
  O22      1.0000 0.05310  0.25740  0.18300  Biso   1.000  O
  O23      1.0000 0.55310  0.75740  0.18300  Biso   1.000  O
  O24      1.0000 0.55310  0.25740  0.68300  Biso   1.000  O
  O25      1.0000 0.94690  0.75740  0.31700  Biso   1.000  O
  O26      1.0000 0.94690  0.25740  0.81700  Biso   1.000  O
  O27      1.0000 0.44690  0.75740  0.81700  Biso   1.000  O
  O28      1.0000 0.44690  0.25740  0.31700  Biso   1.000  O
  O29      1.0000 0.94690  0.24260  0.68300  Biso   1.000  O
  O30      1.0000 0.94690  0.74260  0.18300  Biso   1.000  O
  O31      1.0000 0.44690  0.24260  0.18300  Biso   1.000  O
  O32      1.0000 0.44690  0.74260  0.68300  Biso   1.000  O
  O33      1.0000 0.31700  0.05310  0.24260  Biso   1.000  O
  O34      1.0000 0.31700  0.55310  0.74260  Biso   1.000  O
  O35      1.0000 0.81700  0.05310  0.74260  Biso   1.000  O
  O36      1.0000 0.81700  0.55310  0.24260  Biso   1.000  O
  O37      1.0000 0.68300  0.05310  0.75740  Biso   1.000  O
  O38      1.0000 0.68300  0.55310  0.25740  Biso   1.000  O
  O39      1.0000 0.18300  0.05310  0.25740  Biso   1.000  O
  O40      1.0000 0.18300  0.55310  0.75740  Biso   1.000  O
  O41      1.0000 0.31700  0.94690  0.75740  Biso   1.000  O
  O42      1.0000 0.31700  0.44690  0.25740  Biso   1.000  O
  O43      1.0000 0.81700  0.94690  0.25740  Biso   1.000  O
  O44      1.0000 0.81700  0.44690  0.75740  Biso   1.000  O
  O45      1.0000 0.68300  0.94690  0.24260  Biso   1.000  O
  O46      1.0000 0.68300  0.44690  0.74260  Biso   1.000  O
  O47      1.0000 0.18300  0.94690  0.74260  Biso   1.000  O
  O48      1.0000 0.18300  0.44690  0.24260  Biso   1.000  O
  O49      1.0000 0.31700  0.24260  0.94690  Biso   1.000  O
  O50      1.0000 0.31700  0.74260  0.44690  Biso   1.000  O
  O51      1.0000 0.81700  0.24260  0.44690  Biso   1.000  O
  O52      1.0000 0.81700  0.74260  0.94690  Biso   1.000  O
  O53      1.0000 0.68300  0.75740  0.94690  Biso   1.000  O
  O54      1.0000 0.68300  0.25740  0.44690  Biso   1.000  O
  O55      1.0000 0.18300  0.75740  0.44690  Biso   1.000  O
  O56      1.0000 0.18300  0.25740  0.94690  Biso   1.000  O
  O57      1.0000 0.31700  0.75740  0.05310  Biso   1.000  O
  O58      1.0000 0.31700  0.25740  0.55310  Biso   1.000  O
  O59      1.0000 0.81700  0.75740  0.55310  Biso   1.000  O
  O60      1.0000 0.81700  0.25740  0.05310  Biso   1.000  O
  O61      1.0000 0.68300  0.24260  0.05310  Biso   1.000  O
  O62      1.0000 0.68300  0.74260  0.55310  Biso   1.000  O
  O63      1.0000 0.18300  0.24260  0.55310  Biso   1.000  O
  O64      1.0000 0.18300  0.74260  0.05310  Biso   1.000  O
  O65      1.0000 0.24260  0.05310  0.68300  Biso   1.000  O
  O66      1.0000 0.24260  0.55310  0.18300  Biso   1.000  O
  O67      1.0000 0.74260  0.05310  0.18300  Biso   1.000  O
  O68      1.0000 0.74260  0.55310  0.68300  Biso   1.000  O
  O69      1.0000 0.75740  0.05310  0.31700  Biso   1.000  O
  O70      1.0000 0.75740  0.55310  0.81700  Biso   1.000  O
  O71      1.0000 0.25740  0.05310  0.81700  Biso   1.000  O
  O72      1.0000 0.25740  0.55310  0.31700  Biso   1.000  O
  O73      1.0000 0.75740  0.94690  0.68300  Biso   1.000  O
  O74      1.0000 0.75740  0.44690  0.18300  Biso   1.000  O
  O75      1.0000 0.25740  0.94690  0.18300  Biso   1.000  O
  O76      1.0000 0.25740  0.44690  0.68300  Biso   1.000  O
  O77      1.0000 0.24260  0.94690  0.31700  Biso   1.000  O
  O78      1.0000 0.24260  0.44690  0.81700  Biso   1.000  O
  O79      1.0000 0.74260  0.94690  0.81700  Biso   1.000  O
  O80      1.0000 0.74260  0.44690  0.31700  Biso   1.000  O
  O81      1.0000 0.05310  0.31700  0.75740  Biso   1.000  O
  O82      1.0000 0.05310  0.81700  0.25740  Biso   1.000  O
  O83      1.0000 0.55310  0.31700  0.25740  Biso   1.000  O
  O84      1.0000 0.55310  0.81700  0.75740  Biso   1.000  O
  O85      1.0000 0.05310  0.68300  0.24260  Biso   1.000  O
  O86      1.0000 0.05310  0.18300  0.74260  Biso   1.000  O
  O87      1.0000 0.55310  0.68300  0.74260  Biso   1.000  O
  O88      1.0000 0.55310  0.18300  0.24260  Biso   1.000  O
  O89      1.0000 0.94690  0.31700  0.24260  Biso   1.000  O
  O90      1.0000 0.94690  0.81700  0.74260  Biso   1.000  O
  O91      1.0000 0.44690  0.31700  0.74260  Biso   1.000  O
  O92      1.0000 0.44690  0.81700  0.24260  Biso   1.000  O
  O93      1.0000 0.94690  0.68300  0.75740  Biso   1.000  O
  O94      1.0000 0.94690  0.18300  0.25740  Biso   1.000  O
  O95      1.0000 0.44690  0.68300  0.25740  Biso   1.000  O
  O96      1.0000 0.44690  0.18300  0.75740  Biso   1.000  O
  O97      1.0000 0.75740  0.68300  0.94690  Biso   1.000  O
  O98      1.0000 0.75740  0.18300  0.44690  Biso   1.000  O
  O99      1.0000 0.25740  0.68300  0.44690  Biso   1.000  O
  O100     1.0000 0.25740  0.18300  0.94690  Biso   1.000  O
  O101     1.0000 0.24260  0.31700  0.94690  Biso   1.000  O
  O102     1.0000 0.24260  0.81700  0.44690  Biso   1.000  O
  O103     1.0000 0.74260  0.31700  0.44690  Biso   1.000  O
  O104     1.0000 0.74260  0.81700  0.94690  Biso   1.000  O
  O105     1.0000 0.24260  0.68300  0.05310  Biso   1.000  O
  O106     1.0000 0.24260  0.18300  0.55310  Biso   1.000  O
  O107     1.0000 0.74260  0.68300  0.55310  Biso   1.000  O
  O108     1.0000 0.74260  0.18300  0.05310  Biso   1.000  O
  O109     1.0000 0.75740  0.31700  0.05310  Biso   1.000  O
  O110     1.0000 0.75740  0.81700  0.55310  Biso   1.000  O
  O111     1.0000 0.25740  0.31700  0.55310  Biso   1.000  O
  O112     1.0000 0.25740  0.81700  0.05310  Biso   1.000  O
  O113     1.0000 0.94690  0.75740  0.68300  Biso   1.000  O
  O114     1.0000 0.94690  0.25740  0.18300  Biso   1.000  O
  O115     1.0000 0.44690  0.75740  0.18300  Biso   1.000  O
  O116     1.0000 0.44690  0.25740  0.68300  Biso   1.000  O
  O117     1.0000 0.94690  0.24260  0.31700  Biso   1.000  O
  O118     1.0000 0.94690  0.74260  0.81700  Biso   1.000  O
  O119     1.0000 0.44690  0.24260  0.81700  Biso   1.000  O
  O120     1.0000 0.44690  0.74260  0.31700  Biso   1.000  O
  O121     1.0000 0.05310  0.24260  0.68300  Biso   1.000  O
  O122     1.0000 0.05310  0.74260  0.18300  Biso   1.000  O
  O123     1.0000 0.55310  0.24260  0.18300  Biso   1.000  O
  O124     1.0000 0.55310  0.74260  0.68300  Biso   1.000  O
  O125     1.0000 0.05310  0.75740  0.31700  Biso   1.000  O
  O126     1.0000 0.05310  0.25740  0.81700  Biso   1.000  O
  O127     1.0000 0.55310  0.75740  0.81700  Biso   1.000  O
  O128     1.0000 0.55310  0.25740  0.31700  Biso   1.000  O
  O129     1.0000 0.68300  0.94690  0.75740  Biso   1.000  O
  O130     1.0000 0.68300  0.44690  0.25740  Biso   1.000  O
  O131     1.0000 0.18300  0.94690  0.25740  Biso   1.000  O
  O132     1.0000 0.18300  0.44690  0.75740  Biso   1.000  O
  O133     1.0000 0.31700  0.94690  0.24260  Biso   1.000  O
  O134     1.0000 0.31700  0.44690  0.74260  Biso   1.000  O
  O135     1.0000 0.81700  0.94690  0.74260  Biso   1.000  O
  O136     1.0000 0.81700  0.44690  0.24260  Biso   1.000  O
  O137     1.0000 0.68300  0.05310  0.24260  Biso   1.000  O
  O138     1.0000 0.68300  0.55310  0.74260  Biso   1.000  O
  O139     1.0000 0.18300  0.05310  0.74260  Biso   1.000  O
  O140     1.0000 0.18300  0.55310  0.24260  Biso   1.000  O
  O141     1.0000 0.31700  0.05310  0.75740  Biso   1.000  O
  O142     1.0000 0.31700  0.55310  0.25740  Biso   1.000  O
  O143     1.0000 0.81700  0.05310  0.25740  Biso   1.000  O
  O144     1.0000 0.81700  0.55310  0.75740  Biso   1.000  O
  O145     1.0000 0.68300  0.75740  0.05310  Biso   1.000  O
  O146     1.0000 0.68300  0.25740  0.55310  Biso   1.000  O
  O147     1.0000 0.18300  0.75740  0.55310  Biso   1.000  O
  O148     1.0000 0.18300  0.25740  0.05310  Biso   1.000  O
  O149     1.0000 0.31700  0.24260  0.05310  Biso   1.000  O
  O150     1.0000 0.31700  0.74260  0.55310  Biso   1.000  O
  O151     1.0000 0.81700  0.24260  0.55310  Biso   1.000  O
  O152     1.0000 0.81700  0.74260  0.05310  Biso   1.000  O
  O153     1.0000 0.68300  0.24260  0.94690  Biso   1.000  O
  O154     1.0000 0.68300  0.74260  0.44690  Biso   1.000  O
  O155     1.0000 0.18300  0.24260  0.44690  Biso   1.000  O
  O156     1.0000 0.18300  0.74260  0.94690  Biso   1.000  O
  O157     1.0000 0.31700  0.75740  0.94690  Biso   1.000  O
  O158     1.0000 0.31700  0.25740  0.44690  Biso   1.000  O
  O159     1.0000 0.81700  0.75740  0.44690  Biso   1.000  O
  O160     1.0000 0.81700  0.25740  0.94690  Biso   1.000  O
  O161     1.0000 0.75740  0.94690  0.31700  Biso   1.000  O
  O162     1.0000 0.75740  0.44690  0.81700  Biso   1.000  O
  O163     1.0000 0.25740  0.94690  0.81700  Biso   1.000  O
  O164     1.0000 0.25740  0.44690  0.31700  Biso   1.000  O
  O165     1.0000 0.24260  0.94690  0.68300  Biso   1.000  O
  O166     1.0000 0.24260  0.44690  0.18300  Biso   1.000  O
  O167     1.0000 0.74260  0.94690  0.18300  Biso   1.000  O
  O168     1.0000 0.74260  0.44690  0.68300  Biso   1.000  O
  O169     1.0000 0.24260  0.05310  0.31700  Biso   1.000  O
  O170     1.0000 0.24260  0.55310  0.81700  Biso   1.000  O
  O171     1.0000 0.74260  0.05310  0.81700  Biso   1.000  O
  O172     1.0000 0.74260  0.55310  0.31700  Biso   1.000  O
  O173     1.0000 0.75740  0.05310  0.68300  Biso   1.000  O
  O174     1.0000 0.75740  0.55310  0.18300  Biso   1.000  O
  O175     1.0000 0.25740  0.05310  0.18300  Biso   1.000  O
  O176     1.0000 0.25740  0.55310  0.68300  Biso   1.000  O
  O177     1.0000 0.94690  0.68300  0.24260  Biso   1.000  O
  O178     1.0000 0.94690  0.18300  0.74260  Biso   1.000  O
  O179     1.0000 0.44690  0.68300  0.74260  Biso   1.000  O
  O180     1.0000 0.44690  0.18300  0.24260  Biso   1.000  O
  O181     1.0000 0.94690  0.31700  0.75740  Biso   1.000  O
  O182     1.0000 0.94690  0.81700  0.25740  Biso   1.000  O
  O183     1.0000 0.44690  0.31700  0.25740  Biso   1.000  O
  O184     1.0000 0.44690  0.81700  0.75740  Biso   1.000  O
  O185     1.0000 0.05310  0.68300  0.75740  Biso   1.000  O
  O186     1.0000 0.05310  0.18300  0.25740  Biso   1.000  O
  O187     1.0000 0.55310  0.68300  0.25740  Biso   1.000  O
  O188     1.0000 0.55310  0.18300  0.75740  Biso   1.000  O
  O189     1.0000 0.05310  0.31700  0.24260  Biso   1.000  O
  O190     1.0000 0.05310  0.81700  0.74260  Biso   1.000  O
  O191     1.0000 0.55310  0.31700  0.74260  Biso   1.000  O
  O192     1.0000 0.55310  0.81700  0.24260  Biso   1.000  O
  Co1      1.0000 0.28976  0.28976  0.00000  Biso   1.000  Co
  Cl1      1.0000 0.35040  0.35040  0.00000  Biso   1.000  Cl
  Co2      1.0000 0.28976  0.78976  0.50000  Biso   1.000  Co
  Cl2      1.0000 0.35040  0.85040  0.50000  Biso   1.000  Cl
  Co3      1.0000 0.78976  0.28976  0.50000  Biso   1.000  Co
  Cl3      1.0000 0.85040  0.35040  0.50000  Biso   1.000  Cl
  Co4      1.0000 0.78976  0.78976  0.00000  Biso   1.000  Co
  Cl4      1.0000 0.85040  0.85040  0.00000  Biso   1.000  Cl
  Co5      1.0000 0.71024  0.71024  0.00000  Biso   1.000  Co
  Cl5      1.0000 0.64960  0.64960  0.00000  Biso   1.000  Cl
  Co6      1.0000 0.71024  0.21024  0.50000  Biso   1.000  Co
  Cl6      1.0000 0.64960  0.14960  0.50000  Biso   1.000  Cl
  Co7      1.0000 0.21024  0.71024  0.50000  Biso   1.000  Co
  Cl7      1.0000 0.14960  0.64960  0.50000  Biso   1.000  Cl
  Co8      1.0000 0.21024  0.21024  0.00000  Biso   1.000  Co
  Cl8      1.0000 0.14960  0.14960  0.00000  Biso   1.000  Cl
  Co9      1.0000 0.71024  0.28976  0.00000  Biso   1.000  Co
  Cl9      1.0000 0.64960  0.35040  0.00000  Biso   1.000  Cl
  Co10     1.0000 0.71024  0.78976  0.50000  Biso   1.000  Co
  Cl10     1.0000 0.64960  0.85040  0.50000  Biso   1.000  Cl
  Co11     1.0000 0.21024  0.28976  0.50000  Biso   1.000  Co
  Cl11     1.0000 0.14960  0.35040  0.50000  Biso   1.000  Cl
  Co12     1.0000 0.21024  0.78976  0.00000  Biso   1.000  Co
  Cl12     1.0000 0.14960  0.85040  0.00000  Biso   1.000  Cl
  Co13     1.0000 0.28976  0.71024  0.00000  Biso   1.000  Co
  Cl13     1.0000 0.35040  0.64960  0.00000  Biso   1.000  Cl
  Co14     1.0000 0.28976  0.21024  0.50000  Biso   1.000  Co
  Cl14     1.0000 0.35040  0.14960  0.50000  Biso   1.000  Cl
  Co15     1.0000 0.78976  0.71024  0.50000  Biso   1.000  Co
  Cl15     1.0000 0.85040  0.64960  0.50000  Biso   1.000  Cl
  Co16     1.0000 0.78976  0.21024  0.00000  Biso   1.000  Co
  Cl16     1.0000 0.85040  0.14960  0.00000  Biso   1.000  Cl
  Co17     1.0000 0.00000  0.28976  0.28976  Biso   1.000  Co
  Cl17     1.0000 0.00000  0.35040  0.35040  Biso   1.000  Cl
  Co18     1.0000 0.00000  0.78976  0.78976  Biso   1.000  Co
  Cl18     1.0000 0.00000  0.85040  0.85040  Biso   1.000  Cl
  Co19     1.0000 0.50000  0.28976  0.78976  Biso   1.000  Co
  Cl19     1.0000 0.50000  0.35040  0.85040  Biso   1.000  Cl
  Co20     1.0000 0.50000  0.78976  0.28976  Biso   1.000  Co
  Cl20     1.0000 0.50000  0.85040  0.35040  Biso   1.000  Cl
  Co21     1.0000 0.00000  0.71024  0.71024  Biso   1.000  Co
  Cl21     1.0000 0.00000  0.64960  0.64960  Biso   1.000  Cl
  Co22     1.0000 0.00000  0.21024  0.21024  Biso   1.000  Co
  Cl22     1.0000 0.00000  0.14960  0.14960  Biso   1.000  Cl
  Co23     1.0000 0.50000  0.71024  0.21024  Biso   1.000  Co
  Cl23     1.0000 0.50000  0.64960  0.14960  Biso   1.000  Cl
  Co24     1.0000 0.50000  0.21024  0.71024  Biso   1.000  Co
  Cl24     1.0000 0.50000  0.14960  0.64960  Biso   1.000  Cl
  Co25     1.0000 0.00000  0.71024  0.28976  Biso   1.000  Co
  Cl25     1.0000 0.00000  0.64960  0.35040  Biso   1.000  Cl
  Co26     1.0000 0.00000  0.21024  0.78976  Biso   1.000  Co
  Cl26     1.0000 0.00000  0.14960  0.85040  Biso   1.000  Cl
  Co27     1.0000 0.50000  0.71024  0.78976  Biso   1.000  Co
  Cl27     1.0000 0.50000  0.64960  0.85040  Biso   1.000  Cl
  Co28     1.0000 0.50000  0.21024  0.28976  Biso   1.000  Co
  Cl28     1.0000 0.50000  0.14960  0.35040  Biso   1.000  Cl
  Co29     1.0000 0.00000  0.28976  0.71024  Biso   1.000  Co
  Cl29     1.0000 0.00000  0.35040  0.64960  Biso   1.000  Cl
  Co30     1.0000 0.00000  0.78976  0.21024  Biso   1.000  Co
  Cl30     1.0000 0.00000  0.85040  0.14960  Biso   1.000  Cl
  Co31     1.0000 0.50000  0.28976  0.21024  Biso   1.000  Co
  Cl31     1.0000 0.50000  0.35040  0.14960  Biso   1.000  Cl
  Co32     1.0000 0.50000  0.78976  0.71024  Biso   1.000  Co
  Cl32     1.0000 0.50000  0.85040  0.64960  Biso   1.000  Cl
  Co33     1.0000 0.28976  0.00000  0.28976  Biso   1.000  Co
  Cl33     1.0000 0.35040  0.00000  0.35040  Biso   1.000  Cl
  Co34     1.0000 0.28976  0.50000  0.78976  Biso   1.000  Co
  Cl34     1.0000 0.35040  0.50000  0.85040  Biso   1.000  Cl
  Co35     1.0000 0.78976  0.00000  0.78976  Biso   1.000  Co
  Cl35     1.0000 0.85040  0.00000  0.85040  Biso   1.000  Cl
  Co36     1.0000 0.78976  0.50000  0.28976  Biso   1.000  Co
  Cl36     1.0000 0.85040  0.50000  0.35040  Biso   1.000  Cl
  Co37     1.0000 0.71024  0.00000  0.71024  Biso   1.000  Co
  Cl37     1.0000 0.64960  0.00000  0.64960  Biso   1.000  Cl
  Co38     1.0000 0.71024  0.50000  0.21024  Biso   1.000  Co
  Cl38     1.0000 0.64960  0.50000  0.14960  Biso   1.000  Cl
  Co39     1.0000 0.21024  0.00000  0.21024  Biso   1.000  Co
  Cl39     1.0000 0.14960  0.00000  0.14960  Biso   1.000  Cl
  Co40     1.0000 0.21024  0.50000  0.71024  Biso   1.000  Co
  Cl40     1.0000 0.14960  0.50000  0.64960  Biso   1.000  Cl
  Co41     1.0000 0.28976  0.00000  0.71024  Biso   1.000  Co
  Cl41     1.0000 0.35040  0.00000  0.64960  Biso   1.000  Cl
  Co42     1.0000 0.28976  0.50000  0.21024  Biso   1.000  Co
  Cl42     1.0000 0.35040  0.50000  0.14960  Biso   1.000  Cl
  Co43     1.0000 0.78976  0.00000  0.21024  Biso   1.000  Co
  Cl43     1.0000 0.85040  0.00000  0.14960  Biso   1.000  Cl
  Co44     1.0000 0.78976  0.50000  0.71024  Biso   1.000  Co
  Cl44     1.0000 0.85040  0.50000  0.64960  Biso   1.000  Cl
  Co45     1.0000 0.71024  0.00000  0.28976  Biso   1.000  Co
  Cl45     1.0000 0.64960  0.00000  0.35040  Biso   1.000  Cl
  Co46     1.0000 0.71024  0.50000  0.78976  Biso   1.000  Co
  Cl46     1.0000 0.64960  0.50000  0.85040  Biso   1.000  Cl
  Co47     1.0000 0.21024  0.00000  0.78976  Biso   1.000  Co
  Cl47     1.0000 0.14960  0.00000  0.85040  Biso   1.000  Cl
  Co48     1.0000 0.21024  0.50000  0.28976  Biso   1.000  Co
  Cl48     1.0000 0.14960  0.50000  0.35040  Biso   1.000  Cl
  C1       1.0000 0.20240  0.29760  0.06900  Biso   1.000  C
  C2       1.0000 0.17780  0.32220  0.11430  Biso   1.000  C
  C3       1.0000 0.20240  0.79760  0.56900  Biso   1.000  C
  C4       1.0000 0.17780  0.82220  0.61430  Biso   1.000  C
  C5       1.0000 0.79760  0.70240  0.06900  Biso   1.000  C
  C6       1.0000 0.82220  0.67780  0.11430  Biso   1.000  C
  C7       1.0000 0.79760  0.20240  0.56900  Biso   1.000  C
  C8       1.0000 0.82220  0.17780  0.61430  Biso   1.000  C
  C9       1.0000 0.29760  0.20240  0.06900  Biso   1.000  C
  C10      1.0000 0.32220  0.17780  0.11430  Biso   1.000  C
  C11      1.0000 0.79760  0.29760  0.93100  Biso   1.000  C
  C12      1.0000 0.82220  0.32220  0.88570  Biso   1.000  C
  C13      1.0000 0.79760  0.79760  0.43100  Biso   1.000  C
  C14      1.0000 0.82220  0.82220  0.38570  Biso   1.000  C
  C15      1.0000 0.29760  0.29760  0.43100  Biso   1.000  C
  C16      1.0000 0.32220  0.32220  0.38570  Biso   1.000  C
  C17      1.0000 0.20240  0.70240  0.93100  Biso   1.000  C
  C18      1.0000 0.17780  0.67780  0.88570  Biso   1.000  C
  C19      1.0000 0.20240  0.20240  0.43100  Biso   1.000  C
  C20      1.0000 0.17780  0.17780  0.38570  Biso   1.000  C
  C21      1.0000 0.06900  0.20240  0.29760  Biso   1.000  C
  C22      1.0000 0.11430  0.17780  0.32220  Biso   1.000  C
  C23      1.0000 0.56900  0.20240  0.79760  Biso   1.000  C
  C24      1.0000 0.61430  0.17780  0.82220  Biso   1.000  C
  C25      1.0000 0.06900  0.79760  0.70240  Biso   1.000  C
  C26      1.0000 0.11430  0.82220  0.67780  Biso   1.000  C
  C27      1.0000 0.06900  0.29760  0.20240  Biso   1.000  C
  C28      1.0000 0.11430  0.32220  0.17780  Biso   1.000  C
  C29      1.0000 0.56900  0.79760  0.20240  Biso   1.000  C
  C30      1.0000 0.61430  0.82220  0.17780  Biso   1.000  C
  C31      1.0000 0.93100  0.79760  0.29760  Biso   1.000  C
  C32      1.0000 0.88570  0.82220  0.32220  Biso   1.000  C
  C33      1.0000 0.43100  0.79760  0.79760  Biso   1.000  C
  C34      1.0000 0.38570  0.82220  0.82220  Biso   1.000  C
  C35      1.0000 0.43100  0.29760  0.29760  Biso   1.000  C
  C36      1.0000 0.38570  0.32220  0.32220  Biso   1.000  C
  C37      1.0000 0.93100  0.20240  0.70240  Biso   1.000  C
  C38      1.0000 0.88570  0.17780  0.67780  Biso   1.000  C
  C39      1.0000 0.43100  0.20240  0.20240  Biso   1.000  C
  C40      1.0000 0.38570  0.17780  0.17780  Biso   1.000  C
  C41      1.0000 0.29760  0.06900  0.20240  Biso   1.000  C
  C42      1.0000 0.32220  0.11430  0.17780  Biso   1.000  C
  C43      1.0000 0.29760  0.56900  0.70240  Biso   1.000  C
  C44      1.0000 0.32220  0.61430  0.67780  Biso   1.000  C
  C45      1.0000 0.70240  0.06900  0.79760  Biso   1.000  C
  C46      1.0000 0.67780  0.11430  0.82220  Biso   1.000  C
  C47      1.0000 0.70240  0.56900  0.29760  Biso   1.000  C
  C48      1.0000 0.67780  0.61430  0.32220  Biso   1.000  C
  C49      1.0000 0.20240  0.06900  0.29760  Biso   1.000  C
  C50      1.0000 0.17780  0.11430  0.32220  Biso   1.000  C
  C51      1.0000 0.29760  0.93100  0.79760  Biso   1.000  C
  C52      1.0000 0.32220  0.88570  0.82220  Biso   1.000  C
  C53      1.0000 0.29760  0.43100  0.29760  Biso   1.000  C
  C54      1.0000 0.32220  0.38570  0.32220  Biso   1.000  C
  C55      1.0000 0.70240  0.93100  0.20240  Biso   1.000  C
  C56      1.0000 0.67780  0.88570  0.17780  Biso   1.000  C
  C57      1.0000 0.70240  0.43100  0.70240  Biso   1.000  C
  C58      1.0000 0.67780  0.38570  0.67780  Biso   1.000  C
  C59      1.0000 0.20240  0.43100  0.20240  Biso   1.000  C
  C60      1.0000 0.17780  0.38570  0.17780  Biso   1.000  C
  C61      1.0000 0.29760  0.20240  0.93100  Biso   1.000  C
  C62      1.0000 0.32220  0.17780  0.88570  Biso   1.000  C
  C63      1.0000 0.29760  0.70240  0.43100  Biso   1.000  C
  C64      1.0000 0.32220  0.67780  0.38570  Biso   1.000  C
  C65      1.0000 0.70240  0.79760  0.93100  Biso   1.000  C
  C66      1.0000 0.67780  0.82220  0.88570  Biso   1.000  C
  C67      1.0000 0.70240  0.29760  0.43100  Biso   1.000  C
  C68      1.0000 0.67780  0.32220  0.38570  Biso   1.000  C
  C69      1.0000 0.20240  0.29760  0.93100  Biso   1.000  C
  C70      1.0000 0.17780  0.32220  0.88570  Biso   1.000  C
  C71      1.0000 0.29760  0.79760  0.06900  Biso   1.000  C
  C72      1.0000 0.32220  0.82220  0.11430  Biso   1.000  C
  C73      1.0000 0.29760  0.29760  0.56900  Biso   1.000  C
  C74      1.0000 0.32220  0.32220  0.61430  Biso   1.000  C
  C75      1.0000 0.70240  0.20240  0.06900  Biso   1.000  C
  C76      1.0000 0.67780  0.17780  0.11430  Biso   1.000  C
  C77      1.0000 0.70240  0.70240  0.56900  Biso   1.000  C
  C78      1.0000 0.67780  0.67780  0.61430  Biso   1.000  C
  C79      1.0000 0.20240  0.20240  0.56900  Biso   1.000  C
  C80      1.0000 0.17780  0.17780  0.61430  Biso   1.000  C
  C81      1.0000 0.20240  0.06900  0.70240  Biso   1.000  C
  C82      1.0000 0.17780  0.11430  0.67780  Biso   1.000  C
  C83      1.0000 0.20240  0.56900  0.20240  Biso   1.000  C
  C84      1.0000 0.17780  0.61430  0.17780  Biso   1.000  C
  C85      1.0000 0.79760  0.06900  0.29760  Biso   1.000  C
  C86      1.0000 0.82220  0.11430  0.32220  Biso   1.000  C
  C87      1.0000 0.79760  0.56900  0.79760  Biso   1.000  C
  C88      1.0000 0.82220  0.61430  0.82220  Biso   1.000  C
  C89      1.0000 0.29760  0.56900  0.29760  Biso   1.000  C
  C90      1.0000 0.32220  0.61430  0.32220  Biso   1.000  C
  C91      1.0000 0.79760  0.93100  0.70240  Biso   1.000  C
  C92      1.0000 0.82220  0.88570  0.67780  Biso   1.000  C
  C93      1.0000 0.79760  0.43100  0.20240  Biso   1.000  C
  C94      1.0000 0.82220  0.38570  0.17780  Biso   1.000  C
  C95      1.0000 0.29760  0.93100  0.20240  Biso   1.000  C
  C96      1.0000 0.32220  0.88570  0.17780  Biso   1.000  C
  C97      1.0000 0.20240  0.93100  0.29760  Biso   1.000  C
  C98      1.0000 0.17780  0.88570  0.32220  Biso   1.000  C
  C99      1.0000 0.20240  0.43100  0.79760  Biso   1.000  C
  C100     1.0000 0.17780  0.38570  0.82220  Biso   1.000  C
  C101     1.0000 0.06900  0.29760  0.79760  Biso   1.000  C
  C102     1.0000 0.11430  0.32220  0.82220  Biso   1.000  C
  C103     1.0000 0.56900  0.29760  0.29760  Biso   1.000  C
  C104     1.0000 0.61430  0.32220  0.32220  Biso   1.000  C
  C105     1.0000 0.06900  0.70240  0.20240  Biso   1.000  C
  C106     1.0000 0.11430  0.67780  0.17780  Biso   1.000  C
  C107     1.0000 0.56900  0.70240  0.70240  Biso   1.000  C
  C108     1.0000 0.61430  0.67780  0.67780  Biso   1.000  C
  C109     1.0000 0.56900  0.20240  0.20240  Biso   1.000  C
  C110     1.0000 0.61430  0.17780  0.17780  Biso   1.000  C
  C111     1.0000 0.93100  0.29760  0.20240  Biso   1.000  C
  C112     1.0000 0.88570  0.32220  0.17780  Biso   1.000  C
  C113     1.0000 0.43100  0.29760  0.70240  Biso   1.000  C
  C114     1.0000 0.38570  0.32220  0.67780  Biso   1.000  C
  C115     1.0000 0.93100  0.70240  0.79760  Biso   1.000  C
  C116     1.0000 0.88570  0.67780  0.82220  Biso   1.000  C
  C117     1.0000 0.93100  0.20240  0.29760  Biso   1.000  C
  C118     1.0000 0.88570  0.17780  0.32220  Biso   1.000  C
  C119     1.0000 0.43100  0.70240  0.29760  Biso   1.000  C
  C120     1.0000 0.38570  0.67780  0.32220  Biso   1.000  C
  C121     1.0000 0.79760  0.70240  0.93100  Biso   1.000  C
  C122     1.0000 0.82220  0.67780  0.88570  Biso   1.000  C
  C123     1.0000 0.79760  0.20240  0.43100  Biso   1.000  C
  C124     1.0000 0.82220  0.17780  0.38570  Biso   1.000  C
  C125     1.0000 0.20240  0.79760  0.43100  Biso   1.000  C
  C126     1.0000 0.17780  0.82220  0.38570  Biso   1.000  C
  C127     1.0000 0.20240  0.70240  0.06900  Biso   1.000  C
  C128     1.0000 0.17780  0.67780  0.11430  Biso   1.000  C
  C129     1.0000 0.79760  0.29760  0.06900  Biso   1.000  C
  C130     1.0000 0.82220  0.32220  0.11430  Biso   1.000  C
  C131     1.0000 0.79760  0.79760  0.56900  Biso   1.000  C
  C132     1.0000 0.82220  0.82220  0.61430  Biso   1.000  C
  C133     1.0000 0.93100  0.79760  0.70240  Biso   1.000  C
  C134     1.0000 0.88570  0.82220  0.67780  Biso   1.000  C
  C135     1.0000 0.43100  0.79760  0.20240  Biso   1.000  C
  C136     1.0000 0.38570  0.82220  0.17780  Biso   1.000  C
  C137     1.0000 0.43100  0.20240  0.79760  Biso   1.000  C
  C138     1.0000 0.38570  0.17780  0.82220  Biso   1.000  C
  C139     1.0000 0.06900  0.20240  0.70240  Biso   1.000  C
  C140     1.0000 0.11430  0.17780  0.67780  Biso   1.000  C
  C141     1.0000 0.06900  0.79760  0.29760  Biso   1.000  C
  C142     1.0000 0.11430  0.82220  0.32220  Biso   1.000  C
  C143     1.0000 0.56900  0.79760  0.79760  Biso   1.000  C
  C144     1.0000 0.61430  0.82220  0.82220  Biso   1.000  C
  C145     1.0000 0.70240  0.93100  0.79760  Biso   1.000  C
  C146     1.0000 0.67780  0.88570  0.82220  Biso   1.000  C
  C147     1.0000 0.70240  0.43100  0.29760  Biso   1.000  C
  C148     1.0000 0.67780  0.38570  0.32220  Biso   1.000  C
  C149     1.0000 0.29760  0.43100  0.70240  Biso   1.000  C
  C150     1.0000 0.32220  0.38570  0.67780  Biso   1.000  C
  C151     1.0000 0.70240  0.06900  0.20240  Biso   1.000  C
  C152     1.0000 0.67780  0.11430  0.17780  Biso   1.000  C
  C153     1.0000 0.70240  0.56900  0.70240  Biso   1.000  C
  C154     1.0000 0.67780  0.61430  0.67780  Biso   1.000  C
  C155     1.0000 0.29760  0.06900  0.79760  Biso   1.000  C
  C156     1.0000 0.32220  0.11430  0.82220  Biso   1.000  C
  C157     1.0000 0.70240  0.79760  0.06900  Biso   1.000  C
  C158     1.0000 0.67780  0.82220  0.11430  Biso   1.000  C
  C159     1.0000 0.70240  0.29760  0.56900  Biso   1.000  C
  C160     1.0000 0.67780  0.32220  0.61430  Biso   1.000  C
  C161     1.0000 0.29760  0.70240  0.56900  Biso   1.000  C
  C162     1.0000 0.32220  0.67780  0.61430  Biso   1.000  C
  C163     1.0000 0.70240  0.20240  0.93100  Biso   1.000  C
  C164     1.0000 0.67780  0.17780  0.88570  Biso   1.000  C
  C165     1.0000 0.70240  0.70240  0.43100  Biso   1.000  C
  C166     1.0000 0.67780  0.67780  0.38570  Biso   1.000  C
  C167     1.0000 0.29760  0.79760  0.93100  Biso   1.000  C
  C168     1.0000 0.32220  0.82220  0.88570  Biso   1.000  C
  C169     1.0000 0.79760  0.93100  0.29760  Biso   1.000  C
  C170     1.0000 0.82220  0.88570  0.32220  Biso   1.000  C
  C171     1.0000 0.79760  0.43100  0.79760  Biso   1.000  C
  C172     1.0000 0.82220  0.38570  0.82220  Biso   1.000  C
  C173     1.0000 0.20240  0.93100  0.70240  Biso   1.000  C
  C174     1.0000 0.17780  0.88570  0.67780  Biso   1.000  C
  C175     1.0000 0.20240  0.56900  0.79760  Biso   1.000  C
  C176     1.0000 0.17780  0.61430  0.82220  Biso   1.000  C
  C177     1.0000 0.79760  0.06900  0.70240  Biso   1.000  C
  C178     1.0000 0.82220  0.11430  0.67780  Biso   1.000  C
  C179     1.0000 0.79760  0.56900  0.20240  Biso   1.000  C
  C180     1.0000 0.82220  0.61430  0.17780  Biso   1.000  C
  C181     1.0000 0.93100  0.70240  0.20240  Biso   1.000  C
  C182     1.0000 0.88570  0.67780  0.17780  Biso   1.000  C
  C183     1.0000 0.43100  0.70240  0.70240  Biso   1.000  C
  C184     1.0000 0.38570  0.67780  0.67780  Biso   1.000  C
  C185     1.0000 0.93100  0.29760  0.79760  Biso   1.000  C
  C186     1.0000 0.88570  0.32220  0.82220  Biso   1.000  C
  C187     1.0000 0.06900  0.70240  0.79760  Biso   1.000  C
  C188     1.0000 0.11430  0.67780  0.82220  Biso   1.000  C
  C189     1.0000 0.56900  0.70240  0.29760  Biso   1.000  C
  C190     1.0000 0.61430  0.67780  0.32220  Biso   1.000  C
  C191     1.0000 0.56900  0.29760  0.70240  Biso   1.000  C
  C192     1.0000 0.61430  0.32220  0.67780  Biso   1.000  C
  C193     1.0000 0.19840  0.36500  0.13500  Biso   1.000  C
  H1       1.0000 0.22630  0.37980  0.12020  Biso   1.000  H
  C194     1.0000 0.69840  0.36500  0.63500  Biso   1.000  C
  H2       1.0000 0.72630  0.37980  0.62020  Biso   1.000  H
  C195     1.0000 0.80160  0.63500  0.13500  Biso   1.000  C
  H3       1.0000 0.77370  0.62020  0.12020  Biso   1.000  H
  C196     1.0000 0.30160  0.63500  0.63500  Biso   1.000  C
  H4       1.0000 0.27370  0.62020  0.62020  Biso   1.000  H
  C197     1.0000 0.30160  0.13500  0.13500  Biso   1.000  C
  H5       1.0000 0.27370  0.12020  0.12020  Biso   1.000  H
  C198     1.0000 0.80160  0.36500  0.86500  Biso   1.000  C
  H6       1.0000 0.77370  0.37980  0.87980  Biso   1.000  H
  C199     1.0000 0.30160  0.36500  0.36500  Biso   1.000  C
  H7       1.0000 0.27370  0.37980  0.37980  Biso   1.000  H
  C200     1.0000 0.19840  0.63500  0.86500  Biso   1.000  C
  H8       1.0000 0.22630  0.62020  0.87980  Biso   1.000  H
  C201     1.0000 0.19840  0.13500  0.36500  Biso   1.000  C
  H9       1.0000 0.22630  0.12020  0.37980  Biso   1.000  H
  C202     1.0000 0.69840  0.63500  0.36500  Biso   1.000  C
  H10      1.0000 0.72630  0.62020  0.37980  Biso   1.000  H
  C203     1.0000 0.13500  0.19840  0.36500  Biso   1.000  C
  H11      1.0000 0.12020  0.22630  0.37980  Biso   1.000  H
  C204     1.0000 0.13500  0.69840  0.86500  Biso   1.000  C
  H12      1.0000 0.12020  0.72630  0.87980  Biso   1.000  H
  C205     1.0000 0.13500  0.80160  0.63500  Biso   1.000  C
  H13      1.0000 0.12020  0.77370  0.62020  Biso   1.000  H
  C206     1.0000 0.13500  0.30160  0.13500  Biso   1.000  C
  H14      1.0000 0.12020  0.27370  0.12020  Biso   1.000  H
  C207     1.0000 0.86500  0.80160  0.36500  Biso   1.000  C
  H15      1.0000 0.87980  0.77370  0.37980  Biso   1.000  H
  C208     1.0000 0.86500  0.30160  0.86500  Biso   1.000  C
  H16      1.0000 0.87980  0.27370  0.87980  Biso   1.000  H
  C209     1.0000 0.36500  0.30160  0.36500  Biso   1.000  C
  H17      1.0000 0.37980  0.27370  0.37980  Biso   1.000  H
  C210     1.0000 0.86500  0.19840  0.63500  Biso   1.000  C
  H18      1.0000 0.87980  0.22630  0.62020  Biso   1.000  H
  C211     1.0000 0.86500  0.69840  0.13500  Biso   1.000  C
  H19      1.0000 0.87980  0.72630  0.12020  Biso   1.000  H
  C212     1.0000 0.36500  0.19840  0.13500  Biso   1.000  C
  H20      1.0000 0.37980  0.22630  0.12020  Biso   1.000  H
  C213     1.0000 0.36500  0.13500  0.19840  Biso   1.000  C
  H21      1.0000 0.37980  0.12020  0.22630  Biso   1.000  H
  C214     1.0000 0.36500  0.63500  0.69840  Biso   1.000  C
  H22      1.0000 0.37980  0.62020  0.72630  Biso   1.000  H
  C215     1.0000 0.63500  0.13500  0.80160  Biso   1.000  C
  H23      1.0000 0.62020  0.12020  0.77370  Biso   1.000  H
  C216     1.0000 0.63500  0.63500  0.30160  Biso   1.000  C
  H24      1.0000 0.62020  0.62020  0.27370  Biso   1.000  H
  C217     1.0000 0.13500  0.13500  0.30160  Biso   1.000  C
  H25      1.0000 0.12020  0.12020  0.27370  Biso   1.000  H
  C218     1.0000 0.36500  0.86500  0.80160  Biso   1.000  C
  H26      1.0000 0.37980  0.87980  0.77370  Biso   1.000  H
  C219     1.0000 0.36500  0.36500  0.30160  Biso   1.000  C
  H27      1.0000 0.37980  0.37980  0.27370  Biso   1.000  H
  C220     1.0000 0.63500  0.86500  0.19840  Biso   1.000  C
  H28      1.0000 0.62020  0.87980  0.22630  Biso   1.000  H
  C221     1.0000 0.63500  0.36500  0.69840  Biso   1.000  C
  H29      1.0000 0.62020  0.37980  0.72630  Biso   1.000  H
  C222     1.0000 0.13500  0.36500  0.19840  Biso   1.000  C
  H30      1.0000 0.12020  0.37980  0.22630  Biso   1.000  H
  C223     1.0000 0.36500  0.19840  0.86500  Biso   1.000  C
  H31      1.0000 0.37980  0.22630  0.87980  Biso   1.000  H
  C224     1.0000 0.36500  0.69840  0.36500  Biso   1.000  C
  H32      1.0000 0.37980  0.72630  0.37980  Biso   1.000  H
  C225     1.0000 0.63500  0.80160  0.86500  Biso   1.000  C
  H33      1.0000 0.62020  0.77370  0.87980  Biso   1.000  H
  C226     1.0000 0.63500  0.30160  0.36500  Biso   1.000  C
  H34      1.0000 0.62020  0.27370  0.37980  Biso   1.000  H
  C227     1.0000 0.13500  0.80160  0.36500  Biso   1.000  C
  H35      1.0000 0.12020  0.77370  0.37980  Biso   1.000  H
  C228     1.0000 0.36500  0.80160  0.13500  Biso   1.000  C
  H36      1.0000 0.37980  0.77370  0.12020  Biso   1.000  H
  C229     1.0000 0.36500  0.30160  0.63500  Biso   1.000  C
  H37      1.0000 0.37980  0.27370  0.62020  Biso   1.000  H
  C230     1.0000 0.63500  0.19840  0.13500  Biso   1.000  C
  H38      1.0000 0.62020  0.22630  0.12020  Biso   1.000  H
  C231     1.0000 0.63500  0.69840  0.63500  Biso   1.000  C
  H39      1.0000 0.62020  0.72630  0.62020  Biso   1.000  H
  C232     1.0000 0.13500  0.69840  0.13500  Biso   1.000  C
  H40      1.0000 0.12020  0.72630  0.12020  Biso   1.000  H
  C233     1.0000 0.19840  0.13500  0.63500  Biso   1.000  C
  H41      1.0000 0.22630  0.12020  0.62020  Biso   1.000  H
  C234     1.0000 0.69840  0.13500  0.13500  Biso   1.000  C
  H42      1.0000 0.72630  0.12020  0.12020  Biso   1.000  H
  C235     1.0000 0.80160  0.13500  0.36500  Biso   1.000  C
  H43      1.0000 0.77370  0.12020  0.37980  Biso   1.000  H
  C236     1.0000 0.30160  0.13500  0.86500  Biso   1.000  C
  H44      1.0000 0.27370  0.12020  0.87980  Biso   1.000  H
  C237     1.0000 0.80160  0.86500  0.63500  Biso   1.000  C
  H45      1.0000 0.77370  0.87980  0.62020  Biso   1.000  H
  C238     1.0000 0.80160  0.36500  0.13500  Biso   1.000  C
  H46      1.0000 0.77370  0.37980  0.12020  Biso   1.000  H
  C239     1.0000 0.30160  0.86500  0.13500  Biso   1.000  C
  H47      1.0000 0.27370  0.87980  0.12020  Biso   1.000  H
  C240     1.0000 0.19840  0.86500  0.36500  Biso   1.000  C
  H48      1.0000 0.22630  0.87980  0.37980  Biso   1.000  H
  C241     1.0000 0.69840  0.86500  0.86500  Biso   1.000  C
  H49      1.0000 0.72630  0.87980  0.87980  Biso   1.000  H
  C242     1.0000 0.69840  0.36500  0.36500  Biso   1.000  C
  H50      1.0000 0.72630  0.37980  0.37980  Biso   1.000  H
  C243     1.0000 0.13500  0.36500  0.80160  Biso   1.000  C
  H51      1.0000 0.12020  0.37980  0.77370  Biso   1.000  H
  C244     1.0000 0.13500  0.86500  0.30160  Biso   1.000  C
  H52      1.0000 0.12020  0.87980  0.27370  Biso   1.000  H
  C245     1.0000 0.13500  0.63500  0.19840  Biso   1.000  C
  H53      1.0000 0.12020  0.62020  0.22630  Biso   1.000  H
  C246     1.0000 0.13500  0.13500  0.69840  Biso   1.000  C
  H54      1.0000 0.12020  0.12020  0.72630  Biso   1.000  H
  C247     1.0000 0.86500  0.36500  0.19840  Biso   1.000  C
  H55      1.0000 0.87980  0.37980  0.22630  Biso   1.000  H
  C248     1.0000 0.86500  0.86500  0.69840  Biso   1.000  C
  H56      1.0000 0.87980  0.87980  0.72630  Biso   1.000  H
  C249     1.0000 0.36500  0.36500  0.69840  Biso   1.000  C
  H57      1.0000 0.37980  0.37980  0.72630  Biso   1.000  H
  C250     1.0000 0.86500  0.63500  0.80160  Biso   1.000  C
  H58      1.0000 0.87980  0.62020  0.77370  Biso   1.000  H
  C251     1.0000 0.86500  0.13500  0.30160  Biso   1.000  C
  H59      1.0000 0.87980  0.12020  0.27370  Biso   1.000  H
  C252     1.0000 0.36500  0.13500  0.80160  Biso   1.000  C
  H60      1.0000 0.37980  0.12020  0.77370  Biso   1.000  H
  C253     1.0000 0.80160  0.63500  0.86500  Biso   1.000  C
  H61      1.0000 0.77370  0.62020  0.87980  Biso   1.000  H
  C254     1.0000 0.30160  0.63500  0.36500  Biso   1.000  C
  H62      1.0000 0.27370  0.62020  0.37980  Biso   1.000  H
  C255     1.0000 0.19840  0.36500  0.86500  Biso   1.000  C
  H63      1.0000 0.22630  0.37980  0.87980  Biso   1.000  H
  C256     1.0000 0.19840  0.63500  0.13500  Biso   1.000  C
  H64      1.0000 0.22630  0.62020  0.12020  Biso   1.000  H
  C257     1.0000 0.69840  0.63500  0.63500  Biso   1.000  C
  H65      1.0000 0.72630  0.62020  0.62020  Biso   1.000  H
  C258     1.0000 0.30160  0.36500  0.63500  Biso   1.000  C
  H66      1.0000 0.27370  0.37980  0.62020  Biso   1.000  H
  C259     1.0000 0.86500  0.80160  0.63500  Biso   1.000  C
  H67      1.0000 0.87980  0.77370  0.62020  Biso   1.000  H
  C260     1.0000 0.86500  0.30160  0.13500  Biso   1.000  C
  H68      1.0000 0.87980  0.27370  0.12020  Biso   1.000  H
  C261     1.0000 0.86500  0.19840  0.36500  Biso   1.000  C
  H69      1.0000 0.87980  0.22630  0.37980  Biso   1.000  H
  C262     1.0000 0.86500  0.69840  0.86500  Biso   1.000  C
  H70      1.0000 0.87980  0.72630  0.87980  Biso   1.000  H
  C263     1.0000 0.13500  0.19840  0.63500  Biso   1.000  C
  H71      1.0000 0.12020  0.22630  0.62020  Biso   1.000  H
  C264     1.0000 0.13500  0.30160  0.86500  Biso   1.000  C
  H72      1.0000 0.12020  0.27370  0.87980  Biso   1.000  H
  C265     1.0000 0.63500  0.86500  0.80160  Biso   1.000  C
  H73      1.0000 0.62020  0.87980  0.77370  Biso   1.000  H
  C266     1.0000 0.63500  0.36500  0.30160  Biso   1.000  C
  H74      1.0000 0.62020  0.37980  0.27370  Biso   1.000  H
  C267     1.0000 0.36500  0.86500  0.19840  Biso   1.000  C
  H75      1.0000 0.37980  0.87980  0.22630  Biso   1.000  H
  C268     1.0000 0.63500  0.13500  0.19840  Biso   1.000  C
  H76      1.0000 0.62020  0.12020  0.22630  Biso   1.000  H
  C269     1.0000 0.63500  0.63500  0.69840  Biso   1.000  C
  H77      1.0000 0.62020  0.62020  0.72630  Biso   1.000  H
  C270     1.0000 0.36500  0.63500  0.30160  Biso   1.000  C
  H78      1.0000 0.37980  0.62020  0.27370  Biso   1.000  H
  C271     1.0000 0.63500  0.80160  0.13500  Biso   1.000  C
  H79      1.0000 0.62020  0.77370  0.12020  Biso   1.000  H
  C272     1.0000 0.63500  0.30160  0.63500  Biso   1.000  C
  H80      1.0000 0.62020  0.27370  0.62020  Biso   1.000  H
  C273     1.0000 0.36500  0.69840  0.63500  Biso   1.000  C
  H81      1.0000 0.37980  0.72630  0.62020  Biso   1.000  H
  C274     1.0000 0.63500  0.19840  0.86500  Biso   1.000  C
  H82      1.0000 0.62020  0.22630  0.87980  Biso   1.000  H
  C275     1.0000 0.63500  0.69840  0.36500  Biso   1.000  C
  H83      1.0000 0.62020  0.72630  0.37980  Biso   1.000  H
  C276     1.0000 0.36500  0.80160  0.86500  Biso   1.000  C
  H84      1.0000 0.37980  0.77370  0.87980  Biso   1.000  H
  C277     1.0000 0.80160  0.86500  0.36500  Biso   1.000  C
  H85      1.0000 0.77370  0.87980  0.37980  Biso   1.000  H
  C278     1.0000 0.30160  0.86500  0.86500  Biso   1.000  C
  H86      1.0000 0.27370  0.87980  0.87980  Biso   1.000  H
  C279     1.0000 0.19840  0.86500  0.63500  Biso   1.000  C
  H87      1.0000 0.22630  0.87980  0.62020  Biso   1.000  H
  C280     1.0000 0.69840  0.86500  0.13500  Biso   1.000  C
  H88      1.0000 0.72630  0.87980  0.12020  Biso   1.000  H
  C281     1.0000 0.69840  0.13500  0.86500  Biso   1.000  C
  H89      1.0000 0.72630  0.12020  0.87980  Biso   1.000  H
  C282     1.0000 0.80160  0.13500  0.63500  Biso   1.000  C
  H90      1.0000 0.77370  0.12020  0.62020  Biso   1.000  H
  C283     1.0000 0.86500  0.63500  0.19840  Biso   1.000  C
  H91      1.0000 0.87980  0.62020  0.22630  Biso   1.000  H
  C284     1.0000 0.86500  0.13500  0.69840  Biso   1.000  C
  H92      1.0000 0.87980  0.12020  0.72630  Biso   1.000  H
  C285     1.0000 0.86500  0.36500  0.80160  Biso   1.000  C
  H93      1.0000 0.87980  0.37980  0.77370  Biso   1.000  H
  C286     1.0000 0.86500  0.86500  0.30160  Biso   1.000  C
  H94      1.0000 0.87980  0.87980  0.27370  Biso   1.000  H
  C287     1.0000 0.13500  0.63500  0.80160  Biso   1.000  C
  H95      1.0000 0.12020  0.62020  0.77370  Biso   1.000  H
  C288     1.0000 0.13500  0.86500  0.69840  Biso   1.000  C
  H96      1.0000 0.12020  0.87980  0.72630  Biso   1.000  H
