data_image0
_cell_length_a       38.805
_cell_length_b       38.805
_cell_length_c       38.805
_cell_angle_alpha    90
_cell_angle_beta     90
_cell_angle_gamma    90

_symmetry_space_group_name_H-M    P 1
_symmetry_int_tables_number       1

loop_
  _symmetry_equiv_pos_as_xyz
  'x, y, z'

loop_
  _atom_site_label
  _atom_site_occupancy
  _atom_site_fract_x
  _atom_site_fract_y
  _atom_site_fract_z
  _atom_site_thermal_displace_type
  _atom_site_B_iso_or_equiv
  _atom_site_type_symbol
  Co1      1.0000 0.95034  0.36626  0.97391  Biso   1.000  Co
  Co2      1.0000 0.95995  0.22534  0.46859  Biso   1.000  Co
  Co3      1.0000 0.96644  0.31449  0.70400  Biso   1.000  Co
  Co4      1.0000 0.54966  0.63374  0.47391  Biso   1.000  Co
  Co5      1.0000 0.54005  0.77466  0.96859  Biso   1.000  Co
  Co6      1.0000 0.53356  0.68551  0.20400  Biso   1.000  Co
  Co7      1.0000 0.04966  0.86626  0.52609  Biso   1.000  Co
  Co8      1.0000 0.04005  0.72534  0.03141  Biso   1.000  Co
  Co9      1.0000 0.03356  0.81449  0.79600  Biso   1.000  Co
  Co10     1.0000 0.45034  0.13374  0.02609  Biso   1.000  Co
  Co11     1.0000 0.45995  0.27466  0.53141  Biso   1.000  Co
  Co12     1.0000 0.46644  0.18551  0.29600  Biso   1.000  Co
  Co13     1.0000 0.97391  0.95034  0.36626  Biso   1.000  Co
  Co14     1.0000 0.46859  0.95995  0.22534  Biso   1.000  Co
  Co15     1.0000 0.70400  0.96644  0.31449  Biso   1.000  Co
  Co16     1.0000 0.47391  0.54966  0.63374  Biso   1.000  Co
  Co17     1.0000 0.96859  0.54005  0.77466  Biso   1.000  Co
  Co18     1.0000 0.20400  0.53356  0.68551  Biso   1.000  Co
  Co19     1.0000 0.52609  0.04966  0.86626  Biso   1.000  Co
  Co20     1.0000 0.03141  0.04005  0.72534  Biso   1.000  Co
  Co21     1.0000 0.79600  0.03356  0.81449  Biso   1.000  Co
  Co22     1.0000 0.02609  0.45034  0.13374  Biso   1.000  Co
  Co23     1.0000 0.53141  0.45995  0.27466  Biso   1.000  Co
  Co24     1.0000 0.29600  0.46644  0.18551  Biso   1.000  Co
  Co25     1.0000 0.36626  0.97391  0.95034  Biso   1.000  Co
  Co26     1.0000 0.22534  0.46859  0.95995  Biso   1.000  Co
  Co27     1.0000 0.31449  0.70400  0.96644  Biso   1.000  Co
  Co28     1.0000 0.63374  0.47391  0.54966  Biso   1.000  Co
  Co29     1.0000 0.77466  0.96859  0.54005  Biso   1.000  Co
  Co30     1.0000 0.68551  0.20400  0.53356  Biso   1.000  Co
  Co31     1.0000 0.86626  0.52609  0.04966  Biso   1.000  Co
  Co32     1.0000 0.72534  0.03141  0.04005  Biso   1.000  Co
  Co33     1.0000 0.81449  0.79600  0.03356  Biso   1.000  Co
  Co34     1.0000 0.13374  0.02609  0.45034  Biso   1.000  Co
  Co35     1.0000 0.27466  0.53141  0.45995  Biso   1.000  Co
  Co36     1.0000 0.18551  0.29600  0.46644  Biso   1.000  Co
  Co37     1.0000 0.04966  0.63374  0.02609  Biso   1.000  Co
  Co38     1.0000 0.04005  0.77466  0.53141  Biso   1.000  Co
  Co39     1.0000 0.03356  0.68551  0.29600  Biso   1.000  Co
  Co40     1.0000 0.45034  0.36626  0.52609  Biso   1.000  Co
  Co41     1.0000 0.45995  0.22534  0.03141  Biso   1.000  Co
  Co42     1.0000 0.46644  0.31449  0.79600  Biso   1.000  Co
  Co43     1.0000 0.95034  0.13374  0.47391  Biso   1.000  Co
  Co44     1.0000 0.95995  0.27466  0.96859  Biso   1.000  Co
  Co45     1.0000 0.96644  0.18551  0.20400  Biso   1.000  Co
  Co46     1.0000 0.54966  0.86626  0.97391  Biso   1.000  Co
  Co47     1.0000 0.54005  0.72534  0.46859  Biso   1.000  Co
  Co48     1.0000 0.53356  0.81449  0.70400  Biso   1.000  Co
  Co49     1.0000 0.02609  0.04966  0.63374  Biso   1.000  Co
  Co50     1.0000 0.53141  0.04005  0.77466  Biso   1.000  Co
  Co51     1.0000 0.29600  0.03356  0.68551  Biso   1.000  Co
  Co52     1.0000 0.52609  0.45034  0.36626  Biso   1.000  Co
  Co53     1.0000 0.03141  0.45995  0.22534  Biso   1.000  Co
  Co54     1.0000 0.79600  0.46644  0.31449  Biso   1.000  Co
  Co55     1.0000 0.47391  0.95034  0.13374  Biso   1.000  Co
  Co56     1.0000 0.96859  0.95995  0.27466  Biso   1.000  Co
  Co57     1.0000 0.20400  0.96644  0.18551  Biso   1.000  Co
  Co58     1.0000 0.97391  0.54966  0.86626  Biso   1.000  Co
  Co59     1.0000 0.46859  0.54005  0.72534  Biso   1.000  Co
  Co60     1.0000 0.70400  0.53356  0.81449  Biso   1.000  Co
  Co61     1.0000 0.63374  0.02609  0.04966  Biso   1.000  Co
  Co62     1.0000 0.77466  0.53141  0.04005  Biso   1.000  Co
  Co63     1.0000 0.68551  0.29600  0.03356  Biso   1.000  Co
  Co64     1.0000 0.36626  0.52609  0.45034  Biso   1.000  Co
  Co65     1.0000 0.22534  0.03141  0.45995  Biso   1.000  Co
  Co66     1.0000 0.31449  0.79600  0.46644  Biso   1.000  Co
  Co67     1.0000 0.13374  0.47391  0.95034  Biso   1.000  Co
  Co68     1.0000 0.27466  0.96859  0.95995  Biso   1.000  Co
  Co69     1.0000 0.18551  0.20400  0.96644  Biso   1.000  Co
  Co70     1.0000 0.86626  0.97391  0.54966  Biso   1.000  Co
  Co71     1.0000 0.72534  0.46859  0.54005  Biso   1.000  Co
  Co72     1.0000 0.81449  0.70400  0.53356  Biso   1.000  Co
  H1       1.0000 0.98400  0.13560  0.57510  Biso   1.000  H
  H2       1.0000 0.96180  0.23350  0.58080  Biso   1.000  H
  H3       1.0000 0.99660  0.18840  0.66460  Biso   1.000  H
  H4       1.0000 0.93720  0.35090  0.83400  Biso   1.000  H
  H5       1.0000 0.94800  0.44060  0.88440  Biso   1.000  H
  H6       1.0000 0.95980  0.43650  0.78180  Biso   1.000  H
  H7       1.0000 0.89330  0.40700  0.76440  Biso   1.000  H
  H8       1.0000 0.85490  0.38170  0.71990  Biso   1.000  H
  H9       1.0000 0.86720  0.28490  0.62930  Biso   1.000  H
  H10      1.0000 0.90950  0.24370  0.60610  Biso   1.000  H
  H11      1.0000 0.80710  0.38500  0.61380  Biso   1.000  H
  H12      1.0000 0.76000  0.36080  0.64260  Biso   1.000  H
  H13      1.0000 0.76900  0.31990  0.68600  Biso   1.000  H
  H14      1.0000 0.04370  0.23000  0.63940  Biso   1.000  H
  H15      1.0000 0.08620  0.26220  0.67510  Biso   1.000  H
  H16      1.0000 0.06940  0.34830  0.77990  Biso   1.000  H
  H17      1.0000 0.01850  0.37490  0.80760  Biso   1.000  H
  H18      1.0000 0.15460  0.27720  0.76800  Biso   1.000  H
  H19      1.0000 0.18610  0.32040  0.73990  Biso   1.000  H
  H20      1.0000 0.15810  0.35900  0.70310  Biso   1.000  H
  H21      1.0000 0.51600  0.86440  0.07510  Biso   1.000  H
  H22      1.0000 0.53820  0.76650  0.08080  Biso   1.000  H
  H23      1.0000 0.50340  0.81160  0.16460  Biso   1.000  H
  H24      1.0000 0.56280  0.64910  0.33400  Biso   1.000  H
  H25      1.0000 0.55200  0.55940  0.38440  Biso   1.000  H
  H26      1.0000 0.54020  0.56350  0.28180  Biso   1.000  H
  H27      1.0000 0.60670  0.59300  0.26440  Biso   1.000  H
  H28      1.0000 0.64510  0.61830  0.21990  Biso   1.000  H
  H29      1.0000 0.63280  0.71510  0.12930  Biso   1.000  H
  H30      1.0000 0.59050  0.75630  0.10610  Biso   1.000  H
  H31      1.0000 0.69290  0.61500  0.11380  Biso   1.000  H
  H32      1.0000 0.74000  0.63920  0.14260  Biso   1.000  H
  H33      1.0000 0.73100  0.68010  0.18600  Biso   1.000  H
  H34      1.0000 0.45630  0.77000  0.13940  Biso   1.000  H
  H35      1.0000 0.41380  0.73780  0.17510  Biso   1.000  H
  H36      1.0000 0.43060  0.65170  0.27990  Biso   1.000  H
  H37      1.0000 0.48150  0.62510  0.30760  Biso   1.000  H
  H38      1.0000 0.34540  0.72280  0.26800  Biso   1.000  H
  H39      1.0000 0.31390  0.67960  0.23990  Biso   1.000  H
  H40      1.0000 0.34190  0.64100  0.20310  Biso   1.000  H
  H41      1.0000 0.01600  0.63560  0.92490  Biso   1.000  H
  H42      1.0000 0.03820  0.73350  0.91920  Biso   1.000  H
  H43      1.0000 0.00340  0.68840  0.83540  Biso   1.000  H
  H44      1.0000 0.06280  0.85090  0.66600  Biso   1.000  H
  H45      1.0000 0.05200  0.94060  0.61560  Biso   1.000  H
  H46      1.0000 0.04020  0.93650  0.71820  Biso   1.000  H
  H47      1.0000 0.10670  0.90700  0.73560  Biso   1.000  H
  H48      1.0000 0.14510  0.88170  0.78010  Biso   1.000  H
  H49      1.0000 0.13280  0.78490  0.87070  Biso   1.000  H
  H50      1.0000 0.09050  0.74370  0.89390  Biso   1.000  H
  H51      1.0000 0.19290  0.88500  0.88620  Biso   1.000  H
  H52      1.0000 0.24000  0.86080  0.85740  Biso   1.000  H
  H53      1.0000 0.23100  0.81990  0.81400  Biso   1.000  H
  H54      1.0000 0.95630  0.73000  0.86060  Biso   1.000  H
  H55      1.0000 0.91380  0.76220  0.82490  Biso   1.000  H
  H56      1.0000 0.93060  0.84830  0.72010  Biso   1.000  H
  H57      1.0000 0.98150  0.87490  0.69240  Biso   1.000  H
  H58      1.0000 0.84540  0.77720  0.73200  Biso   1.000  H
  H59      1.0000 0.81390  0.82040  0.76010  Biso   1.000  H
  H60      1.0000 0.84190  0.85900  0.79690  Biso   1.000  H
  H61      1.0000 0.48400  0.36440  0.42490  Biso   1.000  H
  H62      1.0000 0.46180  0.26650  0.41920  Biso   1.000  H
  H63      1.0000 0.49660  0.31160  0.33540  Biso   1.000  H
  H64      1.0000 0.43720  0.14910  0.16600  Biso   1.000  H
  H65      1.0000 0.44800  0.05940  0.11560  Biso   1.000  H
  H66      1.0000 0.45980  0.06350  0.21820  Biso   1.000  H
  H67      1.0000 0.39330  0.09300  0.23560  Biso   1.000  H
  H68      1.0000 0.35490  0.11830  0.28010  Biso   1.000  H
  H69      1.0000 0.36720  0.21510  0.37070  Biso   1.000  H
  H70      1.0000 0.40950  0.25630  0.39390  Biso   1.000  H
  H71      1.0000 0.30710  0.11500  0.38620  Biso   1.000  H
  H72      1.0000 0.26000  0.13920  0.35740  Biso   1.000  H
  H73      1.0000 0.26900  0.18010  0.31400  Biso   1.000  H
  H74      1.0000 0.54370  0.27000  0.36060  Biso   1.000  H
  H75      1.0000 0.58620  0.23780  0.32490  Biso   1.000  H
  H76      1.0000 0.56940  0.15170  0.22010  Biso   1.000  H
  H77      1.0000 0.51850  0.12510  0.19240  Biso   1.000  H
  H78      1.0000 0.65460  0.22280  0.23200  Biso   1.000  H
  H79      1.0000 0.68610  0.17960  0.26010  Biso   1.000  H
  H80      1.0000 0.65810  0.14100  0.29690  Biso   1.000  H
  H81      1.0000 0.57510  0.98400  0.13560  Biso   1.000  H
  H82      1.0000 0.58080  0.96180  0.23350  Biso   1.000  H
  H83      1.0000 0.66460  0.99660  0.18840  Biso   1.000  H
  H84      1.0000 0.83400  0.93720  0.35090  Biso   1.000  H
  H85      1.0000 0.88440  0.94800  0.44060  Biso   1.000  H
  H86      1.0000 0.78180  0.95980  0.43650  Biso   1.000  H
  H87      1.0000 0.76440  0.89330  0.40700  Biso   1.000  H
  H88      1.0000 0.71990  0.85490  0.38170  Biso   1.000  H
  H89      1.0000 0.62930  0.86720  0.28490  Biso   1.000  H
  H90      1.0000 0.60610  0.90950  0.24370  Biso   1.000  H
  H91      1.0000 0.61380  0.80710  0.38500  Biso   1.000  H
  H92      1.0000 0.64260  0.76000  0.36080  Biso   1.000  H
  H93      1.0000 0.68600  0.76900  0.31990  Biso   1.000  H
  H94      1.0000 0.63940  0.04370  0.23000  Biso   1.000  H
  H95      1.0000 0.67510  0.08620  0.26220  Biso   1.000  H
  H96      1.0000 0.77990  0.06940  0.34830  Biso   1.000  H
  H97      1.0000 0.80760  0.01850  0.37490  Biso   1.000  H
  H98      1.0000 0.76800  0.15460  0.27720  Biso   1.000  H
  H99      1.0000 0.73990  0.18610  0.32040  Biso   1.000  H
  H100     1.0000 0.70310  0.15810  0.35900  Biso   1.000  H
  H101     1.0000 0.07510  0.51600  0.86440  Biso   1.000  H
  H102     1.0000 0.08080  0.53820  0.76650  Biso   1.000  H
  H103     1.0000 0.16460  0.50340  0.81160  Biso   1.000  H
  H104     1.0000 0.33400  0.56280  0.64910  Biso   1.000  H
  H105     1.0000 0.38440  0.55200  0.55940  Biso   1.000  H
  H106     1.0000 0.28180  0.54020  0.56350  Biso   1.000  H
  H107     1.0000 0.26440  0.60670  0.59300  Biso   1.000  H
  H108     1.0000 0.21990  0.64510  0.61830  Biso   1.000  H
  H109     1.0000 0.12930  0.63280  0.71510  Biso   1.000  H
  H110     1.0000 0.10610  0.59050  0.75630  Biso   1.000  H
  H111     1.0000 0.11380  0.69290  0.61500  Biso   1.000  H
  H112     1.0000 0.14260  0.74000  0.63920  Biso   1.000  H
  H113     1.0000 0.18600  0.73100  0.68010  Biso   1.000  H
  H114     1.0000 0.13940  0.45630  0.77000  Biso   1.000  H
  H115     1.0000 0.17510  0.41380  0.73780  Biso   1.000  H
  H116     1.0000 0.27990  0.43060  0.65170  Biso   1.000  H
  H117     1.0000 0.30760  0.48150  0.62510  Biso   1.000  H
  H118     1.0000 0.26800  0.34540  0.72280  Biso   1.000  H
  H119     1.0000 0.23990  0.31390  0.67960  Biso   1.000  H
  H120     1.0000 0.20310  0.34190  0.64100  Biso   1.000  H
  H121     1.0000 0.92490  0.01600  0.63560  Biso   1.000  H
  H122     1.0000 0.91920  0.03820  0.73350  Biso   1.000  H
  H123     1.0000 0.83540  0.00340  0.68840  Biso   1.000  H
  H124     1.0000 0.66600  0.06280  0.85090  Biso   1.000  H
  H125     1.0000 0.61560  0.05200  0.94060  Biso   1.000  H
  H126     1.0000 0.71820  0.04020  0.93650  Biso   1.000  H
  H127     1.0000 0.73560  0.10670  0.90700  Biso   1.000  H
  H128     1.0000 0.78010  0.14510  0.88170  Biso   1.000  H
  H129     1.0000 0.87070  0.13280  0.78490  Biso   1.000  H
  H130     1.0000 0.89390  0.09050  0.74370  Biso   1.000  H
  H131     1.0000 0.88620  0.19290  0.88500  Biso   1.000  H
  H132     1.0000 0.85740  0.24000  0.86080  Biso   1.000  H
  H133     1.0000 0.81400  0.23100  0.81990  Biso   1.000  H
  H134     1.0000 0.86060  0.95630  0.73000  Biso   1.000  H
  H135     1.0000 0.82490  0.91380  0.76220  Biso   1.000  H
  H136     1.0000 0.72010  0.93060  0.84830  Biso   1.000  H
  H137     1.0000 0.69240  0.98150  0.87490  Biso   1.000  H
  H138     1.0000 0.73200  0.84540  0.77720  Biso   1.000  H
  H139     1.0000 0.76010  0.81390  0.82040  Biso   1.000  H
  H140     1.0000 0.79690  0.84190  0.85900  Biso   1.000  H
  H141     1.0000 0.42490  0.48400  0.36440  Biso   1.000  H
  H142     1.0000 0.41920  0.46180  0.26650  Biso   1.000  H
  H143     1.0000 0.33540  0.49660  0.31160  Biso   1.000  H
  H144     1.0000 0.16600  0.43720  0.14910  Biso   1.000  H
  H145     1.0000 0.11560  0.44800  0.05940  Biso   1.000  H
  H146     1.0000 0.21820  0.45980  0.06350  Biso   1.000  H
  H147     1.0000 0.23560  0.39330  0.09300  Biso   1.000  H
  H148     1.0000 0.28010  0.35490  0.11830  Biso   1.000  H
  H149     1.0000 0.37070  0.36720  0.21510  Biso   1.000  H
  H150     1.0000 0.39390  0.40950  0.25630  Biso   1.000  H
  H151     1.0000 0.38620  0.30710  0.11500  Biso   1.000  H
  H152     1.0000 0.35740  0.26000  0.13920  Biso   1.000  H
  H153     1.0000 0.31400  0.26900  0.18010  Biso   1.000  H
  H154     1.0000 0.36060  0.54370  0.27000  Biso   1.000  H
  H155     1.0000 0.32490  0.58620  0.23780  Biso   1.000  H
  H156     1.0000 0.22010  0.56940  0.15170  Biso   1.000  H
  H157     1.0000 0.19240  0.51850  0.12510  Biso   1.000  H
  H158     1.0000 0.23200  0.65460  0.22280  Biso   1.000  H
  H159     1.0000 0.26010  0.68610  0.17960  Biso   1.000  H
  H160     1.0000 0.29690  0.65810  0.14100  Biso   1.000  H
  H161     1.0000 0.13560  0.57510  0.98400  Biso   1.000  H
  H162     1.0000 0.23350  0.58080  0.96180  Biso   1.000  H
  H163     1.0000 0.18840  0.66460  0.99660  Biso   1.000  H
  H164     1.0000 0.35090  0.83400  0.93720  Biso   1.000  H
  H165     1.0000 0.44060  0.88440  0.94800  Biso   1.000  H
  H166     1.0000 0.43650  0.78180  0.95980  Biso   1.000  H
  H167     1.0000 0.40700  0.76440  0.89330  Biso   1.000  H
  H168     1.0000 0.38170  0.71990  0.85490  Biso   1.000  H
  H169     1.0000 0.28490  0.62930  0.86720  Biso   1.000  H
  H170     1.0000 0.24370  0.60610  0.90950  Biso   1.000  H
  H171     1.0000 0.38500  0.61380  0.80710  Biso   1.000  H
  H172     1.0000 0.36080  0.64260  0.76000  Biso   1.000  H
  H173     1.0000 0.31990  0.68600  0.76900  Biso   1.000  H
  H174     1.0000 0.23000  0.63940  0.04370  Biso   1.000  H
  H175     1.0000 0.26220  0.67510  0.08620  Biso   1.000  H
  H176     1.0000 0.34830  0.77990  0.06940  Biso   1.000  H
  H177     1.0000 0.37490  0.80760  0.01850  Biso   1.000  H
  H178     1.0000 0.27720  0.76800  0.15460  Biso   1.000  H
  H179     1.0000 0.32040  0.73990  0.18610  Biso   1.000  H
  H180     1.0000 0.35900  0.70310  0.15810  Biso   1.000  H
  H181     1.0000 0.86440  0.07510  0.51600  Biso   1.000  H
  H182     1.0000 0.76650  0.08080  0.53820  Biso   1.000  H
  H183     1.0000 0.81160  0.16460  0.50340  Biso   1.000  H
  H184     1.0000 0.64910  0.33400  0.56280  Biso   1.000  H
  H185     1.0000 0.55940  0.38440  0.55200  Biso   1.000  H
  H186     1.0000 0.56350  0.28180  0.54020  Biso   1.000  H
  H187     1.0000 0.59300  0.26440  0.60670  Biso   1.000  H
  H188     1.0000 0.61830  0.21990  0.64510  Biso   1.000  H
  H189     1.0000 0.71510  0.12930  0.63280  Biso   1.000  H
  H190     1.0000 0.75630  0.10610  0.59050  Biso   1.000  H
  H191     1.0000 0.61500  0.11380  0.69290  Biso   1.000  H
  H192     1.0000 0.63920  0.14260  0.74000  Biso   1.000  H
  H193     1.0000 0.68010  0.18600  0.73100  Biso   1.000  H
  H194     1.0000 0.77000  0.13940  0.45630  Biso   1.000  H
  H195     1.0000 0.73780  0.17510  0.41380  Biso   1.000  H
  H196     1.0000 0.65170  0.27990  0.43060  Biso   1.000  H
  H197     1.0000 0.62510  0.30760  0.48150  Biso   1.000  H
  H198     1.0000 0.72280  0.26800  0.34540  Biso   1.000  H
  H199     1.0000 0.67960  0.23990  0.31390  Biso   1.000  H
  H200     1.0000 0.64100  0.20310  0.34190  Biso   1.000  H
  H201     1.0000 0.63560  0.92490  0.01600  Biso   1.000  H
  H202     1.0000 0.73350  0.91920  0.03820  Biso   1.000  H
  H203     1.0000 0.68840  0.83540  0.00340  Biso   1.000  H
  H204     1.0000 0.85090  0.66600  0.06280  Biso   1.000  H
  H205     1.0000 0.94060  0.61560  0.05200  Biso   1.000  H
  H206     1.0000 0.93650  0.71820  0.04020  Biso   1.000  H
  H207     1.0000 0.90700  0.73560  0.10670  Biso   1.000  H
  H208     1.0000 0.88170  0.78010  0.14510  Biso   1.000  H
  H209     1.0000 0.78490  0.87070  0.13280  Biso   1.000  H
  H210     1.0000 0.74370  0.89390  0.09050  Biso   1.000  H
  H211     1.0000 0.88500  0.88620  0.19290  Biso   1.000  H
  H212     1.0000 0.86080  0.85740  0.24000  Biso   1.000  H
  H213     1.0000 0.81990  0.81400  0.23100  Biso   1.000  H
  H214     1.0000 0.73000  0.86060  0.95630  Biso   1.000  H
  H215     1.0000 0.76220  0.82490  0.91380  Biso   1.000  H
  H216     1.0000 0.84830  0.72010  0.93060  Biso   1.000  H
  H217     1.0000 0.87490  0.69240  0.98150  Biso   1.000  H
  H218     1.0000 0.77720  0.73200  0.84540  Biso   1.000  H
  H219     1.0000 0.82040  0.76010  0.81390  Biso   1.000  H
  H220     1.0000 0.85900  0.79690  0.84190  Biso   1.000  H
  H221     1.0000 0.36440  0.42490  0.48400  Biso   1.000  H
  H222     1.0000 0.26650  0.41920  0.46180  Biso   1.000  H
  H223     1.0000 0.31160  0.33540  0.49660  Biso   1.000  H
  H224     1.0000 0.14910  0.16600  0.43720  Biso   1.000  H
  H225     1.0000 0.05940  0.11560  0.44800  Biso   1.000  H
  H226     1.0000 0.06350  0.21820  0.45980  Biso   1.000  H
  H227     1.0000 0.09300  0.23560  0.39330  Biso   1.000  H
  H228     1.0000 0.11830  0.28010  0.35490  Biso   1.000  H
  H229     1.0000 0.21510  0.37070  0.36720  Biso   1.000  H
  H230     1.0000 0.25630  0.39390  0.40950  Biso   1.000  H
  H231     1.0000 0.11500  0.38620  0.30710  Biso   1.000  H
  H232     1.0000 0.13920  0.35740  0.26000  Biso   1.000  H
  H233     1.0000 0.18010  0.31400  0.26900  Biso   1.000  H
  H234     1.0000 0.27000  0.36060  0.54370  Biso   1.000  H
  H235     1.0000 0.23780  0.32490  0.58620  Biso   1.000  H
  H236     1.0000 0.15170  0.22010  0.56940  Biso   1.000  H
  H237     1.0000 0.12510  0.19240  0.51850  Biso   1.000  H
  H238     1.0000 0.22280  0.23200  0.65460  Biso   1.000  H
  H239     1.0000 0.17960  0.26010  0.68610  Biso   1.000  H
  H240     1.0000 0.14100  0.29690  0.65810  Biso   1.000  H
  H241     1.0000 0.01600  0.86440  0.42490  Biso   1.000  H
  H242     1.0000 0.03820  0.76650  0.41920  Biso   1.000  H
  H243     1.0000 0.00340  0.81160  0.33540  Biso   1.000  H
  H244     1.0000 0.06280  0.64910  0.16600  Biso   1.000  H
  H245     1.0000 0.05200  0.55940  0.11560  Biso   1.000  H
  H246     1.0000 0.04020  0.56350  0.21820  Biso   1.000  H
  H247     1.0000 0.10670  0.59300  0.23560  Biso   1.000  H
  H248     1.0000 0.14510  0.61830  0.28010  Biso   1.000  H
  H249     1.0000 0.13280  0.71510  0.37070  Biso   1.000  H
  H250     1.0000 0.09050  0.75630  0.39390  Biso   1.000  H
  H251     1.0000 0.19290  0.61500  0.38620  Biso   1.000  H
  H252     1.0000 0.24000  0.63920  0.35740  Biso   1.000  H
  H253     1.0000 0.23100  0.68010  0.31400  Biso   1.000  H
  H254     1.0000 0.95630  0.77000  0.36060  Biso   1.000  H
  H255     1.0000 0.91380  0.73780  0.32490  Biso   1.000  H
  H256     1.0000 0.93060  0.65170  0.22010  Biso   1.000  H
  H257     1.0000 0.98150  0.62510  0.19240  Biso   1.000  H
  H258     1.0000 0.84540  0.72280  0.23200  Biso   1.000  H
  H259     1.0000 0.81390  0.67960  0.26010  Biso   1.000  H
  H260     1.0000 0.84190  0.64100  0.29690  Biso   1.000  H
  H261     1.0000 0.48400  0.13560  0.92490  Biso   1.000  H
  H262     1.0000 0.46180  0.23350  0.91920  Biso   1.000  H
  H263     1.0000 0.49660  0.18840  0.83540  Biso   1.000  H
  H264     1.0000 0.43720  0.35090  0.66600  Biso   1.000  H
  H265     1.0000 0.44800  0.44060  0.61560  Biso   1.000  H
  H266     1.0000 0.45980  0.43650  0.71820  Biso   1.000  H
  H267     1.0000 0.39330  0.40700  0.73560  Biso   1.000  H
  H268     1.0000 0.35490  0.38170  0.78010  Biso   1.000  H
  H269     1.0000 0.36720  0.28490  0.87070  Biso   1.000  H
  H270     1.0000 0.40950  0.24370  0.89390  Biso   1.000  H
  H271     1.0000 0.30710  0.38500  0.88620  Biso   1.000  H
  H272     1.0000 0.26000  0.36080  0.85740  Biso   1.000  H
  H273     1.0000 0.26900  0.31990  0.81400  Biso   1.000  H
  H274     1.0000 0.54370  0.23000  0.86060  Biso   1.000  H
  H275     1.0000 0.58620  0.26220  0.82490  Biso   1.000  H
  H276     1.0000 0.56940  0.34830  0.72010  Biso   1.000  H
  H277     1.0000 0.51850  0.37490  0.69240  Biso   1.000  H
  H278     1.0000 0.65460  0.27720  0.73200  Biso   1.000  H
  H279     1.0000 0.68610  0.32040  0.76010  Biso   1.000  H
  H280     1.0000 0.65810  0.35900  0.79690  Biso   1.000  H
  H281     1.0000 0.98400  0.36440  0.07510  Biso   1.000  H
  H282     1.0000 0.96180  0.26650  0.08080  Biso   1.000  H
  H283     1.0000 0.99660  0.31160  0.16460  Biso   1.000  H
  H284     1.0000 0.93720  0.14910  0.33400  Biso   1.000  H
  H285     1.0000 0.94800  0.05940  0.38440  Biso   1.000  H
  H286     1.0000 0.95980  0.06350  0.28180  Biso   1.000  H
  H287     1.0000 0.89330  0.09300  0.26440  Biso   1.000  H
  H288     1.0000 0.85490  0.11830  0.21990  Biso   1.000  H
  H289     1.0000 0.86720  0.21510  0.12930  Biso   1.000  H
  H290     1.0000 0.90950  0.25630  0.10610  Biso   1.000  H
  H291     1.0000 0.80710  0.11500  0.11380  Biso   1.000  H
  H292     1.0000 0.76000  0.13920  0.14260  Biso   1.000  H
  H293     1.0000 0.76900  0.18010  0.18600  Biso   1.000  H
  H294     1.0000 0.04370  0.27000  0.13940  Biso   1.000  H
  H295     1.0000 0.08620  0.23780  0.17510  Biso   1.000  H
  H296     1.0000 0.06940  0.15170  0.27990  Biso   1.000  H
  H297     1.0000 0.01850  0.12510  0.30760  Biso   1.000  H
  H298     1.0000 0.15460  0.22280  0.26800  Biso   1.000  H
  H299     1.0000 0.18610  0.17960  0.23990  Biso   1.000  H
  H300     1.0000 0.15810  0.14100  0.20310  Biso   1.000  H
  H301     1.0000 0.51600  0.63560  0.57510  Biso   1.000  H
  H302     1.0000 0.53820  0.73350  0.58080  Biso   1.000  H
  H303     1.0000 0.50340  0.68840  0.66460  Biso   1.000  H
  H304     1.0000 0.56280  0.85090  0.83400  Biso   1.000  H
  H305     1.0000 0.55200  0.94060  0.88440  Biso   1.000  H
  H306     1.0000 0.54020  0.93650  0.78180  Biso   1.000  H
  H307     1.0000 0.60670  0.90700  0.76440  Biso   1.000  H
  H308     1.0000 0.64510  0.88170  0.71990  Biso   1.000  H
  H309     1.0000 0.63280  0.78490  0.62930  Biso   1.000  H
  H310     1.0000 0.59050  0.74370  0.60610  Biso   1.000  H
  H311     1.0000 0.69290  0.88500  0.61380  Biso   1.000  H
  H312     1.0000 0.74000  0.86080  0.64260  Biso   1.000  H
  H313     1.0000 0.73100  0.81990  0.68600  Biso   1.000  H
  H314     1.0000 0.45630  0.73000  0.63940  Biso   1.000  H
  H315     1.0000 0.41380  0.76220  0.67510  Biso   1.000  H
  H316     1.0000 0.43060  0.84830  0.77990  Biso   1.000  H
  H317     1.0000 0.48150  0.87490  0.80760  Biso   1.000  H
  H318     1.0000 0.34540  0.77720  0.76800  Biso   1.000  H
  H319     1.0000 0.31390  0.82040  0.73990  Biso   1.000  H
  H320     1.0000 0.34190  0.85900  0.70310  Biso   1.000  H
  H321     1.0000 0.42490  0.01600  0.86440  Biso   1.000  H
  H322     1.0000 0.41920  0.03820  0.76650  Biso   1.000  H
  H323     1.0000 0.33540  0.00340  0.81160  Biso   1.000  H
  H324     1.0000 0.16600  0.06280  0.64910  Biso   1.000  H
  H325     1.0000 0.11560  0.05200  0.55940  Biso   1.000  H
  H326     1.0000 0.21820  0.04020  0.56350  Biso   1.000  H
  H327     1.0000 0.23560  0.10670  0.59300  Biso   1.000  H
  H328     1.0000 0.28010  0.14510  0.61830  Biso   1.000  H
  H329     1.0000 0.37070  0.13280  0.71510  Biso   1.000  H
  H330     1.0000 0.39390  0.09050  0.75630  Biso   1.000  H
  H331     1.0000 0.38620  0.19290  0.61500  Biso   1.000  H
  H332     1.0000 0.35740  0.24000  0.63920  Biso   1.000  H
  H333     1.0000 0.31400  0.23100  0.68010  Biso   1.000  H
  H334     1.0000 0.36060  0.95630  0.77000  Biso   1.000  H
  H335     1.0000 0.32490  0.91380  0.73780  Biso   1.000  H
  H336     1.0000 0.22010  0.93060  0.65170  Biso   1.000  H
  H337     1.0000 0.19240  0.98150  0.62510  Biso   1.000  H
  H338     1.0000 0.23200  0.84540  0.72280  Biso   1.000  H
  H339     1.0000 0.26010  0.81390  0.67960  Biso   1.000  H
  H340     1.0000 0.29690  0.84190  0.64100  Biso   1.000  H
  H341     1.0000 0.92490  0.48400  0.13560  Biso   1.000  H
  H342     1.0000 0.91920  0.46180  0.23350  Biso   1.000  H
  H343     1.0000 0.83540  0.49660  0.18840  Biso   1.000  H
  H344     1.0000 0.66600  0.43720  0.35090  Biso   1.000  H
  H345     1.0000 0.61560  0.44800  0.44060  Biso   1.000  H
  H346     1.0000 0.71820  0.45980  0.43650  Biso   1.000  H
  H347     1.0000 0.73560  0.39330  0.40700  Biso   1.000  H
  H348     1.0000 0.78010  0.35490  0.38170  Biso   1.000  H
  H349     1.0000 0.87070  0.36720  0.28490  Biso   1.000  H
  H350     1.0000 0.89390  0.40950  0.24370  Biso   1.000  H
  H351     1.0000 0.88620  0.30710  0.38500  Biso   1.000  H
  H352     1.0000 0.85740  0.26000  0.36080  Biso   1.000  H
  H353     1.0000 0.81400  0.26900  0.31990  Biso   1.000  H
  H354     1.0000 0.86060  0.54370  0.23000  Biso   1.000  H
  H355     1.0000 0.82490  0.58620  0.26220  Biso   1.000  H
  H356     1.0000 0.72010  0.56940  0.34830  Biso   1.000  H
  H357     1.0000 0.69240  0.51850  0.37490  Biso   1.000  H
  H358     1.0000 0.73200  0.65460  0.27720  Biso   1.000  H
  H359     1.0000 0.76010  0.68610  0.32040  Biso   1.000  H
  H360     1.0000 0.79690  0.65810  0.35900  Biso   1.000  H
  H361     1.0000 0.07510  0.98400  0.36440  Biso   1.000  H
  H362     1.0000 0.08080  0.96180  0.26650  Biso   1.000  H
  H363     1.0000 0.16460  0.99660  0.31160  Biso   1.000  H
  H364     1.0000 0.33400  0.93720  0.14910  Biso   1.000  H
  H365     1.0000 0.38440  0.94800  0.05940  Biso   1.000  H
  H366     1.0000 0.28180  0.95980  0.06350  Biso   1.000  H
  H367     1.0000 0.26440  0.89330  0.09300  Biso   1.000  H
  H368     1.0000 0.21990  0.85490  0.11830  Biso   1.000  H
  H369     1.0000 0.12930  0.86720  0.21510  Biso   1.000  H
  H370     1.0000 0.10610  0.90950  0.25630  Biso   1.000  H
  H371     1.0000 0.11380  0.80710  0.11500  Biso   1.000  H
  H372     1.0000 0.14260  0.76000  0.13920  Biso   1.000  H
  H373     1.0000 0.18600  0.76900  0.18010  Biso   1.000  H
  H374     1.0000 0.13940  0.04370  0.27000  Biso   1.000  H
  H375     1.0000 0.17510  0.08620  0.23780  Biso   1.000  H
  H376     1.0000 0.27990  0.06940  0.15170  Biso   1.000  H
  H377     1.0000 0.30760  0.01850  0.12510  Biso   1.000  H
  H378     1.0000 0.26800  0.15460  0.22280  Biso   1.000  H
  H379     1.0000 0.23990  0.18610  0.17960  Biso   1.000  H
  H380     1.0000 0.20310  0.15810  0.14100  Biso   1.000  H
  H381     1.0000 0.57510  0.51600  0.63560  Biso   1.000  H
  H382     1.0000 0.58080  0.53820  0.73350  Biso   1.000  H
  H383     1.0000 0.66460  0.50340  0.68840  Biso   1.000  H
  H384     1.0000 0.83400  0.56280  0.85090  Biso   1.000  H
  H385     1.0000 0.88440  0.55200  0.94060  Biso   1.000  H
  H386     1.0000 0.78180  0.54020  0.93650  Biso   1.000  H
  H387     1.0000 0.76440  0.60670  0.90700  Biso   1.000  H
  H388     1.0000 0.71990  0.64510  0.88170  Biso   1.000  H
  H389     1.0000 0.62930  0.63280  0.78490  Biso   1.000  H
  H390     1.0000 0.60610  0.59050  0.74370  Biso   1.000  H
  H391     1.0000 0.61380  0.69290  0.88500  Biso   1.000  H
  H392     1.0000 0.64260  0.74000  0.86080  Biso   1.000  H
  H393     1.0000 0.68600  0.73100  0.81990  Biso   1.000  H
  H394     1.0000 0.63940  0.45630  0.73000  Biso   1.000  H
  H395     1.0000 0.67510  0.41380  0.76220  Biso   1.000  H
  H396     1.0000 0.77990  0.43060  0.84830  Biso   1.000  H
  H397     1.0000 0.80760  0.48150  0.87490  Biso   1.000  H
  H398     1.0000 0.76800  0.34540  0.77720  Biso   1.000  H
  H399     1.0000 0.73990  0.31390  0.82040  Biso   1.000  H
  H400     1.0000 0.70310  0.34190  0.85900  Biso   1.000  H
  H401     1.0000 0.86440  0.42490  0.01600  Biso   1.000  H
  H402     1.0000 0.76650  0.41920  0.03820  Biso   1.000  H
  H403     1.0000 0.81160  0.33540  0.00340  Biso   1.000  H
  H404     1.0000 0.64910  0.16600  0.06280  Biso   1.000  H
  H405     1.0000 0.55940  0.11560  0.05200  Biso   1.000  H
  H406     1.0000 0.56350  0.21820  0.04020  Biso   1.000  H
  H407     1.0000 0.59300  0.23560  0.10670  Biso   1.000  H
  H408     1.0000 0.61830  0.28010  0.14510  Biso   1.000  H
  H409     1.0000 0.71510  0.37070  0.13280  Biso   1.000  H
  H410     1.0000 0.75630  0.39390  0.09050  Biso   1.000  H
  H411     1.0000 0.61500  0.38620  0.19290  Biso   1.000  H
  H412     1.0000 0.63920  0.35740  0.24000  Biso   1.000  H
  H413     1.0000 0.68010  0.31400  0.23100  Biso   1.000  H
  H414     1.0000 0.77000  0.36060  0.95630  Biso   1.000  H
  H415     1.0000 0.73780  0.32490  0.91380  Biso   1.000  H
  H416     1.0000 0.65170  0.22010  0.93060  Biso   1.000  H
  H417     1.0000 0.62510  0.19240  0.98150  Biso   1.000  H
  H418     1.0000 0.72280  0.23200  0.84540  Biso   1.000  H
  H419     1.0000 0.67960  0.26010  0.81390  Biso   1.000  H
  H420     1.0000 0.64100  0.29690  0.84190  Biso   1.000  H
  H421     1.0000 0.13560  0.92490  0.48400  Biso   1.000  H
  H422     1.0000 0.23350  0.91920  0.46180  Biso   1.000  H
  H423     1.0000 0.18840  0.83540  0.49660  Biso   1.000  H
  H424     1.0000 0.35090  0.66600  0.43720  Biso   1.000  H
  H425     1.0000 0.44060  0.61560  0.44800  Biso   1.000  H
  H426     1.0000 0.43650  0.71820  0.45980  Biso   1.000  H
  H427     1.0000 0.40700  0.73560  0.39330  Biso   1.000  H
  H428     1.0000 0.38170  0.78010  0.35490  Biso   1.000  H
  H429     1.0000 0.28490  0.87070  0.36720  Biso   1.000  H
  H430     1.0000 0.24370  0.89390  0.40950  Biso   1.000  H
  H431     1.0000 0.38500  0.88620  0.30710  Biso   1.000  H
  H432     1.0000 0.36080  0.85740  0.26000  Biso   1.000  H
  H433     1.0000 0.31990  0.81400  0.26900  Biso   1.000  H
  H434     1.0000 0.23000  0.86060  0.54370  Biso   1.000  H
  H435     1.0000 0.26220  0.82490  0.58620  Biso   1.000  H
  H436     1.0000 0.34830  0.72010  0.56940  Biso   1.000  H
  H437     1.0000 0.37490  0.69240  0.51850  Biso   1.000  H
  H438     1.0000 0.27720  0.73200  0.65460  Biso   1.000  H
  H439     1.0000 0.32040  0.76010  0.68610  Biso   1.000  H
  H440     1.0000 0.35900  0.79690  0.65810  Biso   1.000  H
  H441     1.0000 0.36440  0.07510  0.98400  Biso   1.000  H
  H442     1.0000 0.26650  0.08080  0.96180  Biso   1.000  H
  H443     1.0000 0.31160  0.16460  0.99660  Biso   1.000  H
  H444     1.0000 0.14910  0.33400  0.93720  Biso   1.000  H
  H445     1.0000 0.05940  0.38440  0.94800  Biso   1.000  H
  H446     1.0000 0.06350  0.28180  0.95980  Biso   1.000  H
  H447     1.0000 0.09300  0.26440  0.89330  Biso   1.000  H
  H448     1.0000 0.11830  0.21990  0.85490  Biso   1.000  H
  H449     1.0000 0.21510  0.12930  0.86720  Biso   1.000  H
  H450     1.0000 0.25630  0.10610  0.90950  Biso   1.000  H
  H451     1.0000 0.11500  0.11380  0.80710  Biso   1.000  H
  H452     1.0000 0.13920  0.14260  0.76000  Biso   1.000  H
  H453     1.0000 0.18010  0.18600  0.76900  Biso   1.000  H
  H454     1.0000 0.27000  0.13940  0.04370  Biso   1.000  H
  H455     1.0000 0.23780  0.17510  0.08620  Biso   1.000  H
  H456     1.0000 0.15170  0.27990  0.06940  Biso   1.000  H
  H457     1.0000 0.12510  0.30760  0.01850  Biso   1.000  H
  H458     1.0000 0.22280  0.26800  0.15460  Biso   1.000  H
  H459     1.0000 0.17960  0.23990  0.18610  Biso   1.000  H
  H460     1.0000 0.14100  0.20310  0.15810  Biso   1.000  H
  H461     1.0000 0.63560  0.57510  0.51600  Biso   1.000  H
  H462     1.0000 0.73350  0.58080  0.53820  Biso   1.000  H
  H463     1.0000 0.68840  0.66460  0.50340  Biso   1.000  H
  H464     1.0000 0.85090  0.83400  0.56280  Biso   1.000  H
  H465     1.0000 0.94060  0.88440  0.55200  Biso   1.000  H
  H466     1.0000 0.93650  0.78180  0.54020  Biso   1.000  H
  H467     1.0000 0.90700  0.76440  0.60670  Biso   1.000  H
  H468     1.0000 0.88170  0.71990  0.64510  Biso   1.000  H
  H469     1.0000 0.78490  0.62930  0.63280  Biso   1.000  H
  H470     1.0000 0.74370  0.60610  0.59050  Biso   1.000  H
  H471     1.0000 0.88500  0.61380  0.69290  Biso   1.000  H
  H472     1.0000 0.86080  0.64260  0.74000  Biso   1.000  H
  H473     1.0000 0.81990  0.68600  0.73100  Biso   1.000  H
  H474     1.0000 0.73000  0.63940  0.45630  Biso   1.000  H
  H475     1.0000 0.76220  0.67510  0.41380  Biso   1.000  H
  H476     1.0000 0.84830  0.77990  0.43060  Biso   1.000  H
  H477     1.0000 0.87490  0.80760  0.48150  Biso   1.000  H
  H478     1.0000 0.77720  0.76800  0.34540  Biso   1.000  H
  H479     1.0000 0.82040  0.73990  0.31390  Biso   1.000  H
  H480     1.0000 0.85900  0.70310  0.34190  Biso   1.000  H
  C1       1.0000 0.96150  0.18290  0.53480  Biso   1.000  C
  C2       1.0000 0.00630  0.12480  0.64070  Biso   1.000  C
  C3       1.0000 0.99100  0.15490  0.62480  Biso   1.000  C
  C4       1.0000 0.98140  0.15590  0.58840  Biso   1.000  C
  C5       1.0000 0.96960  0.18340  0.57350  Biso   1.000  C
  C6       1.0000 0.96820  0.21300  0.59260  Biso   1.000  C
  C7       1.0000 0.97510  0.21590  0.62670  Biso   1.000  C
  C8       1.0000 0.98850  0.18680  0.64160  Biso   1.000  C
  C9       1.0000 0.95720  0.48180  0.83130  Biso   1.000  C
  C10      1.0000 0.93750  0.37410  0.89880  Biso   1.000  C
  C11      1.0000 0.94220  0.37490  0.83400  Biso   1.000  C
  C12      1.0000 0.94150  0.39300  0.86490  Biso   1.000  C
  C13      1.0000 0.94720  0.42780  0.86360  Biso   1.000  C
  C14      1.0000 0.95180  0.44450  0.83270  Biso   1.000  C
  C15      1.0000 0.95460  0.42520  0.80280  Biso   1.000  C
  C16      1.0000 0.95010  0.39140  0.80290  Biso   1.000  C
  C17      1.0000 0.95580  0.36920  0.77020  Biso   1.000  C
  C18      1.0000 0.93170  0.37300  0.74460  Biso   1.000  C
  C19      1.0000 0.89920  0.38960  0.74820  Biso   1.000  C
  C20      1.0000 0.87830  0.37570  0.72400  Biso   1.000  C
  C21      1.0000 0.89770  0.35010  0.70560  Biso   1.000  C
  C22      1.0000 0.88460  0.32940  0.67980  Biso   1.000  C
  C23      1.0000 0.90490  0.30640  0.66190  Biso   1.000  C
  C24      1.0000 0.89060  0.28380  0.63630  Biso   1.000  C
  C25      1.0000 0.91320  0.26090  0.62320  Biso   1.000  C
  C26      1.0000 0.94420  0.26900  0.64160  Biso   1.000  C
  C27      1.0000 0.84940  0.33420  0.66570  Biso   1.000  C
  C28      1.0000 0.84410  0.35850  0.64000  Biso   1.000  C
  C29      1.0000 0.81070  0.36840  0.63140  Biso   1.000  C
  C30      1.0000 0.78280  0.35400  0.64850  Biso   1.000  C
  C31      1.0000 0.78810  0.32970  0.67430  Biso   1.000  C
  C32      1.0000 0.82150  0.31980  0.68290  Biso   1.000  C
  C33      1.0000 0.97280  0.24860  0.64770  Biso   1.000  C
  C34      1.0000 0.00370  0.26080  0.66180  Biso   1.000  C
  C35      1.0000 0.03830  0.24800  0.65520  Biso   1.000  C
  C36      1.0000 0.06190  0.26510  0.67450  Biso   1.000  C
  C37      1.0000 0.04060  0.28900  0.69410  Biso   1.000  C
  C38      1.0000 0.05390  0.31090  0.71990  Biso   1.000  C
  C39      1.0000 0.03400  0.33200  0.74050  Biso   1.000  C
  C40      1.0000 0.04640  0.34800  0.77160  Biso   1.000  C
  C41      1.0000 0.01860  0.36250  0.78650  Biso   1.000  C
  C42      1.0000 0.98910  0.35600  0.76500  Biso   1.000  C
  C43      1.0000 0.14330  0.29290  0.75300  Biso   1.000  C
  C44      1.0000 0.16190  0.31850  0.73640  Biso   1.000  C
  C45      1.0000 0.14530  0.34150  0.71450  Biso   1.000  C
  C46      1.0000 0.11000  0.33880  0.70920  Biso   1.000  C
  C47      1.0000 0.09130  0.31320  0.72590  Biso   1.000  C
  C48      1.0000 0.10790  0.29020  0.74780  Biso   1.000  C
  C49      1.0000 0.53850  0.81710  0.03480  Biso   1.000  C
  C50      1.0000 0.49370  0.87520  0.14070  Biso   1.000  C
  C51      1.0000 0.50900  0.84510  0.12480  Biso   1.000  C
  C52      1.0000 0.51860  0.84410  0.08840  Biso   1.000  C
  C53      1.0000 0.53040  0.81660  0.07350  Biso   1.000  C
  C54      1.0000 0.53180  0.78700  0.09260  Biso   1.000  C
  C55      1.0000 0.52490  0.78410  0.12670  Biso   1.000  C
  C56      1.0000 0.51150  0.81320  0.14160  Biso   1.000  C
  C57      1.0000 0.54280  0.51820  0.33130  Biso   1.000  C
  C58      1.0000 0.56250  0.62590  0.39880  Biso   1.000  C
  C59      1.0000 0.55780  0.62510  0.33400  Biso   1.000  C
  C60      1.0000 0.55850  0.60700  0.36490  Biso   1.000  C
  C61      1.0000 0.55280  0.57220  0.36360  Biso   1.000  C
  C62      1.0000 0.54820  0.55550  0.33270  Biso   1.000  C
  C63      1.0000 0.54540  0.57480  0.30280  Biso   1.000  C
  C64      1.0000 0.54990  0.60860  0.30290  Biso   1.000  C
  C65      1.0000 0.54420  0.63080  0.27020  Biso   1.000  C
  C66      1.0000 0.56830  0.62700  0.24460  Biso   1.000  C
  C67      1.0000 0.60080  0.61040  0.24820  Biso   1.000  C
  C68      1.0000 0.62170  0.62430  0.22400  Biso   1.000  C
  C69      1.0000 0.60230  0.64990  0.20560  Biso   1.000  C
  C70      1.0000 0.61540  0.67060  0.17980  Biso   1.000  C
  C71      1.0000 0.59510  0.69360  0.16190  Biso   1.000  C
  C72      1.0000 0.60940  0.71620  0.13630  Biso   1.000  C
  C73      1.0000 0.58680  0.73910  0.12320  Biso   1.000  C
  C74      1.0000 0.55580  0.73100  0.14160  Biso   1.000  C
  C75      1.0000 0.65060  0.66580  0.16570  Biso   1.000  C
  C76      1.0000 0.65590  0.64150  0.14000  Biso   1.000  C
  C77      1.0000 0.68930  0.63160  0.13140  Biso   1.000  C
  C78      1.0000 0.71720  0.64600  0.14850  Biso   1.000  C
  C79      1.0000 0.71190  0.67030  0.17430  Biso   1.000  C
  C80      1.0000 0.67850  0.68020  0.18290  Biso   1.000  C
  C81      1.0000 0.52720  0.75140  0.14770  Biso   1.000  C
  C82      1.0000 0.49630  0.73920  0.16180  Biso   1.000  C
  C83      1.0000 0.46170  0.75200  0.15520  Biso   1.000  C
  C84      1.0000 0.43810  0.73490  0.17450  Biso   1.000  C
  C85      1.0000 0.45940  0.71100  0.19410  Biso   1.000  C
  C86      1.0000 0.44610  0.68910  0.21990  Biso   1.000  C
  C87      1.0000 0.46600  0.66800  0.24050  Biso   1.000  C
  C88      1.0000 0.45360  0.65200  0.27160  Biso   1.000  C
  C89      1.0000 0.48140  0.63750  0.28650  Biso   1.000  C
  C90      1.0000 0.51090  0.64400  0.26500  Biso   1.000  C
  C91      1.0000 0.35670  0.70710  0.25300  Biso   1.000  C
  C92      1.0000 0.33810  0.68150  0.23640  Biso   1.000  C
  C93      1.0000 0.35470  0.65850  0.21450  Biso   1.000  C
  C94      1.0000 0.39000  0.66120  0.20920  Biso   1.000  C
  C95      1.0000 0.40870  0.68680  0.22590  Biso   1.000  C
  C96      1.0000 0.39210  0.70980  0.24780  Biso   1.000  C
  C97      1.0000 0.03850  0.68290  0.96520  Biso   1.000  C
  C98      1.0000 0.99370  0.62480  0.85930  Biso   1.000  C
  C99      1.0000 0.00900  0.65490  0.87520  Biso   1.000  C
  C100     1.0000 0.01860  0.65590  0.91160  Biso   1.000  C
  C101     1.0000 0.03040  0.68340  0.92650  Biso   1.000  C
  C102     1.0000 0.03180  0.71300  0.90740  Biso   1.000  C
  C103     1.0000 0.02490  0.71590  0.87330  Biso   1.000  C
  C104     1.0000 0.01150  0.68680  0.85840  Biso   1.000  C
  C105     1.0000 0.04280  0.98180  0.66870  Biso   1.000  C
  C106     1.0000 0.06250  0.87410  0.60120  Biso   1.000  C
  C107     1.0000 0.05780  0.87490  0.66600  Biso   1.000  C
  C108     1.0000 0.05850  0.89300  0.63510  Biso   1.000  C
  C109     1.0000 0.05280  0.92780  0.63640  Biso   1.000  C
  C110     1.0000 0.04820  0.94450  0.66730  Biso   1.000  C
  C111     1.0000 0.04540  0.92520  0.69720  Biso   1.000  C
  C112     1.0000 0.04990  0.89140  0.69710  Biso   1.000  C
  C113     1.0000 0.04420  0.86920  0.72980  Biso   1.000  C
  C114     1.0000 0.06830  0.87300  0.75540  Biso   1.000  C
  C115     1.0000 0.10080  0.88960  0.75180  Biso   1.000  C
  C116     1.0000 0.12170  0.87570  0.77600  Biso   1.000  C
  C117     1.0000 0.10230  0.85010  0.79440  Biso   1.000  C
  C118     1.0000 0.11540  0.82940  0.82020  Biso   1.000  C
  C119     1.0000 0.09510  0.80640  0.83810  Biso   1.000  C
  C120     1.0000 0.10940  0.78380  0.86370  Biso   1.000  C
  C121     1.0000 0.08680  0.76090  0.87680  Biso   1.000  C
  C122     1.0000 0.05580  0.76900  0.85840  Biso   1.000  C
  C123     1.0000 0.15060  0.83420  0.83430  Biso   1.000  C
  C124     1.0000 0.15590  0.85850  0.86000  Biso   1.000  C
  C125     1.0000 0.18930  0.86840  0.86860  Biso   1.000  C
  C126     1.0000 0.21720  0.85400  0.85150  Biso   1.000  C
  C127     1.0000 0.21190  0.82970  0.82570  Biso   1.000  C
  C128     1.0000 0.17850  0.81980  0.81710  Biso   1.000  C
  C129     1.0000 0.02720  0.74860  0.85230  Biso   1.000  C
  C130     1.0000 0.99630  0.76080  0.83820  Biso   1.000  C
  C131     1.0000 0.96170  0.74800  0.84480  Biso   1.000  C
  C132     1.0000 0.93810  0.76510  0.82550  Biso   1.000  C
  C133     1.0000 0.95940  0.78900  0.80590  Biso   1.000  C
  C134     1.0000 0.94610  0.81090  0.78010  Biso   1.000  C
  C135     1.0000 0.96600  0.83200  0.75950  Biso   1.000  C
  C136     1.0000 0.95360  0.84800  0.72840  Biso   1.000  C
  C137     1.0000 0.98140  0.86250  0.71350  Biso   1.000  C
  C138     1.0000 0.01090  0.85600  0.73500  Biso   1.000  C
  C139     1.0000 0.85670  0.79290  0.74700  Biso   1.000  C
  C140     1.0000 0.83810  0.81850  0.76360  Biso   1.000  C
  C141     1.0000 0.85470  0.84150  0.78550  Biso   1.000  C
  C142     1.0000 0.89000  0.83880  0.79080  Biso   1.000  C
  C143     1.0000 0.90870  0.81320  0.77410  Biso   1.000  C
  C144     1.0000 0.89210  0.79020  0.75220  Biso   1.000  C
  C145     1.0000 0.46150  0.31710  0.46520  Biso   1.000  C
  C146     1.0000 0.50630  0.37520  0.35930  Biso   1.000  C
  C147     1.0000 0.49100  0.34510  0.37520  Biso   1.000  C
  C148     1.0000 0.48140  0.34410  0.41160  Biso   1.000  C
  C149     1.0000 0.46960  0.31660  0.42650  Biso   1.000  C
  C150     1.0000 0.46820  0.28700  0.40740  Biso   1.000  C
  C151     1.0000 0.47510  0.28410  0.37330  Biso   1.000  C
  C152     1.0000 0.48850  0.31320  0.35840  Biso   1.000  C
  C153     1.0000 0.45720  0.01820  0.16870  Biso   1.000  C
  C154     1.0000 0.43750  0.12590  0.10120  Biso   1.000  C
  C155     1.0000 0.44220  0.12510  0.16600  Biso   1.000  C
  C156     1.0000 0.44150  0.10700  0.13510  Biso   1.000  C
  C157     1.0000 0.44720  0.07220  0.13640  Biso   1.000  C
  C158     1.0000 0.45180  0.05550  0.16730  Biso   1.000  C
  C159     1.0000 0.45460  0.07480  0.19720  Biso   1.000  C
  C160     1.0000 0.45010  0.10860  0.19710  Biso   1.000  C
  C161     1.0000 0.45580  0.13080  0.22980  Biso   1.000  C
  C162     1.0000 0.43170  0.12700  0.25540  Biso   1.000  C
  C163     1.0000 0.39920  0.11040  0.25180  Biso   1.000  C
  C164     1.0000 0.37830  0.12430  0.27600  Biso   1.000  C
  C165     1.0000 0.39770  0.14990  0.29440  Biso   1.000  C
  C166     1.0000 0.38460  0.17060  0.32020  Biso   1.000  C
  C167     1.0000 0.40490  0.19360  0.33810  Biso   1.000  C
  C168     1.0000 0.39060  0.21620  0.36370  Biso   1.000  C
  C169     1.0000 0.41320  0.23910  0.37680  Biso   1.000  C
  C170     1.0000 0.44420  0.23100  0.35840  Biso   1.000  C
  C171     1.0000 0.34940  0.16580  0.33430  Biso   1.000  C
  C172     1.0000 0.34410  0.14150  0.36000  Biso   1.000  C
  C173     1.0000 0.31070  0.13160  0.36860  Biso   1.000  C
  C174     1.0000 0.28280  0.14600  0.35150  Biso   1.000  C
  C175     1.0000 0.28810  0.17030  0.32570  Biso   1.000  C
  C176     1.0000 0.32150  0.18020  0.31710  Biso   1.000  C
  C177     1.0000 0.47280  0.25140  0.35230  Biso   1.000  C
  C178     1.0000 0.50370  0.23920  0.33820  Biso   1.000  C
  C179     1.0000 0.53830  0.25200  0.34480  Biso   1.000  C
  C180     1.0000 0.56190  0.23490  0.32550  Biso   1.000  C
  C181     1.0000 0.54060  0.21100  0.30590  Biso   1.000  C
  C182     1.0000 0.55390  0.18910  0.28010  Biso   1.000  C
  C183     1.0000 0.53400  0.16800  0.25950  Biso   1.000  C
  C184     1.0000 0.54640  0.15200  0.22840  Biso   1.000  C
  C185     1.0000 0.51860  0.13750  0.21350  Biso   1.000  C
  C186     1.0000 0.48910  0.14400  0.23500  Biso   1.000  C
  C187     1.0000 0.64330  0.20710  0.24700  Biso   1.000  C
  C188     1.0000 0.66190  0.18150  0.26360  Biso   1.000  C
  C189     1.0000 0.64530  0.15850  0.28550  Biso   1.000  C
  C190     1.0000 0.61000  0.16120  0.29080  Biso   1.000  C
  C191     1.0000 0.59130  0.18680  0.27410  Biso   1.000  C
  C192     1.0000 0.60790  0.20980  0.25220  Biso   1.000  C
  C193     1.0000 0.53480  0.96150  0.18290  Biso   1.000  C
  C194     1.0000 0.64070  0.00630  0.12480  Biso   1.000  C
  C195     1.0000 0.62480  0.99100  0.15490  Biso   1.000  C
  C196     1.0000 0.58840  0.98140  0.15590  Biso   1.000  C
  C197     1.0000 0.57350  0.96960  0.18340  Biso   1.000  C
  C198     1.0000 0.59260  0.96820  0.21300  Biso   1.000  C
  C199     1.0000 0.62670  0.97510  0.21590  Biso   1.000  C
  C200     1.0000 0.64160  0.98850  0.18680  Biso   1.000  C
  C201     1.0000 0.83130  0.95720  0.48180  Biso   1.000  C
  C202     1.0000 0.89880  0.93750  0.37410  Biso   1.000  C
  C203     1.0000 0.83400  0.94220  0.37490  Biso   1.000  C
  C204     1.0000 0.86490  0.94150  0.39300  Biso   1.000  C
  C205     1.0000 0.86360  0.94720  0.42780  Biso   1.000  C
  C206     1.0000 0.83270  0.95180  0.44450  Biso   1.000  C
  C207     1.0000 0.80280  0.95460  0.42520  Biso   1.000  C
  C208     1.0000 0.80290  0.95010  0.39140  Biso   1.000  C
  C209     1.0000 0.77020  0.95580  0.36920  Biso   1.000  C
  C210     1.0000 0.74460  0.93170  0.37300  Biso   1.000  C
  C211     1.0000 0.74820  0.89920  0.38960  Biso   1.000  C
  C212     1.0000 0.72400  0.87830  0.37570  Biso   1.000  C
  C213     1.0000 0.70560  0.89770  0.35010  Biso   1.000  C
  C214     1.0000 0.67980  0.88460  0.32940  Biso   1.000  C
  C215     1.0000 0.66190  0.90490  0.30640  Biso   1.000  C
  C216     1.0000 0.63630  0.89060  0.28380  Biso   1.000  C
  C217     1.0000 0.62320  0.91320  0.26090  Biso   1.000  C
  C218     1.0000 0.64160  0.94420  0.26900  Biso   1.000  C
  C219     1.0000 0.66570  0.84940  0.33420  Biso   1.000  C
  C220     1.0000 0.64000  0.84410  0.35850  Biso   1.000  C
  C221     1.0000 0.63140  0.81070  0.36840  Biso   1.000  C
  C222     1.0000 0.64850  0.78280  0.35400  Biso   1.000  C
  C223     1.0000 0.67430  0.78810  0.32970  Biso   1.000  C
  C224     1.0000 0.68290  0.82150  0.31980  Biso   1.000  C
  C225     1.0000 0.64770  0.97280  0.24860  Biso   1.000  C
  C226     1.0000 0.66180  0.00370  0.26080  Biso   1.000  C
  C227     1.0000 0.65520  0.03830  0.24800  Biso   1.000  C
  C228     1.0000 0.67450  0.06190  0.26510  Biso   1.000  C
  C229     1.0000 0.69410  0.04060  0.28900  Biso   1.000  C
  C230     1.0000 0.71990  0.05390  0.31090  Biso   1.000  C
  C231     1.0000 0.74050  0.03400  0.33200  Biso   1.000  C
  C232     1.0000 0.77160  0.04640  0.34800  Biso   1.000  C
  C233     1.0000 0.78650  0.01860  0.36250  Biso   1.000  C
  C234     1.0000 0.76500  0.98910  0.35600  Biso   1.000  C
  C235     1.0000 0.75300  0.14330  0.29290  Biso   1.000  C
  C236     1.0000 0.73640  0.16190  0.31850  Biso   1.000  C
  C237     1.0000 0.71450  0.14530  0.34150  Biso   1.000  C
  C238     1.0000 0.70920  0.11000  0.33880  Biso   1.000  C
  C239     1.0000 0.72590  0.09130  0.31320  Biso   1.000  C
  C240     1.0000 0.74780  0.10790  0.29020  Biso   1.000  C
  C241     1.0000 0.03480  0.53850  0.81710  Biso   1.000  C
  C242     1.0000 0.14070  0.49370  0.87520  Biso   1.000  C
  C243     1.0000 0.12480  0.50900  0.84510  Biso   1.000  C
  C244     1.0000 0.08840  0.51860  0.84410  Biso   1.000  C
  C245     1.0000 0.07350  0.53040  0.81660  Biso   1.000  C
  C246     1.0000 0.09260  0.53180  0.78700  Biso   1.000  C
  C247     1.0000 0.12670  0.52490  0.78410  Biso   1.000  C
  C248     1.0000 0.14160  0.51150  0.81320  Biso   1.000  C
  C249     1.0000 0.33130  0.54280  0.51820  Biso   1.000  C
  C250     1.0000 0.39880  0.56250  0.62590  Biso   1.000  C
  C251     1.0000 0.33400  0.55780  0.62510  Biso   1.000  C
  C252     1.0000 0.36490  0.55850  0.60700  Biso   1.000  C
  C253     1.0000 0.36360  0.55280  0.57220  Biso   1.000  C
  C254     1.0000 0.33270  0.54820  0.55550  Biso   1.000  C
  C255     1.0000 0.30280  0.54540  0.57480  Biso   1.000  C
  C256     1.0000 0.30290  0.54990  0.60860  Biso   1.000  C
  C257     1.0000 0.27020  0.54420  0.63080  Biso   1.000  C
  C258     1.0000 0.24460  0.56830  0.62700  Biso   1.000  C
  C259     1.0000 0.24820  0.60080  0.61040  Biso   1.000  C
  C260     1.0000 0.22400  0.62170  0.62430  Biso   1.000  C
  C261     1.0000 0.20560  0.60230  0.64990  Biso   1.000  C
  C262     1.0000 0.17980  0.61540  0.67060  Biso   1.000  C
  C263     1.0000 0.16190  0.59510  0.69360  Biso   1.000  C
  C264     1.0000 0.13630  0.60940  0.71620  Biso   1.000  C
  C265     1.0000 0.12320  0.58680  0.73910  Biso   1.000  C
  C266     1.0000 0.14160  0.55580  0.73100  Biso   1.000  C
  C267     1.0000 0.16570  0.65060  0.66580  Biso   1.000  C
  C268     1.0000 0.14000  0.65590  0.64150  Biso   1.000  C
  C269     1.0000 0.13140  0.68930  0.63160  Biso   1.000  C
  C270     1.0000 0.14850  0.71720  0.64600  Biso   1.000  C
  C271     1.0000 0.17430  0.71190  0.67030  Biso   1.000  C
  C272     1.0000 0.18290  0.67850  0.68020  Biso   1.000  C
  C273     1.0000 0.14770  0.52720  0.75140  Biso   1.000  C
  C274     1.0000 0.16180  0.49630  0.73920  Biso   1.000  C
  C275     1.0000 0.15520  0.46170  0.75200  Biso   1.000  C
  C276     1.0000 0.17450  0.43810  0.73490  Biso   1.000  C
  C277     1.0000 0.19410  0.45940  0.71100  Biso   1.000  C
  C278     1.0000 0.21990  0.44610  0.68910  Biso   1.000  C
  C279     1.0000 0.24050  0.46600  0.66800  Biso   1.000  C
  C280     1.0000 0.27160  0.45360  0.65200  Biso   1.000  C
  C281     1.0000 0.28650  0.48140  0.63750  Biso   1.000  C
  C282     1.0000 0.26500  0.51090  0.64400  Biso   1.000  C
  C283     1.0000 0.25300  0.35670  0.70710  Biso   1.000  C
  C284     1.0000 0.23640  0.33810  0.68150  Biso   1.000  C
  C285     1.0000 0.21450  0.35470  0.65850  Biso   1.000  C
  C286     1.0000 0.20920  0.39000  0.66120  Biso   1.000  C
  C287     1.0000 0.22590  0.40870  0.68680  Biso   1.000  C
  C288     1.0000 0.24780  0.39210  0.70980  Biso   1.000  C
  C289     1.0000 0.96520  0.03850  0.68290  Biso   1.000  C
  C290     1.0000 0.85930  0.99370  0.62480  Biso   1.000  C
  C291     1.0000 0.87520  0.00900  0.65490  Biso   1.000  C
  C292     1.0000 0.91160  0.01860  0.65590  Biso   1.000  C
  C293     1.0000 0.92650  0.03040  0.68340  Biso   1.000  C
  C294     1.0000 0.90740  0.03180  0.71300  Biso   1.000  C
  C295     1.0000 0.87330  0.02490  0.71590  Biso   1.000  C
  C296     1.0000 0.85840  0.01150  0.68680  Biso   1.000  C
  C297     1.0000 0.66870  0.04280  0.98180  Biso   1.000  C
  C298     1.0000 0.60120  0.06250  0.87410  Biso   1.000  C
  C299     1.0000 0.66600  0.05780  0.87490  Biso   1.000  C
  C300     1.0000 0.63510  0.05850  0.89300  Biso   1.000  C
  C301     1.0000 0.63640  0.05280  0.92780  Biso   1.000  C
  C302     1.0000 0.66730  0.04820  0.94450  Biso   1.000  C
  C303     1.0000 0.69720  0.04540  0.92520  Biso   1.000  C
  C304     1.0000 0.69710  0.04990  0.89140  Biso   1.000  C
  C305     1.0000 0.72980  0.04420  0.86920  Biso   1.000  C
  C306     1.0000 0.75540  0.06830  0.87300  Biso   1.000  C
  C307     1.0000 0.75180  0.10080  0.88960  Biso   1.000  C
  C308     1.0000 0.77600  0.12170  0.87570  Biso   1.000  C
  C309     1.0000 0.79440  0.10230  0.85010  Biso   1.000  C
  C310     1.0000 0.82020  0.11540  0.82940  Biso   1.000  C
  C311     1.0000 0.83810  0.09510  0.80640  Biso   1.000  C
  C312     1.0000 0.86370  0.10940  0.78380  Biso   1.000  C
  C313     1.0000 0.87680  0.08680  0.76090  Biso   1.000  C
  C314     1.0000 0.85840  0.05580  0.76900  Biso   1.000  C
  C315     1.0000 0.83430  0.15060  0.83420  Biso   1.000  C
  C316     1.0000 0.86000  0.15590  0.85850  Biso   1.000  C
  C317     1.0000 0.86860  0.18930  0.86840  Biso   1.000  C
  C318     1.0000 0.85150  0.21720  0.85400  Biso   1.000  C
  C319     1.0000 0.82570  0.21190  0.82970  Biso   1.000  C
  C320     1.0000 0.81710  0.17850  0.81980  Biso   1.000  C
  C321     1.0000 0.85230  0.02720  0.74860  Biso   1.000  C
  C322     1.0000 0.83820  0.99630  0.76080  Biso   1.000  C
  C323     1.0000 0.84480  0.96170  0.74800  Biso   1.000  C
  C324     1.0000 0.82550  0.93810  0.76510  Biso   1.000  C
  C325     1.0000 0.80590  0.95940  0.78900  Biso   1.000  C
  C326     1.0000 0.78010  0.94610  0.81090  Biso   1.000  C
  C327     1.0000 0.75950  0.96600  0.83200  Biso   1.000  C
  C328     1.0000 0.72840  0.95360  0.84800  Biso   1.000  C
  C329     1.0000 0.71350  0.98140  0.86250  Biso   1.000  C
  C330     1.0000 0.73500  0.01090  0.85600  Biso   1.000  C
  C331     1.0000 0.74700  0.85670  0.79290  Biso   1.000  C
  C332     1.0000 0.76360  0.83810  0.81850  Biso   1.000  C
  C333     1.0000 0.78550  0.85470  0.84150  Biso   1.000  C
  C334     1.0000 0.79080  0.89000  0.83880  Biso   1.000  C
  C335     1.0000 0.77410  0.90870  0.81320  Biso   1.000  C
  C336     1.0000 0.75220  0.89210  0.79020  Biso   1.000  C
  C337     1.0000 0.46520  0.46150  0.31710  Biso   1.000  C
  C338     1.0000 0.35930  0.50630  0.37520  Biso   1.000  C
  C339     1.0000 0.37520  0.49100  0.34510  Biso   1.000  C
  C340     1.0000 0.41160  0.48140  0.34410  Biso   1.000  C
  C341     1.0000 0.42650  0.46960  0.31660  Biso   1.000  C
  C342     1.0000 0.40740  0.46820  0.28700  Biso   1.000  C
  C343     1.0000 0.37330  0.47510  0.28410  Biso   1.000  C
  C344     1.0000 0.35840  0.48850  0.31320  Biso   1.000  C
  C345     1.0000 0.16870  0.45720  0.01820  Biso   1.000  C
  C346     1.0000 0.10120  0.43750  0.12590  Biso   1.000  C
  C347     1.0000 0.16600  0.44220  0.12510  Biso   1.000  C
  C348     1.0000 0.13510  0.44150  0.10700  Biso   1.000  C
  C349     1.0000 0.13640  0.44720  0.07220  Biso   1.000  C
  C350     1.0000 0.16730  0.45180  0.05550  Biso   1.000  C
  C351     1.0000 0.19720  0.45460  0.07480  Biso   1.000  C
  C352     1.0000 0.19710  0.45010  0.10860  Biso   1.000  C
  C353     1.0000 0.22980  0.45580  0.13080  Biso   1.000  C
  C354     1.0000 0.25540  0.43170  0.12700  Biso   1.000  C
  C355     1.0000 0.25180  0.39920  0.11040  Biso   1.000  C
  C356     1.0000 0.27600  0.37830  0.12430  Biso   1.000  C
  C357     1.0000 0.29440  0.39770  0.14990  Biso   1.000  C
  C358     1.0000 0.32020  0.38460  0.17060  Biso   1.000  C
  C359     1.0000 0.33810  0.40490  0.19360  Biso   1.000  C
  C360     1.0000 0.36370  0.39060  0.21620  Biso   1.000  C
  C361     1.0000 0.37680  0.41320  0.23910  Biso   1.000  C
  C362     1.0000 0.35840  0.44420  0.23100  Biso   1.000  C
  C363     1.0000 0.33430  0.34940  0.16580  Biso   1.000  C
  C364     1.0000 0.36000  0.34410  0.14150  Biso   1.000  C
  C365     1.0000 0.36860  0.31070  0.13160  Biso   1.000  C
  C366     1.0000 0.35150  0.28280  0.14600  Biso   1.000  C
  C367     1.0000 0.32570  0.28810  0.17030  Biso   1.000  C
  C368     1.0000 0.31710  0.32150  0.18020  Biso   1.000  C
  C369     1.0000 0.35230  0.47280  0.25140  Biso   1.000  C
  C370     1.0000 0.33820  0.50370  0.23920  Biso   1.000  C
  C371     1.0000 0.34480  0.53830  0.25200  Biso   1.000  C
  C372     1.0000 0.32550  0.56190  0.23490  Biso   1.000  C
  C373     1.0000 0.30590  0.54060  0.21100  Biso   1.000  C
  C374     1.0000 0.28010  0.55390  0.18910  Biso   1.000  C
  C375     1.0000 0.25950  0.53400  0.16800  Biso   1.000  C
  C376     1.0000 0.22840  0.54640  0.15200  Biso   1.000  C
  C377     1.0000 0.21350  0.51860  0.13750  Biso   1.000  C
  C378     1.0000 0.23500  0.48910  0.14400  Biso   1.000  C
  C379     1.0000 0.24700  0.64330  0.20710  Biso   1.000  C
  C380     1.0000 0.26360  0.66190  0.18150  Biso   1.000  C
  C381     1.0000 0.28550  0.64530  0.15850  Biso   1.000  C
  C382     1.0000 0.29080  0.61000  0.16120  Biso   1.000  C
  C383     1.0000 0.27410  0.59130  0.18680  Biso   1.000  C
  C384     1.0000 0.25220  0.60790  0.20980  Biso   1.000  C
  C385     1.0000 0.18290  0.53480  0.96150  Biso   1.000  C
  C386     1.0000 0.12480  0.64070  0.00630  Biso   1.000  C
  C387     1.0000 0.15490  0.62480  0.99100  Biso   1.000  C
  C388     1.0000 0.15590  0.58840  0.98140  Biso   1.000  C
  C389     1.0000 0.18340  0.57350  0.96960  Biso   1.000  C
  C390     1.0000 0.21300  0.59260  0.96820  Biso   1.000  C
  C391     1.0000 0.21590  0.62670  0.97510  Biso   1.000  C
  C392     1.0000 0.18680  0.64160  0.98850  Biso   1.000  C
  C393     1.0000 0.48180  0.83130  0.95720  Biso   1.000  C
  C394     1.0000 0.37410  0.89880  0.93750  Biso   1.000  C
  C395     1.0000 0.37490  0.83400  0.94220  Biso   1.000  C
  C396     1.0000 0.39300  0.86490  0.94150  Biso   1.000  C
  C397     1.0000 0.42780  0.86360  0.94720  Biso   1.000  C
  C398     1.0000 0.44450  0.83270  0.95180  Biso   1.000  C
  C399     1.0000 0.42520  0.80280  0.95460  Biso   1.000  C
  C400     1.0000 0.39140  0.80290  0.95010  Biso   1.000  C
  C401     1.0000 0.36920  0.77020  0.95580  Biso   1.000  C
  C402     1.0000 0.37300  0.74460  0.93170  Biso   1.000  C
  C403     1.0000 0.38960  0.74820  0.89920  Biso   1.000  C
  C404     1.0000 0.37570  0.72400  0.87830  Biso   1.000  C
  C405     1.0000 0.35010  0.70560  0.89770  Biso   1.000  C
  C406     1.0000 0.32940  0.67980  0.88460  Biso   1.000  C
  C407     1.0000 0.30640  0.66190  0.90490  Biso   1.000  C
  C408     1.0000 0.28380  0.63630  0.89060  Biso   1.000  C
  C409     1.0000 0.26090  0.62320  0.91320  Biso   1.000  C
  C410     1.0000 0.26900  0.64160  0.94420  Biso   1.000  C
  C411     1.0000 0.33420  0.66570  0.84940  Biso   1.000  C
  C412     1.0000 0.35850  0.64000  0.84410  Biso   1.000  C
  C413     1.0000 0.36840  0.63140  0.81070  Biso   1.000  C
  C414     1.0000 0.35400  0.64850  0.78280  Biso   1.000  C
  C415     1.0000 0.32970  0.67430  0.78810  Biso   1.000  C
  C416     1.0000 0.31980  0.68290  0.82150  Biso   1.000  C
  C417     1.0000 0.24860  0.64770  0.97280  Biso   1.000  C
  C418     1.0000 0.26080  0.66180  0.00370  Biso   1.000  C
  C419     1.0000 0.24800  0.65520  0.03830  Biso   1.000  C
  C420     1.0000 0.26510  0.67450  0.06190  Biso   1.000  C
  C421     1.0000 0.28900  0.69410  0.04060  Biso   1.000  C
  C422     1.0000 0.31090  0.71990  0.05390  Biso   1.000  C
  C423     1.0000 0.33200  0.74050  0.03400  Biso   1.000  C
  C424     1.0000 0.34800  0.77160  0.04640  Biso   1.000  C
  C425     1.0000 0.36250  0.78650  0.01860  Biso   1.000  C
  C426     1.0000 0.35600  0.76500  0.98910  Biso   1.000  C
  C427     1.0000 0.29290  0.75300  0.14330  Biso   1.000  C
  C428     1.0000 0.31850  0.73640  0.16190  Biso   1.000  C
  C429     1.0000 0.34150  0.71450  0.14530  Biso   1.000  C
  C430     1.0000 0.33880  0.70920  0.11000  Biso   1.000  C
  C431     1.0000 0.31320  0.72590  0.09130  Biso   1.000  C
  C432     1.0000 0.29020  0.74780  0.10790  Biso   1.000  C
  C433     1.0000 0.81710  0.03480  0.53850  Biso   1.000  C
  C434     1.0000 0.87520  0.14070  0.49370  Biso   1.000  C
  C435     1.0000 0.84510  0.12480  0.50900  Biso   1.000  C
  C436     1.0000 0.84410  0.08840  0.51860  Biso   1.000  C
  C437     1.0000 0.81660  0.07350  0.53040  Biso   1.000  C
  C438     1.0000 0.78700  0.09260  0.53180  Biso   1.000  C
  C439     1.0000 0.78410  0.12670  0.52490  Biso   1.000  C
  C440     1.0000 0.81320  0.14160  0.51150  Biso   1.000  C
  C441     1.0000 0.51820  0.33130  0.54280  Biso   1.000  C
  C442     1.0000 0.62590  0.39880  0.56250  Biso   1.000  C
  C443     1.0000 0.62510  0.33400  0.55780  Biso   1.000  C
  C444     1.0000 0.60700  0.36490  0.55850  Biso   1.000  C
  C445     1.0000 0.57220  0.36360  0.55280  Biso   1.000  C
  C446     1.0000 0.55550  0.33270  0.54820  Biso   1.000  C
  C447     1.0000 0.57480  0.30280  0.54540  Biso   1.000  C
  C448     1.0000 0.60860  0.30290  0.54990  Biso   1.000  C
  C449     1.0000 0.63080  0.27020  0.54420  Biso   1.000  C
  C450     1.0000 0.62700  0.24460  0.56830  Biso   1.000  C
  C451     1.0000 0.61040  0.24820  0.60080  Biso   1.000  C
  C452     1.0000 0.62430  0.22400  0.62170  Biso   1.000  C
  C453     1.0000 0.64990  0.20560  0.60230  Biso   1.000  C
  C454     1.0000 0.67060  0.17980  0.61540  Biso   1.000  C
  C455     1.0000 0.69360  0.16190  0.59510  Biso   1.000  C
  C456     1.0000 0.71620  0.13630  0.60940  Biso   1.000  C
  C457     1.0000 0.73910  0.12320  0.58680  Biso   1.000  C
  C458     1.0000 0.73100  0.14160  0.55580  Biso   1.000  C
  C459     1.0000 0.66580  0.16570  0.65060  Biso   1.000  C
  C460     1.0000 0.64150  0.14000  0.65590  Biso   1.000  C
  C461     1.0000 0.63160  0.13140  0.68930  Biso   1.000  C
  C462     1.0000 0.64600  0.14850  0.71720  Biso   1.000  C
  C463     1.0000 0.67030  0.17430  0.71190  Biso   1.000  C
  C464     1.0000 0.68020  0.18290  0.67850  Biso   1.000  C
  C465     1.0000 0.75140  0.14770  0.52720  Biso   1.000  C
  C466     1.0000 0.73920  0.16180  0.49630  Biso   1.000  C
  C467     1.0000 0.75200  0.15520  0.46170  Biso   1.000  C
  C468     1.0000 0.73490  0.17450  0.43810  Biso   1.000  C
  C469     1.0000 0.71100  0.19410  0.45940  Biso   1.000  C
  C470     1.0000 0.68910  0.21990  0.44610  Biso   1.000  C
  C471     1.0000 0.66800  0.24050  0.46600  Biso   1.000  C
  C472     1.0000 0.65200  0.27160  0.45360  Biso   1.000  C
  C473     1.0000 0.63750  0.28650  0.48140  Biso   1.000  C
  C474     1.0000 0.64400  0.26500  0.51090  Biso   1.000  C
  C475     1.0000 0.70710  0.25300  0.35670  Biso   1.000  C
  C476     1.0000 0.68150  0.23640  0.33810  Biso   1.000  C
  C477     1.0000 0.65850  0.21450  0.35470  Biso   1.000  C
  C478     1.0000 0.66120  0.20920  0.39000  Biso   1.000  C
  C479     1.0000 0.68680  0.22590  0.40870  Biso   1.000  C
  C480     1.0000 0.70980  0.24780  0.39210  Biso   1.000  C
  C481     1.0000 0.68290  0.96520  0.03850  Biso   1.000  C
  C482     1.0000 0.62480  0.85930  0.99370  Biso   1.000  C
  C483     1.0000 0.65490  0.87520  0.00900  Biso   1.000  C
  C484     1.0000 0.65590  0.91160  0.01860  Biso   1.000  C
  C485     1.0000 0.68340  0.92650  0.03040  Biso   1.000  C
  C486     1.0000 0.71300  0.90740  0.03180  Biso   1.000  C
  C487     1.0000 0.71590  0.87330  0.02490  Biso   1.000  C
  C488     1.0000 0.68680  0.85840  0.01150  Biso   1.000  C
  C489     1.0000 0.98180  0.66870  0.04280  Biso   1.000  C
  C490     1.0000 0.87410  0.60120  0.06250  Biso   1.000  C
  C491     1.0000 0.87490  0.66600  0.05780  Biso   1.000  C
  C492     1.0000 0.89300  0.63510  0.05850  Biso   1.000  C
  C493     1.0000 0.92780  0.63640  0.05280  Biso   1.000  C
  C494     1.0000 0.94450  0.66730  0.04820  Biso   1.000  C
  C495     1.0000 0.92520  0.69720  0.04540  Biso   1.000  C
  C496     1.0000 0.89140  0.69710  0.04990  Biso   1.000  C
  C497     1.0000 0.86920  0.72980  0.04420  Biso   1.000  C
  C498     1.0000 0.87300  0.75540  0.06830  Biso   1.000  C
  C499     1.0000 0.88960  0.75180  0.10080  Biso   1.000  C
  C500     1.0000 0.87570  0.77600  0.12170  Biso   1.000  C
  C501     1.0000 0.85010  0.79440  0.10230  Biso   1.000  C
  C502     1.0000 0.82940  0.82020  0.11540  Biso   1.000  C
  C503     1.0000 0.80640  0.83810  0.09510  Biso   1.000  C
  C504     1.0000 0.78380  0.86370  0.10940  Biso   1.000  C
  C505     1.0000 0.76090  0.87680  0.08680  Biso   1.000  C
  C506     1.0000 0.76900  0.85840  0.05580  Biso   1.000  C
  C507     1.0000 0.83420  0.83430  0.15060  Biso   1.000  C
  C508     1.0000 0.85850  0.86000  0.15590  Biso   1.000  C
  C509     1.0000 0.86840  0.86860  0.18930  Biso   1.000  C
  C510     1.0000 0.85400  0.85150  0.21720  Biso   1.000  C
  C511     1.0000 0.82970  0.82570  0.21190  Biso   1.000  C
  C512     1.0000 0.81980  0.81710  0.17850  Biso   1.000  C
  C513     1.0000 0.74860  0.85230  0.02720  Biso   1.000  C
  C514     1.0000 0.76080  0.83820  0.99630  Biso   1.000  C
  C515     1.0000 0.74800  0.84480  0.96170  Biso   1.000  C
  C516     1.0000 0.76510  0.82550  0.93810  Biso   1.000  C
  C517     1.0000 0.78900  0.80590  0.95940  Biso   1.000  C
  C518     1.0000 0.81090  0.78010  0.94610  Biso   1.000  C
  C519     1.0000 0.83200  0.75950  0.96600  Biso   1.000  C
  C520     1.0000 0.84800  0.72840  0.95360  Biso   1.000  C
  C521     1.0000 0.86250  0.71350  0.98140  Biso   1.000  C
  C522     1.0000 0.85600  0.73500  0.01090  Biso   1.000  C
  C523     1.0000 0.79290  0.74700  0.85670  Biso   1.000  C
  C524     1.0000 0.81850  0.76360  0.83810  Biso   1.000  C
  C525     1.0000 0.84150  0.78550  0.85470  Biso   1.000  C
  C526     1.0000 0.83880  0.79080  0.89000  Biso   1.000  C
  C527     1.0000 0.81320  0.77410  0.90870  Biso   1.000  C
  C528     1.0000 0.79020  0.75220  0.89210  Biso   1.000  C
  C529     1.0000 0.31710  0.46520  0.46150  Biso   1.000  C
  C530     1.0000 0.37520  0.35930  0.50630  Biso   1.000  C
  C531     1.0000 0.34510  0.37520  0.49100  Biso   1.000  C
  C532     1.0000 0.34410  0.41160  0.48140  Biso   1.000  C
  C533     1.0000 0.31660  0.42650  0.46960  Biso   1.000  C
  C534     1.0000 0.28700  0.40740  0.46820  Biso   1.000  C
  C535     1.0000 0.28410  0.37330  0.47510  Biso   1.000  C
  C536     1.0000 0.31320  0.35840  0.48850  Biso   1.000  C
  C537     1.0000 0.01820  0.16870  0.45720  Biso   1.000  C
  C538     1.0000 0.12590  0.10120  0.43750  Biso   1.000  C
  C539     1.0000 0.12510  0.16600  0.44220  Biso   1.000  C
  C540     1.0000 0.10700  0.13510  0.44150  Biso   1.000  C
  C541     1.0000 0.07220  0.13640  0.44720  Biso   1.000  C
  C542     1.0000 0.05550  0.16730  0.45180  Biso   1.000  C
  C543     1.0000 0.07480  0.19720  0.45460  Biso   1.000  C
  C544     1.0000 0.10860  0.19710  0.45010  Biso   1.000  C
  C545     1.0000 0.13080  0.22980  0.45580  Biso   1.000  C
  C546     1.0000 0.12700  0.25540  0.43170  Biso   1.000  C
  C547     1.0000 0.11040  0.25180  0.39920  Biso   1.000  C
  C548     1.0000 0.12430  0.27600  0.37830  Biso   1.000  C
  C549     1.0000 0.14990  0.29440  0.39770  Biso   1.000  C
  C550     1.0000 0.17060  0.32020  0.38460  Biso   1.000  C
  C551     1.0000 0.19360  0.33810  0.40490  Biso   1.000  C
  C552     1.0000 0.21620  0.36370  0.39060  Biso   1.000  C
  C553     1.0000 0.23910  0.37680  0.41320  Biso   1.000  C
  C554     1.0000 0.23100  0.35840  0.44420  Biso   1.000  C
  C555     1.0000 0.16580  0.33430  0.34940  Biso   1.000  C
  C556     1.0000 0.14150  0.36000  0.34410  Biso   1.000  C
  C557     1.0000 0.13160  0.36860  0.31070  Biso   1.000  C
  C558     1.0000 0.14600  0.35150  0.28280  Biso   1.000  C
  C559     1.0000 0.17030  0.32570  0.28810  Biso   1.000  C
  C560     1.0000 0.18020  0.31710  0.32150  Biso   1.000  C
  C561     1.0000 0.25140  0.35230  0.47280  Biso   1.000  C
  C562     1.0000 0.23920  0.33820  0.50370  Biso   1.000  C
  C563     1.0000 0.25200  0.34480  0.53830  Biso   1.000  C
  C564     1.0000 0.23490  0.32550  0.56190  Biso   1.000  C
  C565     1.0000 0.21100  0.30590  0.54060  Biso   1.000  C
  C566     1.0000 0.18910  0.28010  0.55390  Biso   1.000  C
  C567     1.0000 0.16800  0.25950  0.53400  Biso   1.000  C
  C568     1.0000 0.15200  0.22840  0.54640  Biso   1.000  C
  C569     1.0000 0.13750  0.21350  0.51860  Biso   1.000  C
  C570     1.0000 0.14400  0.23500  0.48910  Biso   1.000  C
  C571     1.0000 0.20710  0.24700  0.64330  Biso   1.000  C
  C572     1.0000 0.18150  0.26360  0.66190  Biso   1.000  C
  C573     1.0000 0.15850  0.28550  0.64530  Biso   1.000  C
  C574     1.0000 0.16120  0.29080  0.61000  Biso   1.000  C
  C575     1.0000 0.18680  0.27410  0.59130  Biso   1.000  C
  C576     1.0000 0.20980  0.25220  0.60790  Biso   1.000  C
  C577     1.0000 0.03850  0.81710  0.46520  Biso   1.000  C
  C578     1.0000 0.99370  0.87520  0.35930  Biso   1.000  C
  C579     1.0000 0.00900  0.84510  0.37520  Biso   1.000  C
  C580     1.0000 0.01860  0.84410  0.41160  Biso   1.000  C
  C581     1.0000 0.03040  0.81660  0.42650  Biso   1.000  C
  C582     1.0000 0.03180  0.78700  0.40740  Biso   1.000  C
  C583     1.0000 0.02490  0.78410  0.37330  Biso   1.000  C
  C584     1.0000 0.01150  0.81320  0.35840  Biso   1.000  C
  C585     1.0000 0.04280  0.51820  0.16870  Biso   1.000  C
  C586     1.0000 0.06250  0.62590  0.10120  Biso   1.000  C
  C587     1.0000 0.05780  0.62510  0.16600  Biso   1.000  C
  C588     1.0000 0.05850  0.60700  0.13510  Biso   1.000  C
  C589     1.0000 0.05280  0.57220  0.13640  Biso   1.000  C
  C590     1.0000 0.04820  0.55550  0.16730  Biso   1.000  C
  C591     1.0000 0.04540  0.57480  0.19720  Biso   1.000  C
  C592     1.0000 0.04990  0.60860  0.19710  Biso   1.000  C
  C593     1.0000 0.04420  0.63080  0.22980  Biso   1.000  C
  C594     1.0000 0.06830  0.62700  0.25540  Biso   1.000  C
  C595     1.0000 0.10080  0.61040  0.25180  Biso   1.000  C
  C596     1.0000 0.12170  0.62430  0.27600  Biso   1.000  C
  C597     1.0000 0.10230  0.64990  0.29440  Biso   1.000  C
  C598     1.0000 0.11540  0.67060  0.32020  Biso   1.000  C
  C599     1.0000 0.09510  0.69360  0.33810  Biso   1.000  C
  C600     1.0000 0.10940  0.71620  0.36370  Biso   1.000  C
  C601     1.0000 0.08680  0.73910  0.37680  Biso   1.000  C
  C602     1.0000 0.05580  0.73100  0.35840  Biso   1.000  C
  C603     1.0000 0.15060  0.66580  0.33430  Biso   1.000  C
  C604     1.0000 0.15590  0.64150  0.36000  Biso   1.000  C
  C605     1.0000 0.18930  0.63160  0.36860  Biso   1.000  C
  C606     1.0000 0.21720  0.64600  0.35150  Biso   1.000  C
  C607     1.0000 0.21190  0.67030  0.32570  Biso   1.000  C
  C608     1.0000 0.17850  0.68020  0.31710  Biso   1.000  C
  C609     1.0000 0.02720  0.75140  0.35230  Biso   1.000  C
  C610     1.0000 0.99630  0.73920  0.33820  Biso   1.000  C
  C611     1.0000 0.96170  0.75200  0.34480  Biso   1.000  C
  C612     1.0000 0.93810  0.73490  0.32550  Biso   1.000  C
  C613     1.0000 0.95940  0.71100  0.30590  Biso   1.000  C
  C614     1.0000 0.94610  0.68910  0.28010  Biso   1.000  C
  C615     1.0000 0.96600  0.66800  0.25950  Biso   1.000  C
  C616     1.0000 0.95360  0.65200  0.22840  Biso   1.000  C
  C617     1.0000 0.98140  0.63750  0.21350  Biso   1.000  C
  C618     1.0000 0.01090  0.64400  0.23500  Biso   1.000  C
  C619     1.0000 0.85670  0.70710  0.24700  Biso   1.000  C
  C620     1.0000 0.83810  0.68150  0.26360  Biso   1.000  C
  C621     1.0000 0.85470  0.65850  0.28550  Biso   1.000  C
  C622     1.0000 0.89000  0.66120  0.29080  Biso   1.000  C
  C623     1.0000 0.90870  0.68680  0.27410  Biso   1.000  C
  C624     1.0000 0.89210  0.70980  0.25220  Biso   1.000  C
  C625     1.0000 0.46150  0.18290  0.96520  Biso   1.000  C
  C626     1.0000 0.50630  0.12480  0.85930  Biso   1.000  C
  C627     1.0000 0.49100  0.15490  0.87520  Biso   1.000  C
  C628     1.0000 0.48140  0.15590  0.91160  Biso   1.000  C
  C629     1.0000 0.46960  0.18340  0.92650  Biso   1.000  C
  C630     1.0000 0.46820  0.21300  0.90740  Biso   1.000  C
  C631     1.0000 0.47510  0.21590  0.87330  Biso   1.000  C
  C632     1.0000 0.48850  0.18680  0.85840  Biso   1.000  C
  C633     1.0000 0.45720  0.48180  0.66870  Biso   1.000  C
  C634     1.0000 0.43750  0.37410  0.60120  Biso   1.000  C
  C635     1.0000 0.44220  0.37490  0.66600  Biso   1.000  C
  C636     1.0000 0.44150  0.39300  0.63510  Biso   1.000  C
  C637     1.0000 0.44720  0.42780  0.63640  Biso   1.000  C
  C638     1.0000 0.45180  0.44450  0.66730  Biso   1.000  C
  C639     1.0000 0.45460  0.42520  0.69720  Biso   1.000  C
  C640     1.0000 0.45010  0.39140  0.69710  Biso   1.000  C
  C641     1.0000 0.45580  0.36920  0.72980  Biso   1.000  C
  C642     1.0000 0.43170  0.37300  0.75540  Biso   1.000  C
  C643     1.0000 0.39920  0.38960  0.75180  Biso   1.000  C
  C644     1.0000 0.37830  0.37570  0.77600  Biso   1.000  C
  C645     1.0000 0.39770  0.35010  0.79440  Biso   1.000  C
  C646     1.0000 0.38460  0.32940  0.82020  Biso   1.000  C
  C647     1.0000 0.40490  0.30640  0.83810  Biso   1.000  C
  C648     1.0000 0.39060  0.28380  0.86370  Biso   1.000  C
  C649     1.0000 0.41320  0.26090  0.87680  Biso   1.000  C
  C650     1.0000 0.44420  0.26900  0.85840  Biso   1.000  C
  C651     1.0000 0.34940  0.33420  0.83430  Biso   1.000  C
  C652     1.0000 0.34410  0.35850  0.86000  Biso   1.000  C
  C653     1.0000 0.31070  0.36840  0.86860  Biso   1.000  C
  C654     1.0000 0.28280  0.35400  0.85150  Biso   1.000  C
  C655     1.0000 0.28810  0.32970  0.82570  Biso   1.000  C
  C656     1.0000 0.32150  0.31980  0.81710  Biso   1.000  C
  C657     1.0000 0.47280  0.24860  0.85230  Biso   1.000  C
  C658     1.0000 0.50370  0.26080  0.83820  Biso   1.000  C
  C659     1.0000 0.53830  0.24800  0.84480  Biso   1.000  C
  C660     1.0000 0.56190  0.26510  0.82550  Biso   1.000  C
  C661     1.0000 0.54060  0.28900  0.80590  Biso   1.000  C
  C662     1.0000 0.55390  0.31090  0.78010  Biso   1.000  C
  C663     1.0000 0.53400  0.33200  0.75950  Biso   1.000  C
  C664     1.0000 0.54640  0.34800  0.72840  Biso   1.000  C
  C665     1.0000 0.51860  0.36250  0.71350  Biso   1.000  C
  C666     1.0000 0.48910  0.35600  0.73500  Biso   1.000  C
  C667     1.0000 0.64330  0.29290  0.74700  Biso   1.000  C
  C668     1.0000 0.66190  0.31850  0.76360  Biso   1.000  C
  C669     1.0000 0.64530  0.34150  0.78550  Biso   1.000  C
  C670     1.0000 0.61000  0.33880  0.79080  Biso   1.000  C
  C671     1.0000 0.59130  0.31320  0.77410  Biso   1.000  C
  C672     1.0000 0.60790  0.29020  0.75220  Biso   1.000  C
  C673     1.0000 0.96150  0.31710  0.03480  Biso   1.000  C
  C674     1.0000 0.00630  0.37520  0.14070  Biso   1.000  C
  C675     1.0000 0.99100  0.34510  0.12480  Biso   1.000  C
  C676     1.0000 0.98140  0.34410  0.08840  Biso   1.000  C
  C677     1.0000 0.96960  0.31660  0.07350  Biso   1.000  C
  C678     1.0000 0.96820  0.28700  0.09260  Biso   1.000  C
  C679     1.0000 0.97510  0.28410  0.12670  Biso   1.000  C
  C680     1.0000 0.98850  0.31320  0.14160  Biso   1.000  C
  C681     1.0000 0.95720  0.01820  0.33130  Biso   1.000  C
  C682     1.0000 0.93750  0.12590  0.39880  Biso   1.000  C
  C683     1.0000 0.94220  0.12510  0.33400  Biso   1.000  C
  C684     1.0000 0.94150  0.10700  0.36490  Biso   1.000  C
  C685     1.0000 0.94720  0.07220  0.36360  Biso   1.000  C
  C686     1.0000 0.95180  0.05550  0.33270  Biso   1.000  C
  C687     1.0000 0.95460  0.07480  0.30280  Biso   1.000  C
  C688     1.0000 0.95010  0.10860  0.30290  Biso   1.000  C
  C689     1.0000 0.95580  0.13080  0.27020  Biso   1.000  C
  C690     1.0000 0.93170  0.12700  0.24460  Biso   1.000  C
  C691     1.0000 0.89920  0.11040  0.24820  Biso   1.000  C
  C692     1.0000 0.87830  0.12430  0.22400  Biso   1.000  C
  C693     1.0000 0.89770  0.14990  0.20560  Biso   1.000  C
  C694     1.0000 0.88460  0.17060  0.17980  Biso   1.000  C
  C695     1.0000 0.90490  0.19360  0.16190  Biso   1.000  C
  C696     1.0000 0.89060  0.21620  0.13630  Biso   1.000  C
  C697     1.0000 0.91320  0.23910  0.12320  Biso   1.000  C
  C698     1.0000 0.94420  0.23100  0.14160  Biso   1.000  C
  C699     1.0000 0.84940  0.16580  0.16570  Biso   1.000  C
  C700     1.0000 0.84410  0.14150  0.14000  Biso   1.000  C
  C701     1.0000 0.81070  0.13160  0.13140  Biso   1.000  C
  C702     1.0000 0.78280  0.14600  0.14850  Biso   1.000  C
  C703     1.0000 0.78810  0.17030  0.17430  Biso   1.000  C
  C704     1.0000 0.82150  0.18020  0.18290  Biso   1.000  C
  C705     1.0000 0.97280  0.25140  0.14770  Biso   1.000  C
  C706     1.0000 0.00370  0.23920  0.16180  Biso   1.000  C
  C707     1.0000 0.03830  0.25200  0.15520  Biso   1.000  C
  C708     1.0000 0.06190  0.23490  0.17450  Biso   1.000  C
  C709     1.0000 0.04060  0.21100  0.19410  Biso   1.000  C
  C710     1.0000 0.05390  0.18910  0.21990  Biso   1.000  C
  C711     1.0000 0.03400  0.16800  0.24050  Biso   1.000  C
  C712     1.0000 0.04640  0.15200  0.27160  Biso   1.000  C
  C713     1.0000 0.01860  0.13750  0.28650  Biso   1.000  C
  C714     1.0000 0.98910  0.14400  0.26500  Biso   1.000  C
  C715     1.0000 0.14330  0.20710  0.25300  Biso   1.000  C
  C716     1.0000 0.16190  0.18150  0.23640  Biso   1.000  C
  C717     1.0000 0.14530  0.15850  0.21450  Biso   1.000  C
  C718     1.0000 0.11000  0.16120  0.20920  Biso   1.000  C
  C719     1.0000 0.09130  0.18680  0.22590  Biso   1.000  C
  C720     1.0000 0.10790  0.20980  0.24780  Biso   1.000  C
  C721     1.0000 0.53850  0.68290  0.53480  Biso   1.000  C
  C722     1.0000 0.49370  0.62480  0.64070  Biso   1.000  C
  C723     1.0000 0.50900  0.65490  0.62480  Biso   1.000  C
  C724     1.0000 0.51860  0.65590  0.58840  Biso   1.000  C
  C725     1.0000 0.53040  0.68340  0.57350  Biso   1.000  C
  C726     1.0000 0.53180  0.71300  0.59260  Biso   1.000  C
  C727     1.0000 0.52490  0.71590  0.62670  Biso   1.000  C
  C728     1.0000 0.51150  0.68680  0.64160  Biso   1.000  C
  C729     1.0000 0.54280  0.98180  0.83130  Biso   1.000  C
  C730     1.0000 0.56250  0.87410  0.89880  Biso   1.000  C
  C731     1.0000 0.55780  0.87490  0.83400  Biso   1.000  C
  C732     1.0000 0.55850  0.89300  0.86490  Biso   1.000  C
  C733     1.0000 0.55280  0.92780  0.86360  Biso   1.000  C
  C734     1.0000 0.54820  0.94450  0.83270  Biso   1.000  C
  C735     1.0000 0.54540  0.92520  0.80280  Biso   1.000  C
  C736     1.0000 0.54990  0.89140  0.80290  Biso   1.000  C
  C737     1.0000 0.54420  0.86920  0.77020  Biso   1.000  C
  C738     1.0000 0.56830  0.87300  0.74460  Biso   1.000  C
  C739     1.0000 0.60080  0.88960  0.74820  Biso   1.000  C
  C740     1.0000 0.62170  0.87570  0.72400  Biso   1.000  C
  C741     1.0000 0.60230  0.85010  0.70560  Biso   1.000  C
  C742     1.0000 0.61540  0.82940  0.67980  Biso   1.000  C
  C743     1.0000 0.59510  0.80640  0.66190  Biso   1.000  C
  C744     1.0000 0.60940  0.78380  0.63630  Biso   1.000  C
  C745     1.0000 0.58680  0.76090  0.62320  Biso   1.000  C
  C746     1.0000 0.55580  0.76900  0.64160  Biso   1.000  C
  C747     1.0000 0.65060  0.83420  0.66570  Biso   1.000  C
  C748     1.0000 0.65590  0.85850  0.64000  Biso   1.000  C
  C749     1.0000 0.68930  0.86840  0.63140  Biso   1.000  C
  C750     1.0000 0.71720  0.85400  0.64850  Biso   1.000  C
  C751     1.0000 0.71190  0.82970  0.67430  Biso   1.000  C
  C752     1.0000 0.67850  0.81980  0.68290  Biso   1.000  C
  C753     1.0000 0.52720  0.74860  0.64770  Biso   1.000  C
  C754     1.0000 0.49630  0.76080  0.66180  Biso   1.000  C
  C755     1.0000 0.46170  0.74800  0.65520  Biso   1.000  C
  C756     1.0000 0.43810  0.76510  0.67450  Biso   1.000  C
  C757     1.0000 0.45940  0.78900  0.69410  Biso   1.000  C
  C758     1.0000 0.44610  0.81090  0.71990  Biso   1.000  C
  C759     1.0000 0.46600  0.83200  0.74050  Biso   1.000  C
  C760     1.0000 0.45360  0.84800  0.77160  Biso   1.000  C
  C761     1.0000 0.48140  0.86250  0.78650  Biso   1.000  C
  C762     1.0000 0.51090  0.85600  0.76500  Biso   1.000  C
  C763     1.0000 0.35670  0.79290  0.75300  Biso   1.000  C
  C764     1.0000 0.33810  0.81850  0.73640  Biso   1.000  C
  C765     1.0000 0.35470  0.84150  0.71450  Biso   1.000  C
  C766     1.0000 0.39000  0.83880  0.70920  Biso   1.000  C
  C767     1.0000 0.40870  0.81320  0.72590  Biso   1.000  C
  C768     1.0000 0.39210  0.79020  0.74780  Biso   1.000  C
  C769     1.0000 0.46520  0.03850  0.81710  Biso   1.000  C
  C770     1.0000 0.35930  0.99370  0.87520  Biso   1.000  C
  C771     1.0000 0.37520  0.00900  0.84510  Biso   1.000  C
  C772     1.0000 0.41160  0.01860  0.84410  Biso   1.000  C
  C773     1.0000 0.42650  0.03040  0.81660  Biso   1.000  C
  C774     1.0000 0.40740  0.03180  0.78700  Biso   1.000  C
  C775     1.0000 0.37330  0.02490  0.78410  Biso   1.000  C
  C776     1.0000 0.35840  0.01150  0.81320  Biso   1.000  C
  C777     1.0000 0.16870  0.04280  0.51820  Biso   1.000  C
  C778     1.0000 0.10120  0.06250  0.62590  Biso   1.000  C
  C779     1.0000 0.16600  0.05780  0.62510  Biso   1.000  C
  C780     1.0000 0.13510  0.05850  0.60700  Biso   1.000  C
  C781     1.0000 0.13640  0.05280  0.57220  Biso   1.000  C
  C782     1.0000 0.16730  0.04820  0.55550  Biso   1.000  C
  C783     1.0000 0.19720  0.04540  0.57480  Biso   1.000  C
  C784     1.0000 0.19710  0.04990  0.60860  Biso   1.000  C
  C785     1.0000 0.22980  0.04420  0.63080  Biso   1.000  C
  C786     1.0000 0.25540  0.06830  0.62700  Biso   1.000  C
  C787     1.0000 0.25180  0.10080  0.61040  Biso   1.000  C
  C788     1.0000 0.27600  0.12170  0.62430  Biso   1.000  C
  C789     1.0000 0.29440  0.10230  0.64990  Biso   1.000  C
  C790     1.0000 0.32020  0.11540  0.67060  Biso   1.000  C
  C791     1.0000 0.33810  0.09510  0.69360  Biso   1.000  C
  C792     1.0000 0.36370  0.10940  0.71620  Biso   1.000  C
  C793     1.0000 0.37680  0.08680  0.73910  Biso   1.000  C
  C794     1.0000 0.35840  0.05580  0.73100  Biso   1.000  C
  C795     1.0000 0.33430  0.15060  0.66580  Biso   1.000  C
  C796     1.0000 0.36000  0.15590  0.64150  Biso   1.000  C
  C797     1.0000 0.36860  0.18930  0.63160  Biso   1.000  C
  C798     1.0000 0.35150  0.21720  0.64600  Biso   1.000  C
  C799     1.0000 0.32570  0.21190  0.67030  Biso   1.000  C
  C800     1.0000 0.31710  0.17850  0.68020  Biso   1.000  C
  C801     1.0000 0.35230  0.02720  0.75140  Biso   1.000  C
  C802     1.0000 0.33820  0.99630  0.73920  Biso   1.000  C
  C803     1.0000 0.34480  0.96170  0.75200  Biso   1.000  C
  C804     1.0000 0.32550  0.93810  0.73490  Biso   1.000  C
  C805     1.0000 0.30590  0.95940  0.71100  Biso   1.000  C
  C806     1.0000 0.28010  0.94610  0.68910  Biso   1.000  C
  C807     1.0000 0.25950  0.96600  0.66800  Biso   1.000  C
  C808     1.0000 0.22840  0.95360  0.65200  Biso   1.000  C
  C809     1.0000 0.21350  0.98140  0.63750  Biso   1.000  C
  C810     1.0000 0.23500  0.01090  0.64400  Biso   1.000  C
  C811     1.0000 0.24700  0.85670  0.70710  Biso   1.000  C
  C812     1.0000 0.26360  0.83810  0.68150  Biso   1.000  C
  C813     1.0000 0.28550  0.85470  0.65850  Biso   1.000  C
  C814     1.0000 0.29080  0.89000  0.66120  Biso   1.000  C
  C815     1.0000 0.27410  0.90870  0.68680  Biso   1.000  C
  C816     1.0000 0.25220  0.89210  0.70980  Biso   1.000  C
  C817     1.0000 0.96520  0.46150  0.18290  Biso   1.000  C
  C818     1.0000 0.85930  0.50630  0.12480  Biso   1.000  C
  C819     1.0000 0.87520  0.49100  0.15490  Biso   1.000  C
  C820     1.0000 0.91160  0.48140  0.15590  Biso   1.000  C
  C821     1.0000 0.92650  0.46960  0.18340  Biso   1.000  C
  C822     1.0000 0.90740  0.46820  0.21300  Biso   1.000  C
  C823     1.0000 0.87330  0.47510  0.21590  Biso   1.000  C
  C824     1.0000 0.85840  0.48850  0.18680  Biso   1.000  C
  C825     1.0000 0.66870  0.45720  0.48180  Biso   1.000  C
  C826     1.0000 0.60120  0.43750  0.37410  Biso   1.000  C
  C827     1.0000 0.66600  0.44220  0.37490  Biso   1.000  C
  C828     1.0000 0.63510  0.44150  0.39300  Biso   1.000  C
  C829     1.0000 0.63640  0.44720  0.42780  Biso   1.000  C
  C830     1.0000 0.66730  0.45180  0.44450  Biso   1.000  C
  C831     1.0000 0.69720  0.45460  0.42520  Biso   1.000  C
  C832     1.0000 0.69710  0.45010  0.39140  Biso   1.000  C
  C833     1.0000 0.72980  0.45580  0.36920  Biso   1.000  C
  C834     1.0000 0.75540  0.43170  0.37300  Biso   1.000  C
  C835     1.0000 0.75180  0.39920  0.38960  Biso   1.000  C
  C836     1.0000 0.77600  0.37830  0.37570  Biso   1.000  C
  C837     1.0000 0.79440  0.39770  0.35010  Biso   1.000  C
  C838     1.0000 0.82020  0.38460  0.32940  Biso   1.000  C
  C839     1.0000 0.83810  0.40490  0.30640  Biso   1.000  C
  C840     1.0000 0.86370  0.39060  0.28380  Biso   1.000  C
  C841     1.0000 0.87680  0.41320  0.26090  Biso   1.000  C
  C842     1.0000 0.85840  0.44420  0.26900  Biso   1.000  C
  C843     1.0000 0.83430  0.34940  0.33420  Biso   1.000  C
  C844     1.0000 0.86000  0.34410  0.35850  Biso   1.000  C
  C845     1.0000 0.86860  0.31070  0.36840  Biso   1.000  C
  C846     1.0000 0.85150  0.28280  0.35400  Biso   1.000  C
  C847     1.0000 0.82570  0.28810  0.32970  Biso   1.000  C
  C848     1.0000 0.81710  0.32150  0.31980  Biso   1.000  C
  C849     1.0000 0.85230  0.47280  0.24860  Biso   1.000  C
  C850     1.0000 0.83820  0.50370  0.26080  Biso   1.000  C
  C851     1.0000 0.84480  0.53830  0.24800  Biso   1.000  C
  C852     1.0000 0.82550  0.56190  0.26510  Biso   1.000  C
  C853     1.0000 0.80590  0.54060  0.28900  Biso   1.000  C
  C854     1.0000 0.78010  0.55390  0.31090  Biso   1.000  C
  C855     1.0000 0.75950  0.53400  0.33200  Biso   1.000  C
  C856     1.0000 0.72840  0.54640  0.34800  Biso   1.000  C
  C857     1.0000 0.71350  0.51860  0.36250  Biso   1.000  C
  C858     1.0000 0.73500  0.48910  0.35600  Biso   1.000  C
  C859     1.0000 0.74700  0.64330  0.29290  Biso   1.000  C
  C860     1.0000 0.76360  0.66190  0.31850  Biso   1.000  C
  C861     1.0000 0.78550  0.64530  0.34150  Biso   1.000  C
  C862     1.0000 0.79080  0.61000  0.33880  Biso   1.000  C
  C863     1.0000 0.77410  0.59130  0.31320  Biso   1.000  C
  C864     1.0000 0.75220  0.60790  0.29020  Biso   1.000  C
  C865     1.0000 0.03480  0.96150  0.31710  Biso   1.000  C
  C866     1.0000 0.14070  0.00630  0.37520  Biso   1.000  C
  C867     1.0000 0.12480  0.99100  0.34510  Biso   1.000  C
  C868     1.0000 0.08840  0.98140  0.34410  Biso   1.000  C
  C869     1.0000 0.07350  0.96960  0.31660  Biso   1.000  C
  C870     1.0000 0.09260  0.96820  0.28700  Biso   1.000  C
  C871     1.0000 0.12670  0.97510  0.28410  Biso   1.000  C
  C872     1.0000 0.14160  0.98850  0.31320  Biso   1.000  C
  C873     1.0000 0.33130  0.95720  0.01820  Biso   1.000  C
  C874     1.0000 0.39880  0.93750  0.12590  Biso   1.000  C
  C875     1.0000 0.33400  0.94220  0.12510  Biso   1.000  C
  C876     1.0000 0.36490  0.94150  0.10700  Biso   1.000  C
  C877     1.0000 0.36360  0.94720  0.07220  Biso   1.000  C
  C878     1.0000 0.33270  0.95180  0.05550  Biso   1.000  C
  C879     1.0000 0.30280  0.95460  0.07480  Biso   1.000  C
  C880     1.0000 0.30290  0.95010  0.10860  Biso   1.000  C
  C881     1.0000 0.27020  0.95580  0.13080  Biso   1.000  C
  C882     1.0000 0.24460  0.93170  0.12700  Biso   1.000  C
  C883     1.0000 0.24820  0.89920  0.11040  Biso   1.000  C
  C884     1.0000 0.22400  0.87830  0.12430  Biso   1.000  C
  C885     1.0000 0.20560  0.89770  0.14990  Biso   1.000  C
  C886     1.0000 0.17980  0.88460  0.17060  Biso   1.000  C
  C887     1.0000 0.16190  0.90490  0.19360  Biso   1.000  C
  C888     1.0000 0.13630  0.89060  0.21620  Biso   1.000  C
  C889     1.0000 0.12320  0.91320  0.23910  Biso   1.000  C
  C890     1.0000 0.14160  0.94420  0.23100  Biso   1.000  C
  C891     1.0000 0.16570  0.84940  0.16580  Biso   1.000  C
  C892     1.0000 0.14000  0.84410  0.14150  Biso   1.000  C
  C893     1.0000 0.13140  0.81070  0.13160  Biso   1.000  C
  C894     1.0000 0.14850  0.78280  0.14600  Biso   1.000  C
  C895     1.0000 0.17430  0.78810  0.17030  Biso   1.000  C
  C896     1.0000 0.18290  0.82150  0.18020  Biso   1.000  C
  C897     1.0000 0.14770  0.97280  0.25140  Biso   1.000  C
  C898     1.0000 0.16180  0.00370  0.23920  Biso   1.000  C
  C899     1.0000 0.15520  0.03830  0.25200  Biso   1.000  C
  C900     1.0000 0.17450  0.06190  0.23490  Biso   1.000  C
  C901     1.0000 0.19410  0.04060  0.21100  Biso   1.000  C
  C902     1.0000 0.21990  0.05390  0.18910  Biso   1.000  C
  C903     1.0000 0.24050  0.03400  0.16800  Biso   1.000  C
  C904     1.0000 0.27160  0.04640  0.15200  Biso   1.000  C
  C905     1.0000 0.28650  0.01860  0.13750  Biso   1.000  C
  C906     1.0000 0.26500  0.98910  0.14400  Biso   1.000  C
  C907     1.0000 0.25300  0.14330  0.20710  Biso   1.000  C
  C908     1.0000 0.23640  0.16190  0.18150  Biso   1.000  C
  C909     1.0000 0.21450  0.14530  0.15850  Biso   1.000  C
  C910     1.0000 0.20920  0.11000  0.16120  Biso   1.000  C
  C911     1.0000 0.22590  0.09130  0.18680  Biso   1.000  C
  C912     1.0000 0.24780  0.10790  0.20980  Biso   1.000  C
  C913     1.0000 0.53480  0.53850  0.68290  Biso   1.000  C
  C914     1.0000 0.64070  0.49370  0.62480  Biso   1.000  C
  C915     1.0000 0.62480  0.50900  0.65490  Biso   1.000  C
  C916     1.0000 0.58840  0.51860  0.65590  Biso   1.000  C
  C917     1.0000 0.57350  0.53040  0.68340  Biso   1.000  C
  C918     1.0000 0.59260  0.53180  0.71300  Biso   1.000  C
  C919     1.0000 0.62670  0.52490  0.71590  Biso   1.000  C
  C920     1.0000 0.64160  0.51150  0.68680  Biso   1.000  C
  C921     1.0000 0.83130  0.54280  0.98180  Biso   1.000  C
  C922     1.0000 0.89880  0.56250  0.87410  Biso   1.000  C
  C923     1.0000 0.83400  0.55780  0.87490  Biso   1.000  C
  C924     1.0000 0.86490  0.55850  0.89300  Biso   1.000  C
  C925     1.0000 0.86360  0.55280  0.92780  Biso   1.000  C
  C926     1.0000 0.83270  0.54820  0.94450  Biso   1.000  C
  C927     1.0000 0.80280  0.54540  0.92520  Biso   1.000  C
  C928     1.0000 0.80290  0.54990  0.89140  Biso   1.000  C
  C929     1.0000 0.77020  0.54420  0.86920  Biso   1.000  C
  C930     1.0000 0.74460  0.56830  0.87300  Biso   1.000  C
  C931     1.0000 0.74820  0.60080  0.88960  Biso   1.000  C
  C932     1.0000 0.72400  0.62170  0.87570  Biso   1.000  C
  C933     1.0000 0.70560  0.60230  0.85010  Biso   1.000  C
  C934     1.0000 0.67980  0.61540  0.82940  Biso   1.000  C
  C935     1.0000 0.66190  0.59510  0.80640  Biso   1.000  C
  C936     1.0000 0.63630  0.60940  0.78380  Biso   1.000  C
  C937     1.0000 0.62320  0.58680  0.76090  Biso   1.000  C
  C938     1.0000 0.64160  0.55580  0.76900  Biso   1.000  C
  C939     1.0000 0.66570  0.65060  0.83420  Biso   1.000  C
  C940     1.0000 0.64000  0.65590  0.85850  Biso   1.000  C
  C941     1.0000 0.63140  0.68930  0.86840  Biso   1.000  C
  C942     1.0000 0.64850  0.71720  0.85400  Biso   1.000  C
  C943     1.0000 0.67430  0.71190  0.82970  Biso   1.000  C
  C944     1.0000 0.68290  0.67850  0.81980  Biso   1.000  C
  C945     1.0000 0.64770  0.52720  0.74860  Biso   1.000  C
  C946     1.0000 0.66180  0.49630  0.76080  Biso   1.000  C
  C947     1.0000 0.65520  0.46170  0.74800  Biso   1.000  C
  C948     1.0000 0.67450  0.43810  0.76510  Biso   1.000  C
  C949     1.0000 0.69410  0.45940  0.78900  Biso   1.000  C
  C950     1.0000 0.71990  0.44610  0.81090  Biso   1.000  C
  C951     1.0000 0.74050  0.46600  0.83200  Biso   1.000  C
  C952     1.0000 0.77160  0.45360  0.84800  Biso   1.000  C
  C953     1.0000 0.78650  0.48140  0.86250  Biso   1.000  C
  C954     1.0000 0.76500  0.51090  0.85600  Biso   1.000  C
  C955     1.0000 0.75300  0.35670  0.79290  Biso   1.000  C
  C956     1.0000 0.73640  0.33810  0.81850  Biso   1.000  C
  C957     1.0000 0.71450  0.35470  0.84150  Biso   1.000  C
  C958     1.0000 0.70920  0.39000  0.83880  Biso   1.000  C
  C959     1.0000 0.72590  0.40870  0.81320  Biso   1.000  C
  C960     1.0000 0.74780  0.39210  0.79020  Biso   1.000  C
  C961     1.0000 0.81710  0.46520  0.03850  Biso   1.000  C
  C962     1.0000 0.87520  0.35930  0.99370  Biso   1.000  C
  C963     1.0000 0.84510  0.37520  0.00900  Biso   1.000  C
  C964     1.0000 0.84410  0.41160  0.01860  Biso   1.000  C
  C965     1.0000 0.81660  0.42650  0.03040  Biso   1.000  C
  C966     1.0000 0.78700  0.40740  0.03180  Biso   1.000  C
  C967     1.0000 0.78410  0.37330  0.02490  Biso   1.000  C
  C968     1.0000 0.81320  0.35840  0.01150  Biso   1.000  C
  C969     1.0000 0.51820  0.16870  0.04280  Biso   1.000  C
  C970     1.0000 0.62590  0.10120  0.06250  Biso   1.000  C
  C971     1.0000 0.62510  0.16600  0.05780  Biso   1.000  C
  C972     1.0000 0.60700  0.13510  0.05850  Biso   1.000  C
  C973     1.0000 0.57220  0.13640  0.05280  Biso   1.000  C
  C974     1.0000 0.55550  0.16730  0.04820  Biso   1.000  C
  C975     1.0000 0.57480  0.19720  0.04540  Biso   1.000  C
  C976     1.0000 0.60860  0.19710  0.04990  Biso   1.000  C
  C977     1.0000 0.63080  0.22980  0.04420  Biso   1.000  C
  C978     1.0000 0.62700  0.25540  0.06830  Biso   1.000  C
  C979     1.0000 0.61040  0.25180  0.10080  Biso   1.000  C
  C980     1.0000 0.62430  0.27600  0.12170  Biso   1.000  C
  C981     1.0000 0.64990  0.29440  0.10230  Biso   1.000  C
  C982     1.0000 0.67060  0.32020  0.11540  Biso   1.000  C
  C983     1.0000 0.69360  0.33810  0.09510  Biso   1.000  C
  C984     1.0000 0.71620  0.36370  0.10940  Biso   1.000  C
  C985     1.0000 0.73910  0.37680  0.08680  Biso   1.000  C
  C986     1.0000 0.73100  0.35840  0.05580  Biso   1.000  C
  C987     1.0000 0.66580  0.33430  0.15060  Biso   1.000  C
  C988     1.0000 0.64150  0.36000  0.15590  Biso   1.000  C
  C989     1.0000 0.63160  0.36860  0.18930  Biso   1.000  C
  C990     1.0000 0.64600  0.35150  0.21720  Biso   1.000  C
  C991     1.0000 0.67030  0.32570  0.21190  Biso   1.000  C
  C992     1.0000 0.68020  0.31710  0.17850  Biso   1.000  C
  C993     1.0000 0.75140  0.35230  0.02720  Biso   1.000  C
  C994     1.0000 0.73920  0.33820  0.99630  Biso   1.000  C
  C995     1.0000 0.75200  0.34480  0.96170  Biso   1.000  C
  C996     1.0000 0.73490  0.32550  0.93810  Biso   1.000  C
  C997     1.0000 0.71100  0.30590  0.95940  Biso   1.000  C
  C998     1.0000 0.68910  0.28010  0.94610  Biso   1.000  C
  C999     1.0000 0.66800  0.25950  0.96600  Biso   1.000  C
  C1000    1.0000 0.65200  0.22840  0.95360  Biso   1.000  C
  C1001    1.0000 0.63750  0.21350  0.98140  Biso   1.000  C
  C1002    1.0000 0.64400  0.23500  0.01090  Biso   1.000  C
  C1003    1.0000 0.70710  0.24700  0.85670  Biso   1.000  C
  C1004    1.0000 0.68150  0.26360  0.83810  Biso   1.000  C
  C1005    1.0000 0.65850  0.28550  0.85470  Biso   1.000  C
  C1006    1.0000 0.66120  0.29080  0.89000  Biso   1.000  C
  C1007    1.0000 0.68680  0.27410  0.90870  Biso   1.000  C
  C1008    1.0000 0.70980  0.25220  0.89210  Biso   1.000  C
  C1009    1.0000 0.18290  0.96520  0.46150  Biso   1.000  C
  C1010    1.0000 0.12480  0.85930  0.50630  Biso   1.000  C
  C1011    1.0000 0.15490  0.87520  0.49100  Biso   1.000  C
  C1012    1.0000 0.15590  0.91160  0.48140  Biso   1.000  C
  C1013    1.0000 0.18340  0.92650  0.46960  Biso   1.000  C
  C1014    1.0000 0.21300  0.90740  0.46820  Biso   1.000  C
  C1015    1.0000 0.21590  0.87330  0.47510  Biso   1.000  C
  C1016    1.0000 0.18680  0.85840  0.48850  Biso   1.000  C
  C1017    1.0000 0.48180  0.66870  0.45720  Biso   1.000  C
  C1018    1.0000 0.37410  0.60120  0.43750  Biso   1.000  C
  C1019    1.0000 0.37490  0.66600  0.44220  Biso   1.000  C
  C1020    1.0000 0.39300  0.63510  0.44150  Biso   1.000  C
  C1021    1.0000 0.42780  0.63640  0.44720  Biso   1.000  C
  C1022    1.0000 0.44450  0.66730  0.45180  Biso   1.000  C
  C1023    1.0000 0.42520  0.69720  0.45460  Biso   1.000  C
  C1024    1.0000 0.39140  0.69710  0.45010  Biso   1.000  C
  C1025    1.0000 0.36920  0.72980  0.45580  Biso   1.000  C
  C1026    1.0000 0.37300  0.75540  0.43170  Biso   1.000  C
  C1027    1.0000 0.38960  0.75180  0.39920  Biso   1.000  C
  C1028    1.0000 0.37570  0.77600  0.37830  Biso   1.000  C
  C1029    1.0000 0.35010  0.79440  0.39770  Biso   1.000  C
  C1030    1.0000 0.32940  0.82020  0.38460  Biso   1.000  C
  C1031    1.0000 0.30640  0.83810  0.40490  Biso   1.000  C
  C1032    1.0000 0.28380  0.86370  0.39060  Biso   1.000  C
  C1033    1.0000 0.26090  0.87680  0.41320  Biso   1.000  C
  C1034    1.0000 0.26900  0.85840  0.44420  Biso   1.000  C
  C1035    1.0000 0.33420  0.83430  0.34940  Biso   1.000  C
  C1036    1.0000 0.35850  0.86000  0.34410  Biso   1.000  C
  C1037    1.0000 0.36840  0.86860  0.31070  Biso   1.000  C
  C1038    1.0000 0.35400  0.85150  0.28280  Biso   1.000  C
  C1039    1.0000 0.32970  0.82570  0.28810  Biso   1.000  C
  C1040    1.0000 0.31980  0.81710  0.32150  Biso   1.000  C
  C1041    1.0000 0.24860  0.85230  0.47280  Biso   1.000  C
  C1042    1.0000 0.26080  0.83820  0.50370  Biso   1.000  C
  C1043    1.0000 0.24800  0.84480  0.53830  Biso   1.000  C
  C1044    1.0000 0.26510  0.82550  0.56190  Biso   1.000  C
  C1045    1.0000 0.28900  0.80590  0.54060  Biso   1.000  C
  C1046    1.0000 0.31090  0.78010  0.55390  Biso   1.000  C
  C1047    1.0000 0.33200  0.75950  0.53400  Biso   1.000  C
  C1048    1.0000 0.34800  0.72840  0.54640  Biso   1.000  C
  C1049    1.0000 0.36250  0.71350  0.51860  Biso   1.000  C
  C1050    1.0000 0.35600  0.73500  0.48910  Biso   1.000  C
  C1051    1.0000 0.29290  0.74700  0.64330  Biso   1.000  C
  C1052    1.0000 0.31850  0.76360  0.66190  Biso   1.000  C
  C1053    1.0000 0.34150  0.78550  0.64530  Biso   1.000  C
  C1054    1.0000 0.33880  0.79080  0.61000  Biso   1.000  C
  C1055    1.0000 0.31320  0.77410  0.59130  Biso   1.000  C
  C1056    1.0000 0.29020  0.75220  0.60790  Biso   1.000  C
  C1057    1.0000 0.31710  0.03480  0.96150  Biso   1.000  C
  C1058    1.0000 0.37520  0.14070  0.00630  Biso   1.000  C
  C1059    1.0000 0.34510  0.12480  0.99100  Biso   1.000  C
  C1060    1.0000 0.34410  0.08840  0.98140  Biso   1.000  C
  C1061    1.0000 0.31660  0.07350  0.96960  Biso   1.000  C
  C1062    1.0000 0.28700  0.09260  0.96820  Biso   1.000  C
  C1063    1.0000 0.28410  0.12670  0.97510  Biso   1.000  C
  C1064    1.0000 0.31320  0.14160  0.98850  Biso   1.000  C
  C1065    1.0000 0.01820  0.33130  0.95720  Biso   1.000  C
  C1066    1.0000 0.12590  0.39880  0.93750  Biso   1.000  C
  C1067    1.0000 0.12510  0.33400  0.94220  Biso   1.000  C
  C1068    1.0000 0.10700  0.36490  0.94150  Biso   1.000  C
  C1069    1.0000 0.07220  0.36360  0.94720  Biso   1.000  C
  C1070    1.0000 0.05550  0.33270  0.95180  Biso   1.000  C
  C1071    1.0000 0.07480  0.30280  0.95460  Biso   1.000  C
  C1072    1.0000 0.10860  0.30290  0.95010  Biso   1.000  C
  C1073    1.0000 0.13080  0.27020  0.95580  Biso   1.000  C
  C1074    1.0000 0.12700  0.24460  0.93170  Biso   1.000  C
  C1075    1.0000 0.11040  0.24820  0.89920  Biso   1.000  C
  C1076    1.0000 0.12430  0.22400  0.87830  Biso   1.000  C
  C1077    1.0000 0.14990  0.20560  0.89770  Biso   1.000  C
  C1078    1.0000 0.17060  0.17980  0.88460  Biso   1.000  C
  C1079    1.0000 0.19360  0.16190  0.90490  Biso   1.000  C
  C1080    1.0000 0.21620  0.13630  0.89060  Biso   1.000  C
  C1081    1.0000 0.23910  0.12320  0.91320  Biso   1.000  C
  C1082    1.0000 0.23100  0.14160  0.94420  Biso   1.000  C
  C1083    1.0000 0.16580  0.16570  0.84940  Biso   1.000  C
  C1084    1.0000 0.14150  0.14000  0.84410  Biso   1.000  C
  C1085    1.0000 0.13160  0.13140  0.81070  Biso   1.000  C
  C1086    1.0000 0.14600  0.14850  0.78280  Biso   1.000  C
  C1087    1.0000 0.17030  0.17430  0.78810  Biso   1.000  C
  C1088    1.0000 0.18020  0.18290  0.82150  Biso   1.000  C
  C1089    1.0000 0.25140  0.14770  0.97280  Biso   1.000  C
  C1090    1.0000 0.23920  0.16180  0.00370  Biso   1.000  C
  C1091    1.0000 0.25200  0.15520  0.03830  Biso   1.000  C
  C1092    1.0000 0.23490  0.17450  0.06190  Biso   1.000  C
  C1093    1.0000 0.21100  0.19410  0.04060  Biso   1.000  C
  C1094    1.0000 0.18910  0.21990  0.05390  Biso   1.000  C
  C1095    1.0000 0.16800  0.24050  0.03400  Biso   1.000  C
  C1096    1.0000 0.15200  0.27160  0.04640  Biso   1.000  C
  C1097    1.0000 0.13750  0.28650  0.01860  Biso   1.000  C
  C1098    1.0000 0.14400  0.26500  0.98910  Biso   1.000  C
  C1099    1.0000 0.20710  0.25300  0.14330  Biso   1.000  C
  C1100    1.0000 0.18150  0.23640  0.16190  Biso   1.000  C
  C1101    1.0000 0.15850  0.21450  0.14530  Biso   1.000  C
  C1102    1.0000 0.16120  0.20920  0.11000  Biso   1.000  C
  C1103    1.0000 0.18680  0.22590  0.09130  Biso   1.000  C
  C1104    1.0000 0.20980  0.24780  0.10790  Biso   1.000  C
  C1105    1.0000 0.68290  0.53480  0.53850  Biso   1.000  C
  C1106    1.0000 0.62480  0.64070  0.49370  Biso   1.000  C
  C1107    1.0000 0.65490  0.62480  0.50900  Biso   1.000  C
  C1108    1.0000 0.65590  0.58840  0.51860  Biso   1.000  C
  C1109    1.0000 0.68340  0.57350  0.53040  Biso   1.000  C
  C1110    1.0000 0.71300  0.59260  0.53180  Biso   1.000  C
  C1111    1.0000 0.71590  0.62670  0.52490  Biso   1.000  C
  C1112    1.0000 0.68680  0.64160  0.51150  Biso   1.000  C
  C1113    1.0000 0.98180  0.83130  0.54280  Biso   1.000  C
  C1114    1.0000 0.87410  0.89880  0.56250  Biso   1.000  C
  C1115    1.0000 0.87490  0.83400  0.55780  Biso   1.000  C
  C1116    1.0000 0.89300  0.86490  0.55850  Biso   1.000  C
  C1117    1.0000 0.92780  0.86360  0.55280  Biso   1.000  C
  C1118    1.0000 0.94450  0.83270  0.54820  Biso   1.000  C
  C1119    1.0000 0.92520  0.80280  0.54540  Biso   1.000  C
  C1120    1.0000 0.89140  0.80290  0.54990  Biso   1.000  C
  C1121    1.0000 0.86920  0.77020  0.54420  Biso   1.000  C
  C1122    1.0000 0.87300  0.74460  0.56830  Biso   1.000  C
  C1123    1.0000 0.88960  0.74820  0.60080  Biso   1.000  C
  C1124    1.0000 0.87570  0.72400  0.62170  Biso   1.000  C
  C1125    1.0000 0.85010  0.70560  0.60230  Biso   1.000  C
  C1126    1.0000 0.82940  0.67980  0.61540  Biso   1.000  C
  C1127    1.0000 0.80640  0.66190  0.59510  Biso   1.000  C
  C1128    1.0000 0.78380  0.63630  0.60940  Biso   1.000  C
  C1129    1.0000 0.76090  0.62320  0.58680  Biso   1.000  C
  C1130    1.0000 0.76900  0.64160  0.55580  Biso   1.000  C
  C1131    1.0000 0.83420  0.66570  0.65060  Biso   1.000  C
  C1132    1.0000 0.85850  0.64000  0.65590  Biso   1.000  C
  C1133    1.0000 0.86840  0.63140  0.68930  Biso   1.000  C
  C1134    1.0000 0.85400  0.64850  0.71720  Biso   1.000  C
  C1135    1.0000 0.82970  0.67430  0.71190  Biso   1.000  C
  C1136    1.0000 0.81980  0.68290  0.67850  Biso   1.000  C
  C1137    1.0000 0.74860  0.64770  0.52720  Biso   1.000  C
  C1138    1.0000 0.76080  0.66180  0.49630  Biso   1.000  C
  C1139    1.0000 0.74800  0.65520  0.46170  Biso   1.000  C
  C1140    1.0000 0.76510  0.67450  0.43810  Biso   1.000  C
  C1141    1.0000 0.78900  0.69410  0.45940  Biso   1.000  C
  C1142    1.0000 0.81090  0.71990  0.44610  Biso   1.000  C
  C1143    1.0000 0.83200  0.74050  0.46600  Biso   1.000  C
  C1144    1.0000 0.84800  0.77160  0.45360  Biso   1.000  C
  C1145    1.0000 0.86250  0.78650  0.48140  Biso   1.000  C
  C1146    1.0000 0.85600  0.76500  0.51090  Biso   1.000  C
  C1147    1.0000 0.79290  0.75300  0.35670  Biso   1.000  C
  C1148    1.0000 0.81850  0.73640  0.33810  Biso   1.000  C
  C1149    1.0000 0.84150  0.71450  0.35470  Biso   1.000  C
  C1150    1.0000 0.83880  0.70920  0.39000  Biso   1.000  C
  C1151    1.0000 0.81320  0.72590  0.40870  Biso   1.000  C
  C1152    1.0000 0.79020  0.74780  0.39210  Biso   1.000  C
  Br1      1.0000 0.08450  0.25570  0.77170  Biso   1.000  Br
  Br2      1.0000 0.82710  0.28930  0.71930  Biso   1.000  Br
  Br3      1.0000 0.88091  0.38279  0.61993  Biso   1.000  Br
  Br4      1.0000 0.08820  0.37030  0.67820  Biso   1.000  Br
  Br5      1.0000 0.41550  0.74430  0.27170  Biso   1.000  Br
  Br6      1.0000 0.67290  0.71070  0.21930  Biso   1.000  Br
  Br7      1.0000 0.61909  0.61721  0.11993  Biso   1.000  Br
  Br8      1.0000 0.41180  0.62970  0.17820  Biso   1.000  Br
  Br9      1.0000 0.91550  0.75570  0.72830  Biso   1.000  Br
  Br10     1.0000 0.17290  0.78930  0.78070  Biso   1.000  Br
  Br11     1.0000 0.11909  0.88279  0.88007  Biso   1.000  Br
  Br12     1.0000 0.91180  0.87030  0.82180  Biso   1.000  Br
  Br13     1.0000 0.58450  0.24430  0.22830  Biso   1.000  Br
  Br14     1.0000 0.32710  0.21070  0.28070  Biso   1.000  Br
  Br15     1.0000 0.38091  0.11721  0.38007  Biso   1.000  Br
  Br16     1.0000 0.58820  0.12970  0.32180  Biso   1.000  Br
  Br17     1.0000 0.77170  0.08450  0.25570  Biso   1.000  Br
  Br18     1.0000 0.71930  0.82710  0.28930  Biso   1.000  Br
  Br19     1.0000 0.61993  0.88091  0.38279  Biso   1.000  Br
  Br20     1.0000 0.67820  0.08820  0.37030  Biso   1.000  Br
  Br21     1.0000 0.27170  0.41550  0.74430  Biso   1.000  Br
  Br22     1.0000 0.21930  0.67290  0.71070  Biso   1.000  Br
  Br23     1.0000 0.11993  0.61909  0.61721  Biso   1.000  Br
  Br24     1.0000 0.17820  0.41180  0.62970  Biso   1.000  Br
  Br25     1.0000 0.72830  0.91550  0.75570  Biso   1.000  Br
  Br26     1.0000 0.78070  0.17290  0.78930  Biso   1.000  Br
  Br27     1.0000 0.88007  0.11909  0.88279  Biso   1.000  Br
  Br28     1.0000 0.82180  0.91180  0.87030  Biso   1.000  Br
  Br29     1.0000 0.22830  0.58450  0.24430  Biso   1.000  Br
  Br30     1.0000 0.28070  0.32710  0.21070  Biso   1.000  Br
  Br31     1.0000 0.38007  0.38091  0.11721  Biso   1.000  Br
  Br32     1.0000 0.32180  0.58820  0.12970  Biso   1.000  Br
  Br33     1.0000 0.25570  0.77170  0.08450  Biso   1.000  Br
  Br34     1.0000 0.28930  0.71930  0.82710  Biso   1.000  Br
  Br35     1.0000 0.38279  0.61993  0.88091  Biso   1.000  Br
  Br36     1.0000 0.37030  0.67820  0.08820  Biso   1.000  Br
  Br37     1.0000 0.74430  0.27170  0.41550  Biso   1.000  Br
  Br38     1.0000 0.71070  0.21930  0.67290  Biso   1.000  Br
  Br39     1.0000 0.61721  0.11993  0.61909  Biso   1.000  Br
  Br40     1.0000 0.62970  0.17820  0.41180  Biso   1.000  Br
  Br41     1.0000 0.75570  0.72830  0.91550  Biso   1.000  Br
  Br42     1.0000 0.78930  0.78070  0.17290  Biso   1.000  Br
  Br43     1.0000 0.88279  0.88007  0.11909  Biso   1.000  Br
  Br44     1.0000 0.87030  0.82180  0.91180  Biso   1.000  Br
  Br45     1.0000 0.24430  0.22830  0.58450  Biso   1.000  Br
  Br46     1.0000 0.21070  0.28070  0.32710  Biso   1.000  Br
  Br47     1.0000 0.11721  0.38007  0.38091  Biso   1.000  Br
  Br48     1.0000 0.12970  0.32180  0.58820  Biso   1.000  Br
  Br49     1.0000 0.91550  0.74430  0.22830  Biso   1.000  Br
  Br50     1.0000 0.17290  0.71070  0.28070  Biso   1.000  Br
  Br51     1.0000 0.11909  0.61721  0.38007  Biso   1.000  Br
  Br52     1.0000 0.91180  0.62970  0.32180  Biso   1.000  Br
  Br53     1.0000 0.58450  0.25570  0.72830  Biso   1.000  Br
  Br54     1.0000 0.32710  0.28930  0.78070  Biso   1.000  Br
  Br55     1.0000 0.38091  0.38279  0.88007  Biso   1.000  Br
  Br56     1.0000 0.58820  0.37030  0.82180  Biso   1.000  Br
  Br57     1.0000 0.08450  0.24430  0.27170  Biso   1.000  Br
  Br58     1.0000 0.82710  0.21070  0.21930  Biso   1.000  Br
  Br59     1.0000 0.88091  0.11721  0.11993  Biso   1.000  Br
  Br60     1.0000 0.08820  0.12970  0.17820  Biso   1.000  Br
  Br61     1.0000 0.41550  0.75570  0.77170  Biso   1.000  Br
  Br62     1.0000 0.67290  0.78930  0.71930  Biso   1.000  Br
  Br63     1.0000 0.61909  0.88279  0.61993  Biso   1.000  Br
  Br64     1.0000 0.41180  0.87030  0.67820  Biso   1.000  Br
  Br65     1.0000 0.22830  0.91550  0.74430  Biso   1.000  Br
  Br66     1.0000 0.28070  0.17290  0.71070  Biso   1.000  Br
  Br67     1.0000 0.38007  0.11909  0.61721  Biso   1.000  Br
  Br68     1.0000 0.32180  0.91180  0.62970  Biso   1.000  Br
  Br69     1.0000 0.72830  0.58450  0.25570  Biso   1.000  Br
  Br70     1.0000 0.78070  0.32710  0.28930  Biso   1.000  Br
  Br71     1.0000 0.88007  0.38091  0.38279  Biso   1.000  Br
  Br72     1.0000 0.82180  0.58820  0.37030  Biso   1.000  Br
  Br73     1.0000 0.27170  0.08450  0.24430  Biso   1.000  Br
  Br74     1.0000 0.21930  0.82710  0.21070  Biso   1.000  Br
  Br75     1.0000 0.11993  0.88091  0.11721  Biso   1.000  Br
  Br76     1.0000 0.17820  0.08820  0.12970  Biso   1.000  Br
  Br77     1.0000 0.77170  0.41550  0.75570  Biso   1.000  Br
  Br78     1.0000 0.71930  0.67290  0.78930  Biso   1.000  Br
  Br79     1.0000 0.61993  0.61909  0.88279  Biso   1.000  Br
  Br80     1.0000 0.67820  0.41180  0.87030  Biso   1.000  Br
  Br81     1.0000 0.74430  0.22830  0.91550  Biso   1.000  Br
  Br82     1.0000 0.71070  0.28070  0.17290  Biso   1.000  Br
  Br83     1.0000 0.61721  0.38007  0.11909  Biso   1.000  Br
  Br84     1.0000 0.62970  0.32180  0.91180  Biso   1.000  Br
  Br85     1.0000 0.25570  0.72830  0.58450  Biso   1.000  Br
  Br86     1.0000 0.28930  0.78070  0.32710  Biso   1.000  Br
  Br87     1.0000 0.38279  0.88007  0.38091  Biso   1.000  Br
  Br88     1.0000 0.37030  0.82180  0.58820  Biso   1.000  Br
  Br89     1.0000 0.24430  0.27170  0.08450  Biso   1.000  Br
  Br90     1.0000 0.21070  0.21930  0.82710  Biso   1.000  Br
  Br91     1.0000 0.11721  0.11993  0.88091  Biso   1.000  Br
  Br92     1.0000 0.12970  0.17820  0.08820  Biso   1.000  Br
  Br93     1.0000 0.75570  0.77170  0.41550  Biso   1.000  Br
  Br94     1.0000 0.78930  0.71930  0.67290  Biso   1.000  Br
  Br95     1.0000 0.88279  0.61993  0.61909  Biso   1.000  Br
  Br96     1.0000 0.87030  0.67820  0.41180  Biso   1.000  Br
  N1       1.0000 0.93040  0.34910  0.71870  Biso   1.000  N
  N2       1.0000 0.93850  0.29600  0.66400  Biso   1.000  N
  N3       1.0000 0.00590  0.28740  0.68610  Biso   1.000  N
  N4       1.0000 0.99870  0.33560  0.73740  Biso   1.000  N
  N5       1.0000 0.56960  0.65090  0.21870  Biso   1.000  N
  N6       1.0000 0.56150  0.70400  0.16400  Biso   1.000  N
  N7       1.0000 0.49410  0.71260  0.18610  Biso   1.000  N
  N8       1.0000 0.50130  0.66440  0.23740  Biso   1.000  N
  N9       1.0000 0.06960  0.84910  0.78130  Biso   1.000  N
  N10      1.0000 0.06150  0.79600  0.83600  Biso   1.000  N
  N11      1.0000 0.99410  0.78740  0.81390  Biso   1.000  N
  N12      1.0000 0.00130  0.83560  0.76260  Biso   1.000  N
  N13      1.0000 0.43040  0.15090  0.28130  Biso   1.000  N
  N14      1.0000 0.43850  0.20400  0.33600  Biso   1.000  N
  N15      1.0000 0.50590  0.21260  0.31390  Biso   1.000  N
  N16      1.0000 0.49870  0.16440  0.26260  Biso   1.000  N
  N17      1.0000 0.71870  0.93040  0.34910  Biso   1.000  N
  N18      1.0000 0.66400  0.93850  0.29600  Biso   1.000  N
  N19      1.0000 0.68610  0.00590  0.28740  Biso   1.000  N
  N20      1.0000 0.73740  0.99870  0.33560  Biso   1.000  N
  N21      1.0000 0.21870  0.56960  0.65090  Biso   1.000  N
  N22      1.0000 0.16400  0.56150  0.70400  Biso   1.000  N
  N23      1.0000 0.18610  0.49410  0.71260  Biso   1.000  N
  N24      1.0000 0.23740  0.50130  0.66440  Biso   1.000  N
  N25      1.0000 0.78130  0.06960  0.84910  Biso   1.000  N
  N26      1.0000 0.83600  0.06150  0.79600  Biso   1.000  N
  N27      1.0000 0.81390  0.99410  0.78740  Biso   1.000  N
  N28      1.0000 0.76260  0.00130  0.83560  Biso   1.000  N
  N29      1.0000 0.28130  0.43040  0.15090  Biso   1.000  N
  N30      1.0000 0.33600  0.43850  0.20400  Biso   1.000  N
  N31      1.0000 0.31390  0.50590  0.21260  Biso   1.000  N
  N32      1.0000 0.26260  0.49870  0.16440  Biso   1.000  N
  N33      1.0000 0.34910  0.71870  0.93040  Biso   1.000  N
  N34      1.0000 0.29600  0.66400  0.93850  Biso   1.000  N
  N35      1.0000 0.28740  0.68610  0.00590  Biso   1.000  N
  N36      1.0000 0.33560  0.73740  0.99870  Biso   1.000  N
  N37      1.0000 0.65090  0.21870  0.56960  Biso   1.000  N
  N38      1.0000 0.70400  0.16400  0.56150  Biso   1.000  N
  N39      1.0000 0.71260  0.18610  0.49410  Biso   1.000  N
  N40      1.0000 0.66440  0.23740  0.50130  Biso   1.000  N
  N41      1.0000 0.84910  0.78130  0.06960  Biso   1.000  N
  N42      1.0000 0.79600  0.83600  0.06150  Biso   1.000  N
  N43      1.0000 0.78740  0.81390  0.99410  Biso   1.000  N
  N44      1.0000 0.83560  0.76260  0.00130  Biso   1.000  N
  N45      1.0000 0.15090  0.28130  0.43040  Biso   1.000  N
  N46      1.0000 0.20400  0.33600  0.43850  Biso   1.000  N
  N47      1.0000 0.21260  0.31390  0.50590  Biso   1.000  N
  N48      1.0000 0.16440  0.26260  0.49870  Biso   1.000  N
  N49      1.0000 0.06960  0.65090  0.28130  Biso   1.000  N
  N50      1.0000 0.06150  0.70400  0.33600  Biso   1.000  N
  N51      1.0000 0.99410  0.71260  0.31390  Biso   1.000  N
  N52      1.0000 0.00130  0.66440  0.26260  Biso   1.000  N
  N53      1.0000 0.43040  0.34910  0.78130  Biso   1.000  N
  N54      1.0000 0.43850  0.29600  0.83600  Biso   1.000  N
  N55      1.0000 0.50590  0.28740  0.81390  Biso   1.000  N
  N56      1.0000 0.49870  0.33560  0.76260  Biso   1.000  N
  N57      1.0000 0.93040  0.15090  0.21870  Biso   1.000  N
  N58      1.0000 0.93850  0.20400  0.16400  Biso   1.000  N
  N59      1.0000 0.00590  0.21260  0.18610  Biso   1.000  N
  N60      1.0000 0.99870  0.16440  0.23740  Biso   1.000  N
  N61      1.0000 0.56960  0.84910  0.71870  Biso   1.000  N
  N62      1.0000 0.56150  0.79600  0.66400  Biso   1.000  N
  N63      1.0000 0.49410  0.78740  0.68610  Biso   1.000  N
  N64      1.0000 0.50130  0.83560  0.73740  Biso   1.000  N
  N65      1.0000 0.28130  0.06960  0.65090  Biso   1.000  N
  N66      1.0000 0.33600  0.06150  0.70400  Biso   1.000  N
  N67      1.0000 0.31390  0.99410  0.71260  Biso   1.000  N
  N68      1.0000 0.26260  0.00130  0.66440  Biso   1.000  N
  N69      1.0000 0.78130  0.43040  0.34910  Biso   1.000  N
  N70      1.0000 0.83600  0.43850  0.29600  Biso   1.000  N
  N71      1.0000 0.81390  0.50590  0.28740  Biso   1.000  N
  N72      1.0000 0.76260  0.49870  0.33560  Biso   1.000  N
  N73      1.0000 0.21870  0.93040  0.15090  Biso   1.000  N
  N74      1.0000 0.16400  0.93850  0.20400  Biso   1.000  N
  N75      1.0000 0.18610  0.00590  0.21260  Biso   1.000  N
  N76      1.0000 0.23740  0.99870  0.16440  Biso   1.000  N
  N77      1.0000 0.71870  0.56960  0.84910  Biso   1.000  N
  N78      1.0000 0.66400  0.56150  0.79600  Biso   1.000  N
  N79      1.0000 0.68610  0.49410  0.78740  Biso   1.000  N
  N80      1.0000 0.73740  0.50130  0.83560  Biso   1.000  N
  N81      1.0000 0.65090  0.28130  0.06960  Biso   1.000  N
  N82      1.0000 0.70400  0.33600  0.06150  Biso   1.000  N
  N83      1.0000 0.71260  0.31390  0.99410  Biso   1.000  N
  N84      1.0000 0.66440  0.26260  0.00130  Biso   1.000  N
  N85      1.0000 0.34910  0.78130  0.43040  Biso   1.000  N
  N86      1.0000 0.29600  0.83600  0.43850  Biso   1.000  N
  N87      1.0000 0.28740  0.81390  0.50590  Biso   1.000  N
  N88      1.0000 0.33560  0.76260  0.49870  Biso   1.000  N
  N89      1.0000 0.15090  0.21870  0.93040  Biso   1.000  N
  N90      1.0000 0.20400  0.16400  0.93850  Biso   1.000  N
  N91      1.0000 0.21260  0.18610  0.00590  Biso   1.000  N
  N92      1.0000 0.16440  0.23740  0.99870  Biso   1.000  N
  N93      1.0000 0.84910  0.71870  0.56960  Biso   1.000  N
  N94      1.0000 0.79600  0.66400  0.56150  Biso   1.000  N
  N95      1.0000 0.78740  0.68610  0.49410  Biso   1.000  N
  N96      1.0000 0.83560  0.73740  0.50130  Biso   1.000  N
  O1       1.0000 0.96290  0.24190  0.41640  Biso   1.000  O
  O2       1.0000 0.99250  0.26990  0.48340  Biso   1.000  O
  O3       1.0000 0.95230  0.21140  0.52118  Biso   1.000  O
  O4       1.0000 0.96172  0.15454  0.52133  Biso   1.000  O
  O5       1.0000 0.01072  0.09860  0.62195  Biso   1.000  O
  O6       1.0000 0.01220  0.12640  0.67170  Biso   1.000  O
  O7       1.0000 0.92640  0.34240  0.89611  Biso   1.000  O
  O8       1.0000 0.94189  0.38878  0.92581  Biso   1.000  O
  O9       1.0000 0.95879  0.49877  0.85867  Biso   1.000  O
  O10      1.0000 0.96050  0.49423  0.80214  Biso   1.000  O
  O11      1.0000 0.96468  0.41555  0.99393  Biso   1.000  O
  O12      1.0000 0.93348  0.31680  0.95616  Biso   1.000  O
  O13      1.0000 0.95710  0.27510  0.74410  Biso   1.000  O
  O14      1.0000 0.91530  0.25770  0.47480  Biso   1.000  O
  O15      1.0000 0.53710  0.75810  0.91640  Biso   1.000  O
  O16      1.0000 0.50750  0.73010  0.98340  Biso   1.000  O
  O17      1.0000 0.54770  0.78860  0.02118  Biso   1.000  O
  O18      1.0000 0.53828  0.84546  0.02133  Biso   1.000  O
  O19      1.0000 0.48928  0.90140  0.12195  Biso   1.000  O
  O20      1.0000 0.48780  0.87360  0.17170  Biso   1.000  O
  O21      1.0000 0.57360  0.65760  0.39611  Biso   1.000  O
  O22      1.0000 0.55811  0.61122  0.42581  Biso   1.000  O
  O23      1.0000 0.54121  0.50123  0.35867  Biso   1.000  O
  O24      1.0000 0.53950  0.50577  0.30214  Biso   1.000  O
  O25      1.0000 0.53532  0.58445  0.49393  Biso   1.000  O
  O26      1.0000 0.56652  0.68320  0.45616  Biso   1.000  O
  O27      1.0000 0.54290  0.72490  0.24410  Biso   1.000  O
  O28      1.0000 0.58470  0.74230  0.97480  Biso   1.000  O
  O29      1.0000 0.03710  0.74190  0.08360  Biso   1.000  O
  O30      1.0000 0.00750  0.76990  0.01660  Biso   1.000  O
  O31      1.0000 0.04770  0.71140  0.97882  Biso   1.000  O
  O32      1.0000 0.03828  0.65454  0.97867  Biso   1.000  O
  O33      1.0000 0.98928  0.59860  0.87805  Biso   1.000  O
  O34      1.0000 0.98780  0.62640  0.82830  Biso   1.000  O
  O35      1.0000 0.07360  0.84240  0.60389  Biso   1.000  O
  O36      1.0000 0.05811  0.88878  0.57419  Biso   1.000  O
  O37      1.0000 0.04121  0.99877  0.64133  Biso   1.000  O
  O38      1.0000 0.03950  0.99423  0.69786  Biso   1.000  O
  O39      1.0000 0.03532  0.91555  0.50607  Biso   1.000  O
  O40      1.0000 0.06652  0.81680  0.54384  Biso   1.000  O
  O41      1.0000 0.04290  0.77510  0.75590  Biso   1.000  O
  O42      1.0000 0.08470  0.75770  0.02520  Biso   1.000  O
  O43      1.0000 0.46290  0.25810  0.58360  Biso   1.000  O
  O44      1.0000 0.49250  0.23010  0.51660  Biso   1.000  O
  O45      1.0000 0.45230  0.28860  0.47882  Biso   1.000  O
  O46      1.0000 0.46172  0.34546  0.47867  Biso   1.000  O
  O47      1.0000 0.51072  0.40140  0.37805  Biso   1.000  O
  O48      1.0000 0.51220  0.37360  0.32830  Biso   1.000  O
  O49      1.0000 0.42640  0.15760  0.10389  Biso   1.000  O
  O50      1.0000 0.44189  0.11122  0.07419  Biso   1.000  O
  O51      1.0000 0.45879  0.00123  0.14133  Biso   1.000  O
  O52      1.0000 0.46050  0.00577  0.19786  Biso   1.000  O
  O53      1.0000 0.46468  0.08445  0.00607  Biso   1.000  O
  O54      1.0000 0.43348  0.18320  0.04384  Biso   1.000  O
  O55      1.0000 0.45710  0.22490  0.25590  Biso   1.000  O
  O56      1.0000 0.41530  0.24230  0.52520  Biso   1.000  O
  O57      1.0000 0.41640  0.96290  0.24190  Biso   1.000  O
  O58      1.0000 0.48340  0.99250  0.26990  Biso   1.000  O
  O59      1.0000 0.52118  0.95230  0.21140  Biso   1.000  O
  O60      1.0000 0.52133  0.96172  0.15454  Biso   1.000  O
  O61      1.0000 0.62195  0.01072  0.09860  Biso   1.000  O
  O62      1.0000 0.67170  0.01220  0.12640  Biso   1.000  O
  O63      1.0000 0.89611  0.92640  0.34240  Biso   1.000  O
  O64      1.0000 0.92581  0.94189  0.38878  Biso   1.000  O
  O65      1.0000 0.85867  0.95879  0.49877  Biso   1.000  O
  O66      1.0000 0.80214  0.96050  0.49423  Biso   1.000  O
  O67      1.0000 0.99393  0.96468  0.41555  Biso   1.000  O
  O68      1.0000 0.95616  0.93348  0.31680  Biso   1.000  O
  O69      1.0000 0.74410  0.95710  0.27510  Biso   1.000  O
  O70      1.0000 0.47480  0.91530  0.25770  Biso   1.000  O
  O71      1.0000 0.91640  0.53710  0.75810  Biso   1.000  O
  O72      1.0000 0.98340  0.50750  0.73010  Biso   1.000  O
  O73      1.0000 0.02118  0.54770  0.78860  Biso   1.000  O
  O74      1.0000 0.02133  0.53828  0.84546  Biso   1.000  O
  O75      1.0000 0.12195  0.48928  0.90140  Biso   1.000  O
  O76      1.0000 0.17170  0.48780  0.87360  Biso   1.000  O
  O77      1.0000 0.39611  0.57360  0.65760  Biso   1.000  O
  O78      1.0000 0.42581  0.55811  0.61122  Biso   1.000  O
  O79      1.0000 0.35867  0.54121  0.50123  Biso   1.000  O
  O80      1.0000 0.30214  0.53950  0.50577  Biso   1.000  O
  O81      1.0000 0.49393  0.53532  0.58445  Biso   1.000  O
  O82      1.0000 0.45616  0.56652  0.68320  Biso   1.000  O
  O83      1.0000 0.24410  0.54290  0.72490  Biso   1.000  O
  O84      1.0000 0.97480  0.58470  0.74230  Biso   1.000  O
  O85      1.0000 0.08360  0.03710  0.74190  Biso   1.000  O
  O86      1.0000 0.01660  0.00750  0.76990  Biso   1.000  O
  O87      1.0000 0.97882  0.04770  0.71140  Biso   1.000  O
  O88      1.0000 0.97867  0.03828  0.65454  Biso   1.000  O
  O89      1.0000 0.87805  0.98928  0.59860  Biso   1.000  O
  O90      1.0000 0.82830  0.98780  0.62640  Biso   1.000  O
  O91      1.0000 0.60389  0.07360  0.84240  Biso   1.000  O
  O92      1.0000 0.57419  0.05811  0.88878  Biso   1.000  O
  O93      1.0000 0.64133  0.04121  0.99877  Biso   1.000  O
  O94      1.0000 0.69786  0.03950  0.99423  Biso   1.000  O
  O95      1.0000 0.50607  0.03532  0.91555  Biso   1.000  O
  O96      1.0000 0.54384  0.06652  0.81680  Biso   1.000  O
  O97      1.0000 0.75590  0.04290  0.77510  Biso   1.000  O
  O98      1.0000 0.02520  0.08470  0.75770  Biso   1.000  O
  O99      1.0000 0.58360  0.46290  0.25810  Biso   1.000  O
  O100     1.0000 0.51660  0.49250  0.23010  Biso   1.000  O
  O101     1.0000 0.47882  0.45230  0.28860  Biso   1.000  O
  O102     1.0000 0.47867  0.46172  0.34546  Biso   1.000  O
  O103     1.0000 0.37805  0.51072  0.40140  Biso   1.000  O
  O104     1.0000 0.32830  0.51220  0.37360  Biso   1.000  O
  O105     1.0000 0.10389  0.42640  0.15760  Biso   1.000  O
  O106     1.0000 0.07419  0.44189  0.11122  Biso   1.000  O
  O107     1.0000 0.14133  0.45879  0.00123  Biso   1.000  O
  O108     1.0000 0.19786  0.46050  0.00577  Biso   1.000  O
  O109     1.0000 0.00607  0.46468  0.08445  Biso   1.000  O
  O110     1.0000 0.04384  0.43348  0.18320  Biso   1.000  O
  O111     1.0000 0.25590  0.45710  0.22490  Biso   1.000  O
  O112     1.0000 0.52520  0.41530  0.24230  Biso   1.000  O
  O113     1.0000 0.24190  0.41640  0.96290  Biso   1.000  O
  O114     1.0000 0.26990  0.48340  0.99250  Biso   1.000  O
  O115     1.0000 0.21140  0.52118  0.95230  Biso   1.000  O
  O116     1.0000 0.15454  0.52133  0.96172  Biso   1.000  O
  O117     1.0000 0.09860  0.62195  0.01072  Biso   1.000  O
  O118     1.0000 0.12640  0.67170  0.01220  Biso   1.000  O
  O119     1.0000 0.34240  0.89611  0.92640  Biso   1.000  O
  O120     1.0000 0.38878  0.92581  0.94189  Biso   1.000  O
  O121     1.0000 0.49877  0.85867  0.95879  Biso   1.000  O
  O122     1.0000 0.49423  0.80214  0.96050  Biso   1.000  O
  O123     1.0000 0.41555  0.99393  0.96468  Biso   1.000  O
  O124     1.0000 0.31680  0.95616  0.93348  Biso   1.000  O
  O125     1.0000 0.27510  0.74410  0.95710  Biso   1.000  O
  O126     1.0000 0.25770  0.47480  0.91530  Biso   1.000  O
  O127     1.0000 0.75810  0.91640  0.53710  Biso   1.000  O
  O128     1.0000 0.73010  0.98340  0.50750  Biso   1.000  O
  O129     1.0000 0.78860  0.02118  0.54770  Biso   1.000  O
  O130     1.0000 0.84546  0.02133  0.53828  Biso   1.000  O
  O131     1.0000 0.90140  0.12195  0.48928  Biso   1.000  O
  O132     1.0000 0.87360  0.17170  0.48780  Biso   1.000  O
  O133     1.0000 0.65760  0.39611  0.57360  Biso   1.000  O
  O134     1.0000 0.61122  0.42581  0.55811  Biso   1.000  O
  O135     1.0000 0.50123  0.35867  0.54121  Biso   1.000  O
  O136     1.0000 0.50577  0.30214  0.53950  Biso   1.000  O
  O137     1.0000 0.58445  0.49393  0.53532  Biso   1.000  O
  O138     1.0000 0.68320  0.45616  0.56652  Biso   1.000  O
  O139     1.0000 0.72490  0.24410  0.54290  Biso   1.000  O
  O140     1.0000 0.74230  0.97480  0.58470  Biso   1.000  O
  O141     1.0000 0.74190  0.08360  0.03710  Biso   1.000  O
  O142     1.0000 0.76990  0.01660  0.00750  Biso   1.000  O
  O143     1.0000 0.71140  0.97882  0.04770  Biso   1.000  O
  O144     1.0000 0.65454  0.97867  0.03828  Biso   1.000  O
  O145     1.0000 0.59860  0.87805  0.98928  Biso   1.000  O
  O146     1.0000 0.62640  0.82830  0.98780  Biso   1.000  O
  O147     1.0000 0.84240  0.60389  0.07360  Biso   1.000  O
  O148     1.0000 0.88878  0.57419  0.05811  Biso   1.000  O
  O149     1.0000 0.99877  0.64133  0.04121  Biso   1.000  O
  O150     1.0000 0.99423  0.69786  0.03950  Biso   1.000  O
  O151     1.0000 0.91555  0.50607  0.03532  Biso   1.000  O
  O152     1.0000 0.81680  0.54384  0.06652  Biso   1.000  O
  O153     1.0000 0.77510  0.75590  0.04290  Biso   1.000  O
  O154     1.0000 0.75770  0.02520  0.08470  Biso   1.000  O
  O155     1.0000 0.25810  0.58360  0.46290  Biso   1.000  O
  O156     1.0000 0.23010  0.51660  0.49250  Biso   1.000  O
  O157     1.0000 0.28860  0.47882  0.45230  Biso   1.000  O
  O158     1.0000 0.34546  0.47867  0.46172  Biso   1.000  O
  O159     1.0000 0.40140  0.37805  0.51072  Biso   1.000  O
  O160     1.0000 0.37360  0.32830  0.51220  Biso   1.000  O
  O161     1.0000 0.15760  0.10389  0.42640  Biso   1.000  O
  O162     1.0000 0.11122  0.07419  0.44189  Biso   1.000  O
  O163     1.0000 0.00123  0.14133  0.45879  Biso   1.000  O
  O164     1.0000 0.00577  0.19786  0.46050  Biso   1.000  O
  O165     1.0000 0.08445  0.00607  0.46468  Biso   1.000  O
  O166     1.0000 0.18320  0.04384  0.43348  Biso   1.000  O
  O167     1.0000 0.22490  0.25590  0.45710  Biso   1.000  O
  O168     1.0000 0.24230  0.52520  0.41530  Biso   1.000  O
  O169     1.0000 0.03710  0.75810  0.58360  Biso   1.000  O
  O170     1.0000 0.00750  0.73010  0.51660  Biso   1.000  O
  O171     1.0000 0.04770  0.78860  0.47882  Biso   1.000  O
  O172     1.0000 0.03828  0.84546  0.47867  Biso   1.000  O
  O173     1.0000 0.98928  0.90140  0.37805  Biso   1.000  O
  O174     1.0000 0.98780  0.87360  0.32830  Biso   1.000  O
  O175     1.0000 0.07360  0.65760  0.10389  Biso   1.000  O
  O176     1.0000 0.05811  0.61122  0.07419  Biso   1.000  O
  O177     1.0000 0.04121  0.50123  0.14133  Biso   1.000  O
  O178     1.0000 0.03950  0.50577  0.19786  Biso   1.000  O
  O179     1.0000 0.03532  0.58445  0.00607  Biso   1.000  O
  O180     1.0000 0.06652  0.68320  0.04384  Biso   1.000  O
  O181     1.0000 0.04290  0.72490  0.25590  Biso   1.000  O
  O182     1.0000 0.08470  0.74230  0.52520  Biso   1.000  O
  O183     1.0000 0.46290  0.24190  0.08360  Biso   1.000  O
  O184     1.0000 0.49250  0.26990  0.01660  Biso   1.000  O
  O185     1.0000 0.45230  0.21140  0.97882  Biso   1.000  O
  O186     1.0000 0.46172  0.15454  0.97867  Biso   1.000  O
  O187     1.0000 0.51072  0.09860  0.87805  Biso   1.000  O
  O188     1.0000 0.51220  0.12640  0.82830  Biso   1.000  O
  O189     1.0000 0.42640  0.34240  0.60389  Biso   1.000  O
  O190     1.0000 0.44189  0.38878  0.57419  Biso   1.000  O
  O191     1.0000 0.45879  0.49877  0.64133  Biso   1.000  O
  O192     1.0000 0.46050  0.49423  0.69786  Biso   1.000  O
  O193     1.0000 0.46468  0.41555  0.50607  Biso   1.000  O
  O194     1.0000 0.43348  0.31680  0.54384  Biso   1.000  O
  O195     1.0000 0.45710  0.27510  0.75590  Biso   1.000  O
  O196     1.0000 0.41530  0.25770  0.02520  Biso   1.000  O
  O197     1.0000 0.96290  0.25810  0.91640  Biso   1.000  O
  O198     1.0000 0.99250  0.23010  0.98340  Biso   1.000  O
  O199     1.0000 0.95230  0.28860  0.02118  Biso   1.000  O
  O200     1.0000 0.96172  0.34546  0.02133  Biso   1.000  O
  O201     1.0000 0.01072  0.40140  0.12195  Biso   1.000  O
  O202     1.0000 0.01220  0.37360  0.17170  Biso   1.000  O
  O203     1.0000 0.92640  0.15760  0.39611  Biso   1.000  O
  O204     1.0000 0.94189  0.11122  0.42581  Biso   1.000  O
  O205     1.0000 0.95879  0.00123  0.35867  Biso   1.000  O
  O206     1.0000 0.96050  0.00577  0.30214  Biso   1.000  O
  O207     1.0000 0.96468  0.08445  0.49393  Biso   1.000  O
  O208     1.0000 0.93348  0.18320  0.45616  Biso   1.000  O
  O209     1.0000 0.95710  0.22490  0.24410  Biso   1.000  O
  O210     1.0000 0.91530  0.24230  0.97480  Biso   1.000  O
  O211     1.0000 0.53710  0.74190  0.41640  Biso   1.000  O
  O212     1.0000 0.50750  0.76990  0.48340  Biso   1.000  O
  O213     1.0000 0.54770  0.71140  0.52118  Biso   1.000  O
  O214     1.0000 0.53828  0.65454  0.52133  Biso   1.000  O
  O215     1.0000 0.48928  0.59860  0.62195  Biso   1.000  O
  O216     1.0000 0.48780  0.62640  0.67170  Biso   1.000  O
  O217     1.0000 0.57360  0.84240  0.89611  Biso   1.000  O
  O218     1.0000 0.55811  0.88878  0.92581  Biso   1.000  O
  O219     1.0000 0.54121  0.99877  0.85867  Biso   1.000  O
  O220     1.0000 0.53950  0.99423  0.80214  Biso   1.000  O
  O221     1.0000 0.53532  0.91555  0.99393  Biso   1.000  O
  O222     1.0000 0.56652  0.81680  0.95616  Biso   1.000  O
  O223     1.0000 0.54290  0.77510  0.74410  Biso   1.000  O
  O224     1.0000 0.58470  0.75770  0.47480  Biso   1.000  O
  O225     1.0000 0.58360  0.03710  0.75810  Biso   1.000  O
  O226     1.0000 0.51660  0.00750  0.73010  Biso   1.000  O
  O227     1.0000 0.47882  0.04770  0.78860  Biso   1.000  O
  O228     1.0000 0.47867  0.03828  0.84546  Biso   1.000  O
  O229     1.0000 0.37805  0.98928  0.90140  Biso   1.000  O
  O230     1.0000 0.32830  0.98780  0.87360  Biso   1.000  O
  O231     1.0000 0.10389  0.07360  0.65760  Biso   1.000  O
  O232     1.0000 0.07419  0.05811  0.61122  Biso   1.000  O
  O233     1.0000 0.14133  0.04121  0.50123  Biso   1.000  O
  O234     1.0000 0.19786  0.03950  0.50577  Biso   1.000  O
  O235     1.0000 0.00607  0.03532  0.58445  Biso   1.000  O
  O236     1.0000 0.04384  0.06652  0.68320  Biso   1.000  O
  O237     1.0000 0.25590  0.04290  0.72490  Biso   1.000  O
  O238     1.0000 0.52520  0.08470  0.74230  Biso   1.000  O
  O239     1.0000 0.08360  0.46290  0.24190  Biso   1.000  O
  O240     1.0000 0.01660  0.49250  0.26990  Biso   1.000  O
  O241     1.0000 0.97882  0.45230  0.21140  Biso   1.000  O
  O242     1.0000 0.97867  0.46172  0.15454  Biso   1.000  O
  O243     1.0000 0.87805  0.51072  0.09860  Biso   1.000  O
  O244     1.0000 0.82830  0.51220  0.12640  Biso   1.000  O
  O245     1.0000 0.60389  0.42640  0.34240  Biso   1.000  O
  O246     1.0000 0.57419  0.44189  0.38878  Biso   1.000  O
  O247     1.0000 0.64133  0.45879  0.49877  Biso   1.000  O
  O248     1.0000 0.69786  0.46050  0.49423  Biso   1.000  O
  O249     1.0000 0.50607  0.46468  0.41555  Biso   1.000  O
  O250     1.0000 0.54384  0.43348  0.31680  Biso   1.000  O
  O251     1.0000 0.75590  0.45710  0.27510  Biso   1.000  O
  O252     1.0000 0.02520  0.41530  0.25770  Biso   1.000  O
  O253     1.0000 0.91640  0.96290  0.25810  Biso   1.000  O
  O254     1.0000 0.98340  0.99250  0.23010  Biso   1.000  O
  O255     1.0000 0.02118  0.95230  0.28860  Biso   1.000  O
  O256     1.0000 0.02133  0.96172  0.34546  Biso   1.000  O
  O257     1.0000 0.12195  0.01072  0.40140  Biso   1.000  O
  O258     1.0000 0.17170  0.01220  0.37360  Biso   1.000  O
  O259     1.0000 0.39611  0.92640  0.15760  Biso   1.000  O
  O260     1.0000 0.42581  0.94189  0.11122  Biso   1.000  O
  O261     1.0000 0.35867  0.95879  0.00123  Biso   1.000  O
  O262     1.0000 0.30214  0.96050  0.00577  Biso   1.000  O
  O263     1.0000 0.49393  0.96468  0.08445  Biso   1.000  O
  O264     1.0000 0.45616  0.93348  0.18320  Biso   1.000  O
  O265     1.0000 0.24410  0.95710  0.22490  Biso   1.000  O
  O266     1.0000 0.97480  0.91530  0.24230  Biso   1.000  O
  O267     1.0000 0.41640  0.53710  0.74190  Biso   1.000  O
  O268     1.0000 0.48340  0.50750  0.76990  Biso   1.000  O
  O269     1.0000 0.52118  0.54770  0.71140  Biso   1.000  O
  O270     1.0000 0.52133  0.53828  0.65454  Biso   1.000  O
  O271     1.0000 0.62195  0.48928  0.59860  Biso   1.000  O
  O272     1.0000 0.67170  0.48780  0.62640  Biso   1.000  O
  O273     1.0000 0.89611  0.57360  0.84240  Biso   1.000  O
  O274     1.0000 0.92581  0.55811  0.88878  Biso   1.000  O
  O275     1.0000 0.85867  0.54121  0.99877  Biso   1.000  O
  O276     1.0000 0.80214  0.53950  0.99423  Biso   1.000  O
  O277     1.0000 0.99393  0.53532  0.91555  Biso   1.000  O
  O278     1.0000 0.95616  0.56652  0.81680  Biso   1.000  O
  O279     1.0000 0.74410  0.54290  0.77510  Biso   1.000  O
  O280     1.0000 0.47480  0.58470  0.75770  Biso   1.000  O
  O281     1.0000 0.75810  0.58360  0.03710  Biso   1.000  O
  O282     1.0000 0.73010  0.51660  0.00750  Biso   1.000  O
  O283     1.0000 0.78860  0.47882  0.04770  Biso   1.000  O
  O284     1.0000 0.84546  0.47867  0.03828  Biso   1.000  O
  O285     1.0000 0.90140  0.37805  0.98928  Biso   1.000  O
  O286     1.0000 0.87360  0.32830  0.98780  Biso   1.000  O
  O287     1.0000 0.65760  0.10389  0.07360  Biso   1.000  O
  O288     1.0000 0.61122  0.07419  0.05811  Biso   1.000  O
  O289     1.0000 0.50123  0.14133  0.04121  Biso   1.000  O
  O290     1.0000 0.50577  0.19786  0.03950  Biso   1.000  O
  O291     1.0000 0.58445  0.00607  0.03532  Biso   1.000  O
  O292     1.0000 0.68320  0.04384  0.06652  Biso   1.000  O
  O293     1.0000 0.72490  0.25590  0.04290  Biso   1.000  O
  O294     1.0000 0.74230  0.52520  0.08470  Biso   1.000  O
  O295     1.0000 0.24190  0.08360  0.46290  Biso   1.000  O
  O296     1.0000 0.26990  0.01660  0.49250  Biso   1.000  O
  O297     1.0000 0.21140  0.97882  0.45230  Biso   1.000  O
  O298     1.0000 0.15454  0.97867  0.46172  Biso   1.000  O
  O299     1.0000 0.09860  0.87805  0.51072  Biso   1.000  O
  O300     1.0000 0.12640  0.82830  0.51220  Biso   1.000  O
  O301     1.0000 0.34240  0.60389  0.42640  Biso   1.000  O
  O302     1.0000 0.38878  0.57419  0.44189  Biso   1.000  O
  O303     1.0000 0.49877  0.64133  0.45879  Biso   1.000  O
  O304     1.0000 0.49423  0.69786  0.46050  Biso   1.000  O
  O305     1.0000 0.41555  0.50607  0.46468  Biso   1.000  O
  O306     1.0000 0.31680  0.54384  0.43348  Biso   1.000  O
  O307     1.0000 0.27510  0.75590  0.45710  Biso   1.000  O
  O308     1.0000 0.25770  0.02520  0.41530  Biso   1.000  O
  O309     1.0000 0.25810  0.91640  0.96290  Biso   1.000  O
  O310     1.0000 0.23010  0.98340  0.99250  Biso   1.000  O
  O311     1.0000 0.28860  0.02118  0.95230  Biso   1.000  O
  O312     1.0000 0.34546  0.02133  0.96172  Biso   1.000  O
  O313     1.0000 0.40140  0.12195  0.01072  Biso   1.000  O
  O314     1.0000 0.37360  0.17170  0.01220  Biso   1.000  O
  O315     1.0000 0.15760  0.39611  0.92640  Biso   1.000  O
  O316     1.0000 0.11122  0.42581  0.94189  Biso   1.000  O
  O317     1.0000 0.00123  0.35867  0.95879  Biso   1.000  O
  O318     1.0000 0.00577  0.30214  0.96050  Biso   1.000  O
  O319     1.0000 0.08445  0.49393  0.96468  Biso   1.000  O
  O320     1.0000 0.18320  0.45616  0.93348  Biso   1.000  O
  O321     1.0000 0.22490  0.24410  0.95710  Biso   1.000  O
  O322     1.0000 0.24230  0.97480  0.91530  Biso   1.000  O
  O323     1.0000 0.74190  0.41640  0.53710  Biso   1.000  O
  O324     1.0000 0.76990  0.48340  0.50750  Biso   1.000  O
  O325     1.0000 0.71140  0.52118  0.54770  Biso   1.000  O
  O326     1.0000 0.65454  0.52133  0.53828  Biso   1.000  O
  O327     1.0000 0.59860  0.62195  0.48928  Biso   1.000  O
  O328     1.0000 0.62640  0.67170  0.48780  Biso   1.000  O
  O329     1.0000 0.84240  0.89611  0.57360  Biso   1.000  O
  O330     1.0000 0.88878  0.92581  0.55811  Biso   1.000  O
  O331     1.0000 0.99877  0.85867  0.54121  Biso   1.000  O
  O332     1.0000 0.99423  0.80214  0.53950  Biso   1.000  O
  O333     1.0000 0.91555  0.99393  0.53532  Biso   1.000  O
  O334     1.0000 0.81680  0.95616  0.56652  Biso   1.000  O
  O335     1.0000 0.77510  0.74410  0.54290  Biso   1.000  O
  O336     1.0000 0.75770  0.47480  0.58470  Biso   1.000  O
