data_image0
_cell_length_a       25.574
_cell_length_b       25.574
_cell_length_c       25.574
_cell_angle_alpha    90
_cell_angle_beta     90
_cell_angle_gamma    90

_symmetry_space_group_name_H-M    "P 1"
_symmetry_int_tables_number       1

loop_
  _symmetry_equiv_pos_as_xyz
  'x, y, z'

loop_
  _atom_site_label
  _atom_site_occupancy
  _atom_site_fract_x
  _atom_site_fract_y
  _atom_site_fract_z
  _atom_site_thermal_displace_type
  _atom_site_B_iso_or_equiv
  _atom_site_type_symbol
  N1       1.0000 0.19810  0.86310  0.06250  Biso   1.000  N
  N2       1.0000 0.21920  0.94090  0.10910  Biso   1.000  N
  H1       1.0000 0.21460  0.96280  0.13420  Biso   1.000  H
  N3       1.0000 0.25400  0.95190  0.07060  Biso   1.000  N
  C1       1.0000 0.17920  0.81360  0.06000  Biso   1.000  C
  H2       1.0000 0.18740  0.79180  0.03210  Biso   1.000  H
  C2       1.0000 0.14600  0.79590  0.10170  Biso   1.000  C
  H3       1.0000 0.12700  0.76500  0.09880  Biso   1.000  H
  C3       1.0000 0.14300  0.82880  0.14990  Biso   1.000  C
  H4       1.0000 0.12670  0.81520  0.17940  Biso   1.000  H
  C4       1.0000 0.16260  0.87580  0.15210  Biso   1.000  C
  H5       1.0000 0.15770  0.89640  0.18160  Biso   1.000  H
  C5       1.0000 0.19170  0.89550  0.10820  Biso   1.000  C
  C6       1.0000 0.27410  0.00140  0.07070  Biso   1.000  C
  C7       1.0000 0.25120  0.04020  0.11320  Biso   1.000  C
  H6       1.0000 0.22430  0.02280  0.13280  Biso   1.000  H
  H7       1.0000 0.23660  0.07030  0.09610  Biso   1.000  H
  H8       1.0000 0.27860  0.05100  0.13640  Biso   1.000  H
  C8       1.0000 0.31550  0.01290  0.03620  Biso   1.000  C
  C9       1.0000 0.32230  0.06790  0.02450  Biso   1.000  C
  H9       1.0000 0.30050  0.09300  0.03910  Biso   1.000  H
  C10      1.0000 0.36270  0.08190  0.99050  Biso   1.000  C
  H10      1.0000 0.36670  0.11620  0.97920  Biso   1.000  H
  C11      1.0000 0.39480  0.04500  0.97510  Biso   1.000  C
  C12      1.0000 0.38760  0.98900  0.98560  Biso   1.000  C
  H11      1.0000 0.41030  0.96450  0.97100  Biso   1.000  H
  C13      1.0000 0.34910  0.97380  0.01550  Biso   1.000  C
  H12      1.0000 0.34390  0.93870  0.02310  Biso   1.000  H
  N4       1.0000 0.69810  0.36310  0.56250  Biso   1.000  N
  N5       1.0000 0.71920  0.44090  0.60910  Biso   1.000  N
  H13      1.0000 0.71460  0.46280  0.63420  Biso   1.000  H
  N6       1.0000 0.75400  0.45190  0.57060  Biso   1.000  N
  C14      1.0000 0.67920  0.31360  0.56000  Biso   1.000  C
  H14      1.0000 0.68740  0.29180  0.53210  Biso   1.000  H
  C15      1.0000 0.64600  0.29590  0.60170  Biso   1.000  C
  H15      1.0000 0.62700  0.26500  0.59880  Biso   1.000  H
  C16      1.0000 0.64300  0.32880  0.64990  Biso   1.000  C
  H16      1.0000 0.62670  0.31520  0.67940  Biso   1.000  H
  C17      1.0000 0.66260  0.37580  0.65210  Biso   1.000  C
  H17      1.0000 0.65770  0.39640  0.68160  Biso   1.000  H
  C18      1.0000 0.69170  0.39550  0.60820  Biso   1.000  C
  C19      1.0000 0.77410  0.50140  0.57070  Biso   1.000  C
  C20      1.0000 0.75120  0.54020  0.61320  Biso   1.000  C
  H18      1.0000 0.72430  0.52280  0.63280  Biso   1.000  H
  H19      1.0000 0.73660  0.57030  0.59610  Biso   1.000  H
  H20      1.0000 0.77860  0.55100  0.63640  Biso   1.000  H
  C21      1.0000 0.81550  0.51290  0.53620  Biso   1.000  C
  C22      1.0000 0.82230  0.56790  0.52450  Biso   1.000  C
  H21      1.0000 0.80050  0.59300  0.53910  Biso   1.000  H
  C23      1.0000 0.86270  0.58190  0.49050  Biso   1.000  C
  H22      1.0000 0.86670  0.61620  0.47920  Biso   1.000  H
  C24      1.0000 0.89480  0.54500  0.47510  Biso   1.000  C
  C25      1.0000 0.88760  0.48900  0.48560  Biso   1.000  C
  H23      1.0000 0.91030  0.46450  0.47100  Biso   1.000  H
  C26      1.0000 0.84910  0.47380  0.51550  Biso   1.000  C
  H24      1.0000 0.84390  0.43870  0.52310  Biso   1.000  H
  N7       1.0000 0.30190  0.13690  0.56250  Biso   1.000  N
  N8       1.0000 0.28080  0.05910  0.60910  Biso   1.000  N
  H25      1.0000 0.28540  0.03720  0.63420  Biso   1.000  H
  N9       1.0000 0.24600  0.04810  0.57060  Biso   1.000  N
  C27      1.0000 0.32080  0.18640  0.56000  Biso   1.000  C
  H26      1.0000 0.31260  0.20820  0.53210  Biso   1.000  H
  C28      1.0000 0.35400  0.20410  0.60170  Biso   1.000  C
  H27      1.0000 0.37300  0.23500  0.59880  Biso   1.000  H
  C29      1.0000 0.35700  0.17120  0.64990  Biso   1.000  C
  H28      1.0000 0.37330  0.18480  0.67940  Biso   1.000  H
  C30      1.0000 0.33740  0.12420  0.65210  Biso   1.000  C
  H29      1.0000 0.34230  0.10360  0.68160  Biso   1.000  H
  C31      1.0000 0.30830  0.10450  0.60820  Biso   1.000  C
  C32      1.0000 0.22590  0.99860  0.57070  Biso   1.000  C
  C33      1.0000 0.24880  0.95980  0.61320  Biso   1.000  C
  H30      1.0000 0.27570  0.97720  0.63280  Biso   1.000  H
  H31      1.0000 0.26340  0.92970  0.59610  Biso   1.000  H
  H32      1.0000 0.22140  0.94900  0.63640  Biso   1.000  H
  C34      1.0000 0.18450  0.98710  0.53620  Biso   1.000  C
  C35      1.0000 0.17770  0.93210  0.52450  Biso   1.000  C
  H33      1.0000 0.19950  0.90700  0.53910  Biso   1.000  H
  C36      1.0000 0.13730  0.91810  0.49050  Biso   1.000  C
  H34      1.0000 0.13330  0.88380  0.47920  Biso   1.000  H
  C37      1.0000 0.10520  0.95500  0.47510  Biso   1.000  C
  C38      1.0000 0.11240  0.01100  0.48560  Biso   1.000  C
  H35      1.0000 0.08970  0.03550  0.47100  Biso   1.000  H
  C39      1.0000 0.15090  0.02620  0.51550  Biso   1.000  C
  H36      1.0000 0.15610  0.06130  0.52310  Biso   1.000  H
  N10      1.0000 0.80190  0.63690  0.06250  Biso   1.000  N
  N11      1.0000 0.78080  0.55910  0.10910  Biso   1.000  N
  H37      1.0000 0.78540  0.53720  0.13420  Biso   1.000  H
  N12      1.0000 0.74600  0.54810  0.07060  Biso   1.000  N
  C40      1.0000 0.82080  0.68640  0.06000  Biso   1.000  C
  H38      1.0000 0.81260  0.70820  0.03210  Biso   1.000  H
  C41      1.0000 0.85400  0.70410  0.10170  Biso   1.000  C
  H39      1.0000 0.87300  0.73500  0.09880  Biso   1.000  H
  C42      1.0000 0.85700  0.67120  0.14990  Biso   1.000  C
  H40      1.0000 0.87330  0.68480  0.17940  Biso   1.000  H
  C43      1.0000 0.83740  0.62420  0.15210  Biso   1.000  C
  H41      1.0000 0.84230  0.60360  0.18160  Biso   1.000  H
  C44      1.0000 0.80830  0.60450  0.10820  Biso   1.000  C
  C45      1.0000 0.72590  0.49860  0.07070  Biso   1.000  C
  C46      1.0000 0.74880  0.45980  0.11320  Biso   1.000  C
  H42      1.0000 0.77570  0.47720  0.13280  Biso   1.000  H
  H43      1.0000 0.76340  0.42970  0.09610  Biso   1.000  H
  H44      1.0000 0.72140  0.44900  0.13640  Biso   1.000  H
  C47      1.0000 0.68450  0.48710  0.03620  Biso   1.000  C
  C48      1.0000 0.67770  0.43210  0.02450  Biso   1.000  C
  H45      1.0000 0.69950  0.40700  0.03910  Biso   1.000  H
  C49      1.0000 0.63730  0.41810  0.99050  Biso   1.000  C
  H46      1.0000 0.63330  0.38380  0.97920  Biso   1.000  H
  C50      1.0000 0.60520  0.45500  0.97510  Biso   1.000  C
  C51      1.0000 0.61240  0.51100  0.98560  Biso   1.000  C
  H47      1.0000 0.58970  0.53550  0.97100  Biso   1.000  H
  C52      1.0000 0.65090  0.52620  0.01550  Biso   1.000  C
  H48      1.0000 0.65610  0.56130  0.02310  Biso   1.000  H
  N13      1.0000 0.80190  0.36310  0.43750  Biso   1.000  N
  N14      1.0000 0.78080  0.44090  0.39090  Biso   1.000  N
  H49      1.0000 0.78540  0.46280  0.36580  Biso   1.000  H
  N15      1.0000 0.74600  0.45190  0.42940  Biso   1.000  N
  C53      1.0000 0.82080  0.31360  0.44000  Biso   1.000  C
  H50      1.0000 0.81260  0.29180  0.46790  Biso   1.000  H
  C54      1.0000 0.85400  0.29590  0.39830  Biso   1.000  C
  H51      1.0000 0.87300  0.26500  0.40120  Biso   1.000  H
  C55      1.0000 0.85700  0.32880  0.35010  Biso   1.000  C
  H52      1.0000 0.87330  0.31520  0.32060  Biso   1.000  H
  C56      1.0000 0.83740  0.37580  0.34790  Biso   1.000  C
  H53      1.0000 0.84230  0.39640  0.31840  Biso   1.000  H
  C57      1.0000 0.80830  0.39550  0.39180  Biso   1.000  C
  C58      1.0000 0.72590  0.50140  0.42930  Biso   1.000  C
  C59      1.0000 0.74880  0.54020  0.38680  Biso   1.000  C
  H54      1.0000 0.77570  0.52280  0.36720  Biso   1.000  H
  H55      1.0000 0.76340  0.57030  0.40390  Biso   1.000  H
  H56      1.0000 0.72140  0.55100  0.36360  Biso   1.000  H
  C60      1.0000 0.68450  0.51290  0.46380  Biso   1.000  C
  C61      1.0000 0.67770  0.56790  0.47550  Biso   1.000  C
  H57      1.0000 0.69950  0.59300  0.46090  Biso   1.000  H
  C62      1.0000 0.63730  0.58190  0.50950  Biso   1.000  C
  H58      1.0000 0.63330  0.61620  0.52080  Biso   1.000  H
  C63      1.0000 0.60520  0.54500  0.52490  Biso   1.000  C
  C64      1.0000 0.61240  0.48900  0.51440  Biso   1.000  C
  H59      1.0000 0.58970  0.46450  0.52900  Biso   1.000  H
  C65      1.0000 0.65090  0.47380  0.48450  Biso   1.000  C
  H60      1.0000 0.65610  0.43870  0.47690  Biso   1.000  H
  N16      1.0000 0.30190  0.86310  0.93750  Biso   1.000  N
  N17      1.0000 0.28080  0.94090  0.89090  Biso   1.000  N
  H61      1.0000 0.28540  0.96280  0.86580  Biso   1.000  H
  N18      1.0000 0.24600  0.95190  0.92940  Biso   1.000  N
  C66      1.0000 0.32080  0.81360  0.94000  Biso   1.000  C
  H62      1.0000 0.31260  0.79180  0.96790  Biso   1.000  H
  C67      1.0000 0.35400  0.79590  0.89830  Biso   1.000  C
  H63      1.0000 0.37300  0.76500  0.90120  Biso   1.000  H
  C68      1.0000 0.35700  0.82880  0.85010  Biso   1.000  C
  H64      1.0000 0.37330  0.81520  0.82060  Biso   1.000  H
  C69      1.0000 0.33740  0.87580  0.84790  Biso   1.000  C
  H65      1.0000 0.34230  0.89640  0.81840  Biso   1.000  H
  C70      1.0000 0.30830  0.89550  0.89180  Biso   1.000  C
  C71      1.0000 0.22590  0.00140  0.92930  Biso   1.000  C
  C72      1.0000 0.24880  0.04020  0.88680  Biso   1.000  C
  H66      1.0000 0.27570  0.02280  0.86720  Biso   1.000  H
  H67      1.0000 0.26340  0.07030  0.90390  Biso   1.000  H
  H68      1.0000 0.22140  0.05100  0.86360  Biso   1.000  H
  C73      1.0000 0.18450  0.01290  0.96380  Biso   1.000  C
  C74      1.0000 0.17770  0.06790  0.97550  Biso   1.000  C
  H69      1.0000 0.19950  0.09300  0.96090  Biso   1.000  H
  C75      1.0000 0.13730  0.08190  0.00950  Biso   1.000  C
  H70      1.0000 0.13330  0.11620  0.02080  Biso   1.000  H
  C76      1.0000 0.10520  0.04500  0.02490  Biso   1.000  C
  C77      1.0000 0.11240  0.98900  0.01440  Biso   1.000  C
  H71      1.0000 0.08970  0.96450  0.02900  Biso   1.000  H
  C78      1.0000 0.15090  0.97380  0.98450  Biso   1.000  C
  H72      1.0000 0.15610  0.93870  0.97690  Biso   1.000  H
  N19      1.0000 0.69810  0.63690  0.93750  Biso   1.000  N
  N20      1.0000 0.71920  0.55910  0.89090  Biso   1.000  N
  H73      1.0000 0.71460  0.53720  0.86580  Biso   1.000  H
  N21      1.0000 0.75400  0.54810  0.92940  Biso   1.000  N
  C79      1.0000 0.67920  0.68640  0.94000  Biso   1.000  C
  H74      1.0000 0.68740  0.70820  0.96790  Biso   1.000  H
  C80      1.0000 0.64600  0.70410  0.89830  Biso   1.000  C
  H75      1.0000 0.62700  0.73500  0.90120  Biso   1.000  H
  C81      1.0000 0.64300  0.67120  0.85010  Biso   1.000  C
  H76      1.0000 0.62670  0.68480  0.82060  Biso   1.000  H
  C82      1.0000 0.66260  0.62420  0.84790  Biso   1.000  C
  H77      1.0000 0.65770  0.60360  0.81840  Biso   1.000  H
  C83      1.0000 0.69170  0.60450  0.89180  Biso   1.000  C
  C84      1.0000 0.77410  0.49860  0.92930  Biso   1.000  C
  C85      1.0000 0.75120  0.45980  0.88680  Biso   1.000  C
  H78      1.0000 0.72430  0.47720  0.86720  Biso   1.000  H
  H79      1.0000 0.73660  0.42970  0.90390  Biso   1.000  H
  H80      1.0000 0.77860  0.44900  0.86360  Biso   1.000  H
  C86      1.0000 0.81550  0.48710  0.96380  Biso   1.000  C
  C87      1.0000 0.82230  0.43210  0.97550  Biso   1.000  C
  H81      1.0000 0.80050  0.40700  0.96090  Biso   1.000  H
  C88      1.0000 0.86270  0.41810  0.00950  Biso   1.000  C
  H82      1.0000 0.86670  0.38380  0.02080  Biso   1.000  H
  C89      1.0000 0.89480  0.45500  0.02490  Biso   1.000  C
  C90      1.0000 0.88760  0.51100  0.01440  Biso   1.000  C
  H83      1.0000 0.91030  0.53550  0.02900  Biso   1.000  H
  C91      1.0000 0.84910  0.52620  0.98450  Biso   1.000  C
  H84      1.0000 0.84390  0.56130  0.97690  Biso   1.000  H
  N22      1.0000 0.19810  0.13690  0.43750  Biso   1.000  N
  N23      1.0000 0.21920  0.05910  0.39090  Biso   1.000  N
  H85      1.0000 0.21460  0.03720  0.36580  Biso   1.000  H
  N24      1.0000 0.25400  0.04810  0.42940  Biso   1.000  N
  C92      1.0000 0.17920  0.18640  0.44000  Biso   1.000  C
  H86      1.0000 0.18740  0.20820  0.46790  Biso   1.000  H
  C93      1.0000 0.14600  0.20410  0.39830  Biso   1.000  C
  H87      1.0000 0.12700  0.23500  0.40120  Biso   1.000  H
  C94      1.0000 0.14300  0.17120  0.35010  Biso   1.000  C
  H88      1.0000 0.12670  0.18480  0.32060  Biso   1.000  H
  C95      1.0000 0.16260  0.12420  0.34790  Biso   1.000  C
  H89      1.0000 0.15770  0.10360  0.31840  Biso   1.000  H
  C96      1.0000 0.19170  0.10450  0.39180  Biso   1.000  C
  C97      1.0000 0.27410  0.99860  0.42930  Biso   1.000  C
  C98      1.0000 0.25120  0.95980  0.38680  Biso   1.000  C
  H90      1.0000 0.22430  0.97720  0.36720  Biso   1.000  H
  H91      1.0000 0.23660  0.92970  0.40390  Biso   1.000  H
  H92      1.0000 0.27860  0.94900  0.36360  Biso   1.000  H
  C99      1.0000 0.31550  0.98710  0.46380  Biso   1.000  C
  C100     1.0000 0.32230  0.93210  0.47550  Biso   1.000  C
  H93      1.0000 0.30050  0.90700  0.46090  Biso   1.000  H
  C101     1.0000 0.36270  0.91810  0.50950  Biso   1.000  C
  H94      1.0000 0.36670  0.88380  0.52080  Biso   1.000  H
  C102     1.0000 0.39480  0.95500  0.52490  Biso   1.000  C
  C103     1.0000 0.38760  0.01100  0.51440  Biso   1.000  C
  H95      1.0000 0.41030  0.03550  0.52900  Biso   1.000  H
  C104     1.0000 0.34910  0.02620  0.48450  Biso   1.000  C
  H96      1.0000 0.34390  0.06130  0.47690  Biso   1.000  H
  N25      1.0000 0.06250  0.19810  0.86310  Biso   1.000  N
  N26      1.0000 0.10910  0.21920  0.94090  Biso   1.000  N
  H97      1.0000 0.13420  0.21460  0.96280  Biso   1.000  H
  N27      1.0000 0.07060  0.25400  0.95190  Biso   1.000  N
  C105     1.0000 0.06000  0.17920  0.81360  Biso   1.000  C
  H98      1.0000 0.03210  0.18740  0.79180  Biso   1.000  H
  C106     1.0000 0.10170  0.14600  0.79590  Biso   1.000  C
  H99      1.0000 0.09880  0.12700  0.76500  Biso   1.000  H
  C107     1.0000 0.14990  0.14300  0.82880  Biso   1.000  C
  H100     1.0000 0.17940  0.12670  0.81520  Biso   1.000  H
  C108     1.0000 0.15210  0.16260  0.87580  Biso   1.000  C
  H101     1.0000 0.18160  0.15770  0.89640  Biso   1.000  H
  C109     1.0000 0.10820  0.19170  0.89550  Biso   1.000  C
  C110     1.0000 0.07070  0.27410  0.00140  Biso   1.000  C
  C111     1.0000 0.11320  0.25120  0.04020  Biso   1.000  C
  H102     1.0000 0.13280  0.22430  0.02280  Biso   1.000  H
  H103     1.0000 0.09610  0.23660  0.07030  Biso   1.000  H
  H104     1.0000 0.13640  0.27860  0.05100  Biso   1.000  H
  C112     1.0000 0.03620  0.31550  0.01290  Biso   1.000  C
  C113     1.0000 0.02450  0.32230  0.06790  Biso   1.000  C
  H105     1.0000 0.03910  0.30050  0.09300  Biso   1.000  H
  C114     1.0000 0.99050  0.36270  0.08190  Biso   1.000  C
  H106     1.0000 0.97920  0.36670  0.11620  Biso   1.000  H
  C115     1.0000 0.97510  0.39480  0.04500  Biso   1.000  C
  C116     1.0000 0.98560  0.38760  0.98900  Biso   1.000  C
  H107     1.0000 0.97100  0.41030  0.96450  Biso   1.000  H
  C117     1.0000 0.01550  0.34910  0.97380  Biso   1.000  C
  H108     1.0000 0.02310  0.34390  0.93870  Biso   1.000  H
  N28      1.0000 0.56250  0.69810  0.36310  Biso   1.000  N
  N29      1.0000 0.60910  0.71920  0.44090  Biso   1.000  N
  H109     1.0000 0.63420  0.71460  0.46280  Biso   1.000  H
  N30      1.0000 0.57060  0.75400  0.45190  Biso   1.000  N
  C118     1.0000 0.56000  0.67920  0.31360  Biso   1.000  C
  H110     1.0000 0.53210  0.68740  0.29180  Biso   1.000  H
  C119     1.0000 0.60170  0.64600  0.29590  Biso   1.000  C
  H111     1.0000 0.59880  0.62700  0.26500  Biso   1.000  H
  C120     1.0000 0.64990  0.64300  0.32880  Biso   1.000  C
  H112     1.0000 0.67940  0.62670  0.31520  Biso   1.000  H
  C121     1.0000 0.65210  0.66260  0.37580  Biso   1.000  C
  H113     1.0000 0.68160  0.65770  0.39640  Biso   1.000  H
  C122     1.0000 0.60820  0.69170  0.39550  Biso   1.000  C
  C123     1.0000 0.57070  0.77410  0.50140  Biso   1.000  C
  C124     1.0000 0.61320  0.75120  0.54020  Biso   1.000  C
  H114     1.0000 0.63280  0.72430  0.52280  Biso   1.000  H
  H115     1.0000 0.59610  0.73660  0.57030  Biso   1.000  H
  H116     1.0000 0.63640  0.77860  0.55100  Biso   1.000  H
  C125     1.0000 0.53620  0.81550  0.51290  Biso   1.000  C
  C126     1.0000 0.52450  0.82230  0.56790  Biso   1.000  C
  H117     1.0000 0.53910  0.80050  0.59300  Biso   1.000  H
  C127     1.0000 0.49050  0.86270  0.58190  Biso   1.000  C
  H118     1.0000 0.47920  0.86670  0.61620  Biso   1.000  H
  C128     1.0000 0.47510  0.89480  0.54500  Biso   1.000  C
  C129     1.0000 0.48560  0.88760  0.48900  Biso   1.000  C
  H119     1.0000 0.47100  0.91030  0.46450  Biso   1.000  H
  C130     1.0000 0.51550  0.84910  0.47380  Biso   1.000  C
  H120     1.0000 0.52310  0.84390  0.43870  Biso   1.000  H
  N31      1.0000 0.56250  0.30190  0.13690  Biso   1.000  N
  N32      1.0000 0.60910  0.28080  0.05910  Biso   1.000  N
  H121     1.0000 0.63420  0.28540  0.03720  Biso   1.000  H
  N33      1.0000 0.57060  0.24600  0.04810  Biso   1.000  N
  C131     1.0000 0.56000  0.32080  0.18640  Biso   1.000  C
  H122     1.0000 0.53210  0.31260  0.20820  Biso   1.000  H
  C132     1.0000 0.60170  0.35400  0.20410  Biso   1.000  C
  H123     1.0000 0.59880  0.37300  0.23500  Biso   1.000  H
  C133     1.0000 0.64990  0.35700  0.17120  Biso   1.000  C
  H124     1.0000 0.67940  0.37330  0.18480  Biso   1.000  H
  C134     1.0000 0.65210  0.33740  0.12420  Biso   1.000  C
  H125     1.0000 0.68160  0.34230  0.10360  Biso   1.000  H
  C135     1.0000 0.60820  0.30830  0.10450  Biso   1.000  C
  C136     1.0000 0.57070  0.22590  0.99860  Biso   1.000  C
  C137     1.0000 0.61320  0.24880  0.95980  Biso   1.000  C
  H126     1.0000 0.63280  0.27570  0.97720  Biso   1.000  H
  H127     1.0000 0.59610  0.26340  0.92970  Biso   1.000  H
  H128     1.0000 0.63640  0.22140  0.94900  Biso   1.000  H
  C138     1.0000 0.53620  0.18450  0.98710  Biso   1.000  C
  C139     1.0000 0.52450  0.17770  0.93210  Biso   1.000  C
  H129     1.0000 0.53910  0.19950  0.90700  Biso   1.000  H
  C140     1.0000 0.49050  0.13730  0.91810  Biso   1.000  C
  H130     1.0000 0.47920  0.13330  0.88380  Biso   1.000  H
  C141     1.0000 0.47510  0.10520  0.95500  Biso   1.000  C
  C142     1.0000 0.48560  0.11240  0.01100  Biso   1.000  C
  H131     1.0000 0.47100  0.08970  0.03550  Biso   1.000  H
  C143     1.0000 0.51550  0.15090  0.02620  Biso   1.000  C
  H132     1.0000 0.52310  0.15610  0.06130  Biso   1.000  H
  N34      1.0000 0.06250  0.80190  0.63690  Biso   1.000  N
  N35      1.0000 0.10910  0.78080  0.55910  Biso   1.000  N
  H133     1.0000 0.13420  0.78540  0.53720  Biso   1.000  H
  N36      1.0000 0.07060  0.74600  0.54810  Biso   1.000  N
  C144     1.0000 0.06000  0.82080  0.68640  Biso   1.000  C
  H134     1.0000 0.03210  0.81260  0.70820  Biso   1.000  H
  C145     1.0000 0.10170  0.85400  0.70410  Biso   1.000  C
  H135     1.0000 0.09880  0.87300  0.73500  Biso   1.000  H
  C146     1.0000 0.14990  0.85700  0.67120  Biso   1.000  C
  H136     1.0000 0.17940  0.87330  0.68480  Biso   1.000  H
  C147     1.0000 0.15210  0.83740  0.62420  Biso   1.000  C
  H137     1.0000 0.18160  0.84230  0.60360  Biso   1.000  H
  C148     1.0000 0.10820  0.80830  0.60450  Biso   1.000  C
  C149     1.0000 0.07070  0.72590  0.49860  Biso   1.000  C
  C150     1.0000 0.11320  0.74880  0.45980  Biso   1.000  C
  H138     1.0000 0.13280  0.77570  0.47720  Biso   1.000  H
  H139     1.0000 0.09610  0.76340  0.42970  Biso   1.000  H
  H140     1.0000 0.13640  0.72140  0.44900  Biso   1.000  H
  C151     1.0000 0.03620  0.68450  0.48710  Biso   1.000  C
  C152     1.0000 0.02450  0.67770  0.43210  Biso   1.000  C
  H141     1.0000 0.03910  0.69950  0.40700  Biso   1.000  H
  C153     1.0000 0.99050  0.63730  0.41810  Biso   1.000  C
  H142     1.0000 0.97920  0.63330  0.38380  Biso   1.000  H
  C154     1.0000 0.97510  0.60520  0.45500  Biso   1.000  C
  C155     1.0000 0.98560  0.61240  0.51100  Biso   1.000  C
  H143     1.0000 0.97100  0.58970  0.53550  Biso   1.000  H
  C156     1.0000 0.01550  0.65090  0.52620  Biso   1.000  C
  H144     1.0000 0.02310  0.65610  0.56130  Biso   1.000  H
  N37      1.0000 0.43750  0.80190  0.36310  Biso   1.000  N
  N38      1.0000 0.39090  0.78080  0.44090  Biso   1.000  N
  H145     1.0000 0.36580  0.78540  0.46280  Biso   1.000  H
  N39      1.0000 0.42940  0.74600  0.45190  Biso   1.000  N
  C157     1.0000 0.44000  0.82080  0.31360  Biso   1.000  C
  H146     1.0000 0.46790  0.81260  0.29180  Biso   1.000  H
  C158     1.0000 0.39830  0.85400  0.29590  Biso   1.000  C
  H147     1.0000 0.40120  0.87300  0.26500  Biso   1.000  H
  C159     1.0000 0.35010  0.85700  0.32880  Biso   1.000  C
  H148     1.0000 0.32060  0.87330  0.31520  Biso   1.000  H
  C160     1.0000 0.34790  0.83740  0.37580  Biso   1.000  C
  H149     1.0000 0.31840  0.84230  0.39640  Biso   1.000  H
  C161     1.0000 0.39180  0.80830  0.39550  Biso   1.000  C
  C162     1.0000 0.42930  0.72590  0.50140  Biso   1.000  C
  C163     1.0000 0.38680  0.74880  0.54020  Biso   1.000  C
  H150     1.0000 0.36720  0.77570  0.52280  Biso   1.000  H
  H151     1.0000 0.40390  0.76340  0.57030  Biso   1.000  H
  H152     1.0000 0.36360  0.72140  0.55100  Biso   1.000  H
  C164     1.0000 0.46380  0.68450  0.51290  Biso   1.000  C
  C165     1.0000 0.47550  0.67770  0.56790  Biso   1.000  C
  H153     1.0000 0.46090  0.69950  0.59300  Biso   1.000  H
  C166     1.0000 0.50950  0.63730  0.58190  Biso   1.000  C
  H154     1.0000 0.52080  0.63330  0.61620  Biso   1.000  H
  C167     1.0000 0.52490  0.60520  0.54500  Biso   1.000  C
  C168     1.0000 0.51440  0.61240  0.48900  Biso   1.000  C
  H155     1.0000 0.52900  0.58970  0.46450  Biso   1.000  H
  C169     1.0000 0.48450  0.65090  0.47380  Biso   1.000  C
  H156     1.0000 0.47690  0.65610  0.43870  Biso   1.000  H
  N40      1.0000 0.93750  0.30190  0.86310  Biso   1.000  N
  N41      1.0000 0.89090  0.28080  0.94090  Biso   1.000  N
  H157     1.0000 0.86580  0.28540  0.96280  Biso   1.000  H
  N42      1.0000 0.92940  0.24600  0.95190  Biso   1.000  N
  C170     1.0000 0.94000  0.32080  0.81360  Biso   1.000  C
  H158     1.0000 0.96790  0.31260  0.79180  Biso   1.000  H
  C171     1.0000 0.89830  0.35400  0.79590  Biso   1.000  C
  H159     1.0000 0.90120  0.37300  0.76500  Biso   1.000  H
  C172     1.0000 0.85010  0.35700  0.82880  Biso   1.000  C
  H160     1.0000 0.82060  0.37330  0.81520  Biso   1.000  H
  C173     1.0000 0.84790  0.33740  0.87580  Biso   1.000  C
  H161     1.0000 0.81840  0.34230  0.89640  Biso   1.000  H
  C174     1.0000 0.89180  0.30830  0.89550  Biso   1.000  C
  C175     1.0000 0.92930  0.22590  0.00140  Biso   1.000  C
  C176     1.0000 0.88680  0.24880  0.04020  Biso   1.000  C
  H162     1.0000 0.86720  0.27570  0.02280  Biso   1.000  H
  H163     1.0000 0.90390  0.26340  0.07030  Biso   1.000  H
  H164     1.0000 0.86360  0.22140  0.05100  Biso   1.000  H
  C177     1.0000 0.96380  0.18450  0.01290  Biso   1.000  C
  C178     1.0000 0.97550  0.17770  0.06790  Biso   1.000  C
  H165     1.0000 0.96090  0.19950  0.09300  Biso   1.000  H
  C179     1.0000 0.00950  0.13730  0.08190  Biso   1.000  C
  H166     1.0000 0.02080  0.13330  0.11620  Biso   1.000  H
  C180     1.0000 0.02490  0.10520  0.04500  Biso   1.000  C
  C181     1.0000 0.01440  0.11240  0.98900  Biso   1.000  C
  H167     1.0000 0.02900  0.08970  0.96450  Biso   1.000  H
  C182     1.0000 0.98450  0.15090  0.97380  Biso   1.000  C
  H168     1.0000 0.97690  0.15610  0.93870  Biso   1.000  H
  N43      1.0000 0.93750  0.69810  0.63690  Biso   1.000  N
  N44      1.0000 0.89090  0.71920  0.55910  Biso   1.000  N
  H169     1.0000 0.86580  0.71460  0.53720  Biso   1.000  H
  N45      1.0000 0.92940  0.75400  0.54810  Biso   1.000  N
  C183     1.0000 0.94000  0.67920  0.68640  Biso   1.000  C
  H170     1.0000 0.96790  0.68740  0.70820  Biso   1.000  H
  C184     1.0000 0.89830  0.64600  0.70410  Biso   1.000  C
  H171     1.0000 0.90120  0.62700  0.73500  Biso   1.000  H
  C185     1.0000 0.85010  0.64300  0.67120  Biso   1.000  C
  H172     1.0000 0.82060  0.62670  0.68480  Biso   1.000  H
  C186     1.0000 0.84790  0.66260  0.62420  Biso   1.000  C
  H173     1.0000 0.81840  0.65770  0.60360  Biso   1.000  H
  C187     1.0000 0.89180  0.69170  0.60450  Biso   1.000  C
  C188     1.0000 0.92930  0.77410  0.49860  Biso   1.000  C
  C189     1.0000 0.88680  0.75120  0.45980  Biso   1.000  C
  H174     1.0000 0.86720  0.72430  0.47720  Biso   1.000  H
  H175     1.0000 0.90390  0.73660  0.42970  Biso   1.000  H
  H176     1.0000 0.86360  0.77860  0.44900  Biso   1.000  H
  C190     1.0000 0.96380  0.81550  0.48710  Biso   1.000  C
  C191     1.0000 0.97550  0.82230  0.43210  Biso   1.000  C
  H177     1.0000 0.96090  0.80050  0.40700  Biso   1.000  H
  C192     1.0000 0.00950  0.86270  0.41810  Biso   1.000  C
  H178     1.0000 0.02080  0.86670  0.38380  Biso   1.000  H
  C193     1.0000 0.02490  0.89480  0.45500  Biso   1.000  C
  C194     1.0000 0.01440  0.88760  0.51100  Biso   1.000  C
  H179     1.0000 0.02900  0.91030  0.53550  Biso   1.000  H
  C195     1.0000 0.98450  0.84910  0.52620  Biso   1.000  C
  H180     1.0000 0.97690  0.84390  0.56130  Biso   1.000  H
  N46      1.0000 0.43750  0.19810  0.13690  Biso   1.000  N
  N47      1.0000 0.39090  0.21920  0.05910  Biso   1.000  N
  H181     1.0000 0.36580  0.21460  0.03720  Biso   1.000  H
  N48      1.0000 0.42940  0.25400  0.04810  Biso   1.000  N
  C196     1.0000 0.44000  0.17920  0.18640  Biso   1.000  C
  H182     1.0000 0.46790  0.18740  0.20820  Biso   1.000  H
  C197     1.0000 0.39830  0.14600  0.20410  Biso   1.000  C
  H183     1.0000 0.40120  0.12700  0.23500  Biso   1.000  H
  C198     1.0000 0.35010  0.14300  0.17120  Biso   1.000  C
  H184     1.0000 0.32060  0.12670  0.18480  Biso   1.000  H
  C199     1.0000 0.34790  0.16260  0.12420  Biso   1.000  C
  H185     1.0000 0.31840  0.15770  0.10360  Biso   1.000  H
  C200     1.0000 0.39180  0.19170  0.10450  Biso   1.000  C
  C201     1.0000 0.42930  0.27410  0.99860  Biso   1.000  C
  C202     1.0000 0.38680  0.25120  0.95980  Biso   1.000  C
  H186     1.0000 0.36720  0.22430  0.97720  Biso   1.000  H
  H187     1.0000 0.40390  0.23660  0.92970  Biso   1.000  H
  H188     1.0000 0.36360  0.27860  0.94900  Biso   1.000  H
  C203     1.0000 0.46380  0.31550  0.98710  Biso   1.000  C
  C204     1.0000 0.47550  0.32230  0.93210  Biso   1.000  C
  H189     1.0000 0.46090  0.30050  0.90700  Biso   1.000  H
  C205     1.0000 0.50950  0.36270  0.91810  Biso   1.000  C
  H190     1.0000 0.52080  0.36670  0.88380  Biso   1.000  H
  C206     1.0000 0.52490  0.39480  0.95500  Biso   1.000  C
  C207     1.0000 0.51440  0.38760  0.01100  Biso   1.000  C
  H191     1.0000 0.52900  0.41030  0.03550  Biso   1.000  H
  C208     1.0000 0.48450  0.34910  0.02620  Biso   1.000  C
  H192     1.0000 0.47690  0.34390  0.06130  Biso   1.000  H
  N49      1.0000 0.86310  0.06250  0.19810  Biso   1.000  N
  N50      1.0000 0.94090  0.10910  0.21920  Biso   1.000  N
  H193     1.0000 0.96280  0.13420  0.21460  Biso   1.000  H
  N51      1.0000 0.95190  0.07060  0.25400  Biso   1.000  N
  C209     1.0000 0.81360  0.06000  0.17920  Biso   1.000  C
  H194     1.0000 0.79180  0.03210  0.18740  Biso   1.000  H
  C210     1.0000 0.79590  0.10170  0.14600  Biso   1.000  C
  H195     1.0000 0.76500  0.09880  0.12700  Biso   1.000  H
  C211     1.0000 0.82880  0.14990  0.14300  Biso   1.000  C
  H196     1.0000 0.81520  0.17940  0.12670  Biso   1.000  H
  C212     1.0000 0.87580  0.15210  0.16260  Biso   1.000  C
  H197     1.0000 0.89640  0.18160  0.15770  Biso   1.000  H
  C213     1.0000 0.89550  0.10820  0.19170  Biso   1.000  C
  C214     1.0000 0.00140  0.07070  0.27410  Biso   1.000  C
  C215     1.0000 0.04020  0.11320  0.25120  Biso   1.000  C
  H198     1.0000 0.02280  0.13280  0.22430  Biso   1.000  H
  H199     1.0000 0.07030  0.09610  0.23660  Biso   1.000  H
  H200     1.0000 0.05100  0.13640  0.27860  Biso   1.000  H
  C216     1.0000 0.01290  0.03620  0.31550  Biso   1.000  C
  C217     1.0000 0.06790  0.02450  0.32230  Biso   1.000  C
  H201     1.0000 0.09300  0.03910  0.30050  Biso   1.000  H
  C218     1.0000 0.08190  0.99050  0.36270  Biso   1.000  C
  H202     1.0000 0.11620  0.97920  0.36670  Biso   1.000  H
  C219     1.0000 0.04500  0.97510  0.39480  Biso   1.000  C
  C220     1.0000 0.98900  0.98560  0.38760  Biso   1.000  C
  H203     1.0000 0.96450  0.97100  0.41030  Biso   1.000  H
  C221     1.0000 0.97380  0.01550  0.34910  Biso   1.000  C
  H204     1.0000 0.93870  0.02310  0.34390  Biso   1.000  H
  N52      1.0000 0.36310  0.56250  0.69810  Biso   1.000  N
  N53      1.0000 0.44090  0.60910  0.71920  Biso   1.000  N
  H205     1.0000 0.46280  0.63420  0.71460  Biso   1.000  H
  N54      1.0000 0.45190  0.57060  0.75400  Biso   1.000  N
  C222     1.0000 0.31360  0.56000  0.67920  Biso   1.000  C
  H206     1.0000 0.29180  0.53210  0.68740  Biso   1.000  H
  C223     1.0000 0.29590  0.60170  0.64600  Biso   1.000  C
  H207     1.0000 0.26500  0.59880  0.62700  Biso   1.000  H
  C224     1.0000 0.32880  0.64990  0.64300  Biso   1.000  C
  H208     1.0000 0.31520  0.67940  0.62670  Biso   1.000  H
  C225     1.0000 0.37580  0.65210  0.66260  Biso   1.000  C
  H209     1.0000 0.39640  0.68160  0.65770  Biso   1.000  H
  C226     1.0000 0.39550  0.60820  0.69170  Biso   1.000  C
  C227     1.0000 0.50140  0.57070  0.77410  Biso   1.000  C
  C228     1.0000 0.54020  0.61320  0.75120  Biso   1.000  C
  H210     1.0000 0.52280  0.63280  0.72430  Biso   1.000  H
  H211     1.0000 0.57030  0.59610  0.73660  Biso   1.000  H
  H212     1.0000 0.55100  0.63640  0.77860  Biso   1.000  H
  C229     1.0000 0.51290  0.53620  0.81550  Biso   1.000  C
  C230     1.0000 0.56790  0.52450  0.82230  Biso   1.000  C
  H213     1.0000 0.59300  0.53910  0.80050  Biso   1.000  H
  C231     1.0000 0.58190  0.49050  0.86270  Biso   1.000  C
  H214     1.0000 0.61620  0.47920  0.86670  Biso   1.000  H
  C232     1.0000 0.54500  0.47510  0.89480  Biso   1.000  C
  C233     1.0000 0.48900  0.48560  0.88760  Biso   1.000  C
  H215     1.0000 0.46450  0.47100  0.91030  Biso   1.000  H
  C234     1.0000 0.47380  0.51550  0.84910  Biso   1.000  C
  H216     1.0000 0.43870  0.52310  0.84390  Biso   1.000  H
  N55      1.0000 0.13690  0.56250  0.30190  Biso   1.000  N
  N56      1.0000 0.05910  0.60910  0.28080  Biso   1.000  N
  H217     1.0000 0.03720  0.63420  0.28540  Biso   1.000  H
  N57      1.0000 0.04810  0.57060  0.24600  Biso   1.000  N
  C235     1.0000 0.18640  0.56000  0.32080  Biso   1.000  C
  H218     1.0000 0.20820  0.53210  0.31260  Biso   1.000  H
  C236     1.0000 0.20410  0.60170  0.35400  Biso   1.000  C
  H219     1.0000 0.23500  0.59880  0.37300  Biso   1.000  H
  C237     1.0000 0.17120  0.64990  0.35700  Biso   1.000  C
  H220     1.0000 0.18480  0.67940  0.37330  Biso   1.000  H
  C238     1.0000 0.12420  0.65210  0.33740  Biso   1.000  C
  H221     1.0000 0.10360  0.68160  0.34230  Biso   1.000  H
  C239     1.0000 0.10450  0.60820  0.30830  Biso   1.000  C
  C240     1.0000 0.99860  0.57070  0.22590  Biso   1.000  C
  C241     1.0000 0.95980  0.61320  0.24880  Biso   1.000  C
  H222     1.0000 0.97720  0.63280  0.27570  Biso   1.000  H
  H223     1.0000 0.92970  0.59610  0.26340  Biso   1.000  H
  H224     1.0000 0.94900  0.63640  0.22140  Biso   1.000  H
  C242     1.0000 0.98710  0.53620  0.18450  Biso   1.000  C
  C243     1.0000 0.93210  0.52450  0.17770  Biso   1.000  C
  H225     1.0000 0.90700  0.53910  0.19950  Biso   1.000  H
  C244     1.0000 0.91810  0.49050  0.13730  Biso   1.000  C
  H226     1.0000 0.88380  0.47920  0.13330  Biso   1.000  H
  C245     1.0000 0.95500  0.47510  0.10520  Biso   1.000  C
  C246     1.0000 0.01100  0.48560  0.11240  Biso   1.000  C
  H227     1.0000 0.03550  0.47100  0.08970  Biso   1.000  H
  C247     1.0000 0.02620  0.51550  0.15090  Biso   1.000  C
  H228     1.0000 0.06130  0.52310  0.15610  Biso   1.000  H
  N58      1.0000 0.63690  0.06250  0.80190  Biso   1.000  N
  N59      1.0000 0.55910  0.10910  0.78080  Biso   1.000  N
  H229     1.0000 0.53720  0.13420  0.78540  Biso   1.000  H
  N60      1.0000 0.54810  0.07060  0.74600  Biso   1.000  N
  C248     1.0000 0.68640  0.06000  0.82080  Biso   1.000  C
  H230     1.0000 0.70820  0.03210  0.81260  Biso   1.000  H
  C249     1.0000 0.70410  0.10170  0.85400  Biso   1.000  C
  H231     1.0000 0.73500  0.09880  0.87300  Biso   1.000  H
  C250     1.0000 0.67120  0.14990  0.85700  Biso   1.000  C
  H232     1.0000 0.68480  0.17940  0.87330  Biso   1.000  H
  C251     1.0000 0.62420  0.15210  0.83740  Biso   1.000  C
  H233     1.0000 0.60360  0.18160  0.84230  Biso   1.000  H
  C252     1.0000 0.60450  0.10820  0.80830  Biso   1.000  C
  C253     1.0000 0.49860  0.07070  0.72590  Biso   1.000  C
  C254     1.0000 0.45980  0.11320  0.74880  Biso   1.000  C
  H234     1.0000 0.47720  0.13280  0.77570  Biso   1.000  H
  H235     1.0000 0.42970  0.09610  0.76340  Biso   1.000  H
  H236     1.0000 0.44900  0.13640  0.72140  Biso   1.000  H
  C255     1.0000 0.48710  0.03620  0.68450  Biso   1.000  C
  C256     1.0000 0.43210  0.02450  0.67770  Biso   1.000  C
  H237     1.0000 0.40700  0.03910  0.69950  Biso   1.000  H
  C257     1.0000 0.41810  0.99050  0.63730  Biso   1.000  C
  H238     1.0000 0.38380  0.97920  0.63330  Biso   1.000  H
  C258     1.0000 0.45500  0.97510  0.60520  Biso   1.000  C
  C259     1.0000 0.51100  0.98560  0.61240  Biso   1.000  C
  H239     1.0000 0.53550  0.97100  0.58970  Biso   1.000  H
  C260     1.0000 0.52620  0.01550  0.65090  Biso   1.000  C
  H240     1.0000 0.56130  0.02310  0.65610  Biso   1.000  H
  N61      1.0000 0.36310  0.43750  0.80190  Biso   1.000  N
  N62      1.0000 0.44090  0.39090  0.78080  Biso   1.000  N
  H241     1.0000 0.46280  0.36580  0.78540  Biso   1.000  H
  N63      1.0000 0.45190  0.42940  0.74600  Biso   1.000  N
  C261     1.0000 0.31360  0.44000  0.82080  Biso   1.000  C
  H242     1.0000 0.29180  0.46790  0.81260  Biso   1.000  H
  C262     1.0000 0.29590  0.39830  0.85400  Biso   1.000  C
  H243     1.0000 0.26500  0.40120  0.87300  Biso   1.000  H
  C263     1.0000 0.32880  0.35010  0.85700  Biso   1.000  C
  H244     1.0000 0.31520  0.32060  0.87330  Biso   1.000  H
  C264     1.0000 0.37580  0.34790  0.83740  Biso   1.000  C
  H245     1.0000 0.39640  0.31840  0.84230  Biso   1.000  H
  C265     1.0000 0.39550  0.39180  0.80830  Biso   1.000  C
  C266     1.0000 0.50140  0.42930  0.72590  Biso   1.000  C
  C267     1.0000 0.54020  0.38680  0.74880  Biso   1.000  C
  H246     1.0000 0.52280  0.36720  0.77570  Biso   1.000  H
  H247     1.0000 0.57030  0.40390  0.76340  Biso   1.000  H
  H248     1.0000 0.55100  0.36360  0.72140  Biso   1.000  H
  C268     1.0000 0.51290  0.46380  0.68450  Biso   1.000  C
  C269     1.0000 0.56790  0.47550  0.67770  Biso   1.000  C
  H249     1.0000 0.59300  0.46090  0.69950  Biso   1.000  H
  C270     1.0000 0.58190  0.50950  0.63730  Biso   1.000  C
  H250     1.0000 0.61620  0.52080  0.63330  Biso   1.000  H
  C271     1.0000 0.54500  0.52490  0.60520  Biso   1.000  C
  C272     1.0000 0.48900  0.51440  0.61240  Biso   1.000  C
  H251     1.0000 0.46450  0.52900  0.58970  Biso   1.000  H
  C273     1.0000 0.47380  0.48450  0.65090  Biso   1.000  C
  H252     1.0000 0.43870  0.47690  0.65610  Biso   1.000  H
  N64      1.0000 0.86310  0.93750  0.30190  Biso   1.000  N
  N65      1.0000 0.94090  0.89090  0.28080  Biso   1.000  N
  H253     1.0000 0.96280  0.86580  0.28540  Biso   1.000  H
  N66      1.0000 0.95190  0.92940  0.24600  Biso   1.000  N
  C274     1.0000 0.81360  0.94000  0.32080  Biso   1.000  C
  H254     1.0000 0.79180  0.96790  0.31260  Biso   1.000  H
  C275     1.0000 0.79590  0.89830  0.35400  Biso   1.000  C
  H255     1.0000 0.76500  0.90120  0.37300  Biso   1.000  H
  C276     1.0000 0.82880  0.85010  0.35700  Biso   1.000  C
  H256     1.0000 0.81520  0.82060  0.37330  Biso   1.000  H
  C277     1.0000 0.87580  0.84790  0.33740  Biso   1.000  C
  H257     1.0000 0.89640  0.81840  0.34230  Biso   1.000  H
  C278     1.0000 0.89550  0.89180  0.30830  Biso   1.000  C
  C279     1.0000 0.00140  0.92930  0.22590  Biso   1.000  C
  C280     1.0000 0.04020  0.88680  0.24880  Biso   1.000  C
  H258     1.0000 0.02280  0.86720  0.27570  Biso   1.000  H
  H259     1.0000 0.07030  0.90390  0.26340  Biso   1.000  H
  H260     1.0000 0.05100  0.86360  0.22140  Biso   1.000  H
  C281     1.0000 0.01290  0.96380  0.18450  Biso   1.000  C
  C282     1.0000 0.06790  0.97550  0.17770  Biso   1.000  C
  H261     1.0000 0.09300  0.96090  0.19950  Biso   1.000  H
  C283     1.0000 0.08190  0.00950  0.13730  Biso   1.000  C
  H262     1.0000 0.11620  0.02080  0.13330  Biso   1.000  H
  C284     1.0000 0.04500  0.02490  0.10520  Biso   1.000  C
  C285     1.0000 0.98900  0.01440  0.11240  Biso   1.000  C
  H263     1.0000 0.96450  0.02900  0.08970  Biso   1.000  H
  C286     1.0000 0.97380  0.98450  0.15090  Biso   1.000  C
  H264     1.0000 0.93870  0.97690  0.15610  Biso   1.000  H
  N67      1.0000 0.63690  0.93750  0.69810  Biso   1.000  N
  N68      1.0000 0.55910  0.89090  0.71920  Biso   1.000  N
  H265     1.0000 0.53720  0.86580  0.71460  Biso   1.000  H
  N69      1.0000 0.54810  0.92940  0.75400  Biso   1.000  N
  C287     1.0000 0.68640  0.94000  0.67920  Biso   1.000  C
  H266     1.0000 0.70820  0.96790  0.68740  Biso   1.000  H
  C288     1.0000 0.70410  0.89830  0.64600  Biso   1.000  C
  H267     1.0000 0.73500  0.90120  0.62700  Biso   1.000  H
  C289     1.0000 0.67120  0.85010  0.64300  Biso   1.000  C
  H268     1.0000 0.68480  0.82060  0.62670  Biso   1.000  H
  C290     1.0000 0.62420  0.84790  0.66260  Biso   1.000  C
  H269     1.0000 0.60360  0.81840  0.65770  Biso   1.000  H
  C291     1.0000 0.60450  0.89180  0.69170  Biso   1.000  C
  C292     1.0000 0.49860  0.92930  0.77410  Biso   1.000  C
  C293     1.0000 0.45980  0.88680  0.75120  Biso   1.000  C
  H270     1.0000 0.47720  0.86720  0.72430  Biso   1.000  H
  H271     1.0000 0.42970  0.90390  0.73660  Biso   1.000  H
  H272     1.0000 0.44900  0.86360  0.77860  Biso   1.000  H
  C294     1.0000 0.48710  0.96380  0.81550  Biso   1.000  C
  C295     1.0000 0.43210  0.97550  0.82230  Biso   1.000  C
  H273     1.0000 0.40700  0.96090  0.80050  Biso   1.000  H
  C296     1.0000 0.41810  0.00950  0.86270  Biso   1.000  C
  H274     1.0000 0.38380  0.02080  0.86670  Biso   1.000  H
  C297     1.0000 0.45500  0.02490  0.89480  Biso   1.000  C
  C298     1.0000 0.51100  0.01440  0.88760  Biso   1.000  C
  H275     1.0000 0.53550  0.02900  0.91030  Biso   1.000  H
  C299     1.0000 0.52620  0.98450  0.84910  Biso   1.000  C
  H276     1.0000 0.56130  0.97690  0.84390  Biso   1.000  H
  N70      1.0000 0.13690  0.43750  0.19810  Biso   1.000  N
  N71      1.0000 0.05910  0.39090  0.21920  Biso   1.000  N
  H277     1.0000 0.03720  0.36580  0.21460  Biso   1.000  H
  N72      1.0000 0.04810  0.42940  0.25400  Biso   1.000  N
  C300     1.0000 0.18640  0.44000  0.17920  Biso   1.000  C
  H278     1.0000 0.20820  0.46790  0.18740  Biso   1.000  H
  C301     1.0000 0.20410  0.39830  0.14600  Biso   1.000  C
  H279     1.0000 0.23500  0.40120  0.12700  Biso   1.000  H
  C302     1.0000 0.17120  0.35010  0.14300  Biso   1.000  C
  H280     1.0000 0.18480  0.32060  0.12670  Biso   1.000  H
  C303     1.0000 0.12420  0.34790  0.16260  Biso   1.000  C
  H281     1.0000 0.10360  0.31840  0.15770  Biso   1.000  H
  C304     1.0000 0.10450  0.39180  0.19170  Biso   1.000  C
  C305     1.0000 0.99860  0.42930  0.27410  Biso   1.000  C
  C306     1.0000 0.95980  0.38680  0.25120  Biso   1.000  C
  H282     1.0000 0.97720  0.36720  0.22430  Biso   1.000  H
  H283     1.0000 0.92970  0.40390  0.23660  Biso   1.000  H
  H284     1.0000 0.94900  0.36360  0.27860  Biso   1.000  H
  C307     1.0000 0.98710  0.46380  0.31550  Biso   1.000  C
  C308     1.0000 0.93210  0.47550  0.32230  Biso   1.000  C
  H285     1.0000 0.90700  0.46090  0.30050  Biso   1.000  H
  C309     1.0000 0.91810  0.50950  0.36270  Biso   1.000  C
  H286     1.0000 0.88380  0.52080  0.36670  Biso   1.000  H
  C310     1.0000 0.95500  0.52490  0.39480  Biso   1.000  C
  C311     1.0000 0.01100  0.51440  0.38760  Biso   1.000  C
  H287     1.0000 0.03550  0.52900  0.41030  Biso   1.000  H
  C312     1.0000 0.02620  0.48450  0.34910  Biso   1.000  C
  H288     1.0000 0.06130  0.47690  0.34390  Biso   1.000  H
  Ag1      1.0000 0.25000  0.89133  0.00000  Biso   1.000  Ag
  Ag2      1.0000 0.25000  0.10867  0.50000  Biso   1.000  Ag
  Ag3      1.0000 0.75000  0.39133  0.50000  Biso   1.000  Ag
  Ag4      1.0000 0.75000  0.60867  0.00000  Biso   1.000  Ag
  Ag5      1.0000 0.00000  0.25000  0.89133  Biso   1.000  Ag
  Ag6      1.0000 0.50000  0.25000  0.10867  Biso   1.000  Ag
  Ag7      1.0000 0.50000  0.75000  0.39133  Biso   1.000  Ag
  Ag8      1.0000 0.00000  0.75000  0.60867  Biso   1.000  Ag
  Ag9      1.0000 0.89133  0.00000  0.25000  Biso   1.000  Ag
  Ag10     1.0000 0.10867  0.50000  0.25000  Biso   1.000  Ag
  Ag11     1.0000 0.39133  0.50000  0.75000  Biso   1.000  Ag
  Ag12     1.0000 0.60867  0.00000  0.75000  Biso   1.000  Ag
  N73      1.0000 0.44040  0.05960  0.94040  Biso   1.000  N
  N74      1.0000 0.94040  0.55960  0.44040  Biso   1.000  N
  N75      1.0000 0.05960  0.94040  0.44040  Biso   1.000  N
  N76      1.0000 0.55960  0.44040  0.94040  Biso   1.000  N
  N77      1.0000 0.55960  0.55960  0.55960  Biso   1.000  N
  N78      1.0000 0.05960  0.05960  0.05960  Biso   1.000  N
  N79      1.0000 0.94040  0.44040  0.05960  Biso   1.000  N
  N80      1.0000 0.44040  0.94040  0.55960  Biso   1.000  N
