data_image0
_cell_length_a       25.5824
_cell_length_b       25.5824
_cell_length_c       25.5824
_cell_angle_alpha    90
_cell_angle_beta     90
_cell_angle_gamma    90

_symmetry_space_group_name_H-M    "P 1"
_symmetry_int_tables_number       1

loop_
  _symmetry_equiv_pos_as_xyz
  'x, y, z'

loop_
  _atom_site_label
  _atom_site_occupancy
  _atom_site_fract_x
  _atom_site_fract_y
  _atom_site_fract_z
  _atom_site_thermal_displace_type
  _atom_site_B_iso_or_equiv
  _atom_site_type_symbol
  N1       1.0000 0.80270  0.86290  0.55960  Biso   1.000  N
  N2       1.0000 0.78100  0.93800  0.60920  Biso   1.000  N
  N3       1.0000 0.74530  0.95240  0.57110  Biso   1.000  N
  C1       1.0000 0.82420  0.81440  0.56390  Biso   1.000  C
  H1       1.0000 0.81790  0.79170  0.53610  Biso   1.000  H
  C2       1.0000 0.85190  0.79620  0.60110  Biso   1.000  C
  H2       1.0000 0.86970  0.76460  0.59830  Biso   1.000  H
  C3       1.0000 0.85390  0.82520  0.64430  Biso   1.000  C
  H3       1.0000 0.87030  0.81110  0.67350  Biso   1.000  H
  C4       1.0000 0.83370  0.87330  0.64870  Biso   1.000  C
  H4       1.0000 0.83700  0.89340  0.67890  Biso   1.000  H
  C5       1.0000 0.80630  0.89150  0.60260  Biso   1.000  C
  C6       1.0000 0.72830  0.00120  0.57230  Biso   1.000  C
  C7       1.0000 0.75070  0.04110  0.60940  Biso   1.000  C
  H5       1.0000 0.77870  0.02560  0.62900  Biso   1.000  H
  H6       1.0000 0.72390  0.05270  0.63290  Biso   1.000  H
  H7       1.0000 0.76380  0.07030  0.58990  Biso   1.000  H
  C8       1.0000 0.68680  0.01730  0.54040  Biso   1.000  C
  C9       1.0000 0.67740  0.07060  0.52130  Biso   1.000  C
  H8       1.0000 0.70040  0.09700  0.53120  Biso   1.000  H
  C10      1.0000 0.63600  0.08330  0.48920  Biso   1.000  C
  H9       1.0000 0.62950  0.11780  0.47990  Biso   1.000  H
  C11      1.0000 0.60680  0.04670  0.47270  Biso   1.000  C
  C12      1.0000 0.60750  0.99010  0.48340  Biso   1.000  C
  H10      1.0000 0.58390  0.96590  0.47010  Biso   1.000  H
  C13      1.0000 0.64940  0.97860  0.51660  Biso   1.000  C
  H11      1.0000 0.65460  0.94360  0.52480  Biso   1.000  H
  N4       1.0000 0.30270  0.36290  0.05960  Biso   1.000  N
  N5       1.0000 0.28100  0.43800  0.10920  Biso   1.000  N
  N6       1.0000 0.24530  0.45240  0.07110  Biso   1.000  N
  C14      1.0000 0.32420  0.31440  0.06390  Biso   1.000  C
  H12      1.0000 0.31790  0.29170  0.03610  Biso   1.000  H
  C15      1.0000 0.35190  0.29620  0.10110  Biso   1.000  C
  H13      1.0000 0.36970  0.26460  0.09830  Biso   1.000  H
  C16      1.0000 0.35390  0.32520  0.14430  Biso   1.000  C
  H14      1.0000 0.37030  0.31110  0.17350  Biso   1.000  H
  C17      1.0000 0.33370  0.37330  0.14870  Biso   1.000  C
  H15      1.0000 0.33700  0.39340  0.17890  Biso   1.000  H
  C18      1.0000 0.30630  0.39150  0.10260  Biso   1.000  C
  C19      1.0000 0.22830  0.50120  0.07230  Biso   1.000  C
  C20      1.0000 0.25070  0.54110  0.10940  Biso   1.000  C
  H16      1.0000 0.27870  0.52560  0.12900  Biso   1.000  H
  H17      1.0000 0.22390  0.55270  0.13290  Biso   1.000  H
  H18      1.0000 0.26380  0.57030  0.08990  Biso   1.000  H
  C21      1.0000 0.18680  0.51730  0.04040  Biso   1.000  C
  C22      1.0000 0.17740  0.57060  0.02130  Biso   1.000  C
  H19      1.0000 0.20040  0.59700  0.03120  Biso   1.000  H
  C23      1.0000 0.13600  0.58330  0.98920  Biso   1.000  C
  H20      1.0000 0.12950  0.61780  0.97990  Biso   1.000  H
  C24      1.0000 0.10680  0.54670  0.97270  Biso   1.000  C
  C25      1.0000 0.10750  0.49010  0.98340  Biso   1.000  C
  H21      1.0000 0.08390  0.46590  0.97010  Biso   1.000  H
  C26      1.0000 0.14940  0.47860  0.01660  Biso   1.000  C
  H22      1.0000 0.15460  0.44360  0.02480  Biso   1.000  H
  N7       1.0000 0.69730  0.13710  0.05960  Biso   1.000  N
  N8       1.0000 0.71900  0.06200  0.10920  Biso   1.000  N
  N9       1.0000 0.75470  0.04760  0.07110  Biso   1.000  N
  C27      1.0000 0.67580  0.18560  0.06390  Biso   1.000  C
  H23      1.0000 0.68210  0.20830  0.03610  Biso   1.000  H
  C28      1.0000 0.64810  0.20380  0.10110  Biso   1.000  C
  H24      1.0000 0.63030  0.23540  0.09830  Biso   1.000  H
  C29      1.0000 0.64610  0.17480  0.14430  Biso   1.000  C
  H25      1.0000 0.62970  0.18890  0.17350  Biso   1.000  H
  C30      1.0000 0.66630  0.12670  0.14870  Biso   1.000  C
  H26      1.0000 0.66300  0.10660  0.17890  Biso   1.000  H
  C31      1.0000 0.69370  0.10850  0.10260  Biso   1.000  C
  C32      1.0000 0.77170  0.99880  0.07230  Biso   1.000  C
  C33      1.0000 0.74930  0.95890  0.10940  Biso   1.000  C
  H27      1.0000 0.72130  0.97440  0.12900  Biso   1.000  H
  H28      1.0000 0.77610  0.94730  0.13290  Biso   1.000  H
  H29      1.0000 0.73620  0.92970  0.08990  Biso   1.000  H
  C34      1.0000 0.81320  0.98270  0.04040  Biso   1.000  C
  C35      1.0000 0.82260  0.92940  0.02130  Biso   1.000  C
  H30      1.0000 0.79960  0.90300  0.03120  Biso   1.000  H
  C36      1.0000 0.86400  0.91670  0.98920  Biso   1.000  C
  H31      1.0000 0.87050  0.88220  0.97990  Biso   1.000  H
  C37      1.0000 0.89320  0.95330  0.97270  Biso   1.000  C
  C38      1.0000 0.89250  0.00990  0.98340  Biso   1.000  C
  H32      1.0000 0.91610  0.03410  0.97010  Biso   1.000  H
  C39      1.0000 0.85060  0.02140  0.01660  Biso   1.000  C
  H33      1.0000 0.84540  0.05640  0.02480  Biso   1.000  H
  N10      1.0000 0.19730  0.63710  0.55960  Biso   1.000  N
  N11      1.0000 0.21900  0.56200  0.60920  Biso   1.000  N
  N12      1.0000 0.25470  0.54760  0.57110  Biso   1.000  N
  C40      1.0000 0.17580  0.68560  0.56390  Biso   1.000  C
  H34      1.0000 0.18210  0.70830  0.53610  Biso   1.000  H
  C41      1.0000 0.14810  0.70380  0.60110  Biso   1.000  C
  H35      1.0000 0.13030  0.73540  0.59830  Biso   1.000  H
  C42      1.0000 0.14610  0.67480  0.64430  Biso   1.000  C
  H36      1.0000 0.12970  0.68890  0.67350  Biso   1.000  H
  C43      1.0000 0.16630  0.62670  0.64870  Biso   1.000  C
  H37      1.0000 0.16300  0.60660  0.67890  Biso   1.000  H
  C44      1.0000 0.19370  0.60850  0.60260  Biso   1.000  C
  C45      1.0000 0.27170  0.49880  0.57230  Biso   1.000  C
  C46      1.0000 0.24930  0.45890  0.60940  Biso   1.000  C
  H38      1.0000 0.22130  0.47440  0.62900  Biso   1.000  H
  H39      1.0000 0.27610  0.44730  0.63290  Biso   1.000  H
  H40      1.0000 0.23620  0.42970  0.58990  Biso   1.000  H
  C47      1.0000 0.31320  0.48270  0.54040  Biso   1.000  C
  C48      1.0000 0.32260  0.42940  0.52130  Biso   1.000  C
  H41      1.0000 0.29960  0.40300  0.53120  Biso   1.000  H
  C49      1.0000 0.36400  0.41670  0.48920  Biso   1.000  C
  H42      1.0000 0.37050  0.38220  0.47990  Biso   1.000  H
  C50      1.0000 0.39320  0.45330  0.47270  Biso   1.000  C
  C51      1.0000 0.39250  0.50990  0.48340  Biso   1.000  C
  H43      1.0000 0.41610  0.53410  0.47010  Biso   1.000  H
  C52      1.0000 0.35060  0.52140  0.51660  Biso   1.000  C
  H44      1.0000 0.34540  0.55640  0.52480  Biso   1.000  H
  N13      1.0000 0.19730  0.36290  0.94040  Biso   1.000  N
  N14      1.0000 0.21900  0.43800  0.89080  Biso   1.000  N
  N15      1.0000 0.25470  0.45240  0.92890  Biso   1.000  N
  C53      1.0000 0.17580  0.31440  0.93610  Biso   1.000  C
  H45      1.0000 0.18210  0.29170  0.96390  Biso   1.000  H
  C54      1.0000 0.14810  0.29620  0.89890  Biso   1.000  C
  H46      1.0000 0.13030  0.26460  0.90170  Biso   1.000  H
  C55      1.0000 0.14610  0.32520  0.85570  Biso   1.000  C
  H47      1.0000 0.12970  0.31110  0.82650  Biso   1.000  H
  C56      1.0000 0.16630  0.37330  0.85130  Biso   1.000  C
  H48      1.0000 0.16300  0.39340  0.82110  Biso   1.000  H
  C57      1.0000 0.19370  0.39150  0.89740  Biso   1.000  C
  C58      1.0000 0.27170  0.50120  0.92770  Biso   1.000  C
  C59      1.0000 0.24930  0.54110  0.89060  Biso   1.000  C
  H49      1.0000 0.22130  0.52560  0.87100  Biso   1.000  H
  H50      1.0000 0.27610  0.55270  0.86710  Biso   1.000  H
  H51      1.0000 0.23620  0.57030  0.91010  Biso   1.000  H
  C60      1.0000 0.31320  0.51730  0.95960  Biso   1.000  C
  C61      1.0000 0.32260  0.57060  0.97870  Biso   1.000  C
  H52      1.0000 0.29960  0.59700  0.96880  Biso   1.000  H
  C62      1.0000 0.36400  0.58330  0.01080  Biso   1.000  C
  H53      1.0000 0.37050  0.61780  0.02010  Biso   1.000  H
  C63      1.0000 0.39320  0.54670  0.02730  Biso   1.000  C
  C64      1.0000 0.39250  0.49010  0.01660  Biso   1.000  C
  H54      1.0000 0.41610  0.46590  0.02990  Biso   1.000  H
  C65      1.0000 0.35060  0.47860  0.98340  Biso   1.000  C
  H55      1.0000 0.34540  0.44360  0.97520  Biso   1.000  H
  N16      1.0000 0.69730  0.86290  0.44040  Biso   1.000  N
  N17      1.0000 0.71900  0.93800  0.39080  Biso   1.000  N
  N18      1.0000 0.75470  0.95240  0.42890  Biso   1.000  N
  C66      1.0000 0.67580  0.81440  0.43610  Biso   1.000  C
  H56      1.0000 0.68210  0.79170  0.46390  Biso   1.000  H
  C67      1.0000 0.64810  0.79620  0.39890  Biso   1.000  C
  H57      1.0000 0.63030  0.76460  0.40170  Biso   1.000  H
  C68      1.0000 0.64610  0.82520  0.35570  Biso   1.000  C
  H58      1.0000 0.62970  0.81110  0.32650  Biso   1.000  H
  C69      1.0000 0.66630  0.87330  0.35130  Biso   1.000  C
  H59      1.0000 0.66300  0.89340  0.32110  Biso   1.000  H
  C70      1.0000 0.69370  0.89150  0.39740  Biso   1.000  C
  C71      1.0000 0.77170  0.00120  0.42770  Biso   1.000  C
  C72      1.0000 0.74930  0.04110  0.39060  Biso   1.000  C
  H60      1.0000 0.72130  0.02560  0.37100  Biso   1.000  H
  H61      1.0000 0.77610  0.05270  0.36710  Biso   1.000  H
  H62      1.0000 0.73620  0.07030  0.41010  Biso   1.000  H
  C73      1.0000 0.81320  0.01730  0.45960  Biso   1.000  C
  C74      1.0000 0.82260  0.07060  0.47870  Biso   1.000  C
  H63      1.0000 0.79960  0.09700  0.46880  Biso   1.000  H
  C75      1.0000 0.86400  0.08330  0.51080  Biso   1.000  C
  H64      1.0000 0.87050  0.11780  0.52010  Biso   1.000  H
  C76      1.0000 0.89320  0.04670  0.52730  Biso   1.000  C
  C77      1.0000 0.89250  0.99010  0.51660  Biso   1.000  C
  H65      1.0000 0.91610  0.96590  0.52990  Biso   1.000  H
  C78      1.0000 0.85060  0.97860  0.48340  Biso   1.000  C
  H66      1.0000 0.84540  0.94360  0.47520  Biso   1.000  H
  N19      1.0000 0.30270  0.63710  0.44040  Biso   1.000  N
  N20      1.0000 0.28100  0.56200  0.39080  Biso   1.000  N
  N21      1.0000 0.24530  0.54760  0.42890  Biso   1.000  N
  C79      1.0000 0.32420  0.68560  0.43610  Biso   1.000  C
  H67      1.0000 0.31790  0.70830  0.46390  Biso   1.000  H
  C80      1.0000 0.35190  0.70380  0.39890  Biso   1.000  C
  H68      1.0000 0.36970  0.73540  0.40170  Biso   1.000  H
  C81      1.0000 0.35390  0.67480  0.35570  Biso   1.000  C
  H69      1.0000 0.37030  0.68890  0.32650  Biso   1.000  H
  C82      1.0000 0.33370  0.62670  0.35130  Biso   1.000  C
  H70      1.0000 0.33700  0.60660  0.32110  Biso   1.000  H
  C83      1.0000 0.30630  0.60850  0.39740  Biso   1.000  C
  C84      1.0000 0.22830  0.49880  0.42770  Biso   1.000  C
  C85      1.0000 0.25070  0.45890  0.39060  Biso   1.000  C
  H71      1.0000 0.27870  0.47440  0.37100  Biso   1.000  H
  H72      1.0000 0.22390  0.44730  0.36710  Biso   1.000  H
  H73      1.0000 0.26380  0.42970  0.41010  Biso   1.000  H
  C86      1.0000 0.18680  0.48270  0.45960  Biso   1.000  C
  C87      1.0000 0.17740  0.42940  0.47870  Biso   1.000  C
  H74      1.0000 0.20040  0.40300  0.46880  Biso   1.000  H
  C88      1.0000 0.13600  0.41670  0.51080  Biso   1.000  C
  H75      1.0000 0.12950  0.38220  0.52010  Biso   1.000  H
  C89      1.0000 0.10680  0.45330  0.52730  Biso   1.000  C
  C90      1.0000 0.10750  0.50990  0.51660  Biso   1.000  C
  H76      1.0000 0.08390  0.53410  0.52990  Biso   1.000  H
  C91      1.0000 0.14940  0.52140  0.48340  Biso   1.000  C
  H77      1.0000 0.15460  0.55640  0.47520  Biso   1.000  H
  N22      1.0000 0.80270  0.13710  0.94040  Biso   1.000  N
  N23      1.0000 0.78100  0.06200  0.89080  Biso   1.000  N
  N24      1.0000 0.74530  0.04760  0.92890  Biso   1.000  N
  C92      1.0000 0.82420  0.18560  0.93610  Biso   1.000  C
  H78      1.0000 0.81790  0.20830  0.96390  Biso   1.000  H
  C93      1.0000 0.85190  0.20380  0.89890  Biso   1.000  C
  H79      1.0000 0.86970  0.23540  0.90170  Biso   1.000  H
  C94      1.0000 0.85390  0.17480  0.85570  Biso   1.000  C
  H80      1.0000 0.87030  0.18890  0.82650  Biso   1.000  H
  C95      1.0000 0.83370  0.12670  0.85130  Biso   1.000  C
  H81      1.0000 0.83700  0.10660  0.82110  Biso   1.000  H
  C96      1.0000 0.80630  0.10850  0.89740  Biso   1.000  C
  C97      1.0000 0.72830  0.99880  0.92770  Biso   1.000  C
  C98      1.0000 0.75070  0.95890  0.89060  Biso   1.000  C
  H82      1.0000 0.77870  0.97440  0.87100  Biso   1.000  H
  H83      1.0000 0.72390  0.94730  0.86710  Biso   1.000  H
  H84      1.0000 0.76380  0.92970  0.91010  Biso   1.000  H
  C99      1.0000 0.68680  0.98270  0.95960  Biso   1.000  C
  C100     1.0000 0.67740  0.92940  0.97870  Biso   1.000  C
  H85      1.0000 0.70040  0.90300  0.96880  Biso   1.000  H
  C101     1.0000 0.63600  0.91670  0.01080  Biso   1.000  C
  H86      1.0000 0.62950  0.88220  0.02010  Biso   1.000  H
  C102     1.0000 0.60680  0.95330  0.02730  Biso   1.000  C
  C103     1.0000 0.60750  0.00990  0.01660  Biso   1.000  C
  H87      1.0000 0.58390  0.03410  0.02990  Biso   1.000  H
  C104     1.0000 0.64940  0.02140  0.98340  Biso   1.000  C
  H88      1.0000 0.65460  0.05640  0.97520  Biso   1.000  H
  N25      1.0000 0.55960  0.80270  0.86290  Biso   1.000  N
  N26      1.0000 0.60920  0.78100  0.93800  Biso   1.000  N
  N27      1.0000 0.57110  0.74530  0.95240  Biso   1.000  N
  C105     1.0000 0.56390  0.82420  0.81440  Biso   1.000  C
  H89      1.0000 0.53610  0.81790  0.79170  Biso   1.000  H
  C106     1.0000 0.60110  0.85190  0.79620  Biso   1.000  C
  H90      1.0000 0.59830  0.86970  0.76460  Biso   1.000  H
  C107     1.0000 0.64430  0.85390  0.82520  Biso   1.000  C
  H91      1.0000 0.67350  0.87030  0.81110  Biso   1.000  H
  C108     1.0000 0.64870  0.83370  0.87330  Biso   1.000  C
  H92      1.0000 0.67890  0.83700  0.89340  Biso   1.000  H
  C109     1.0000 0.60260  0.80630  0.89150  Biso   1.000  C
  C110     1.0000 0.57230  0.72830  0.00120  Biso   1.000  C
  C111     1.0000 0.60940  0.75070  0.04110  Biso   1.000  C
  H93      1.0000 0.62900  0.77870  0.02560  Biso   1.000  H
  H94      1.0000 0.63290  0.72390  0.05270  Biso   1.000  H
  H95      1.0000 0.58990  0.76380  0.07030  Biso   1.000  H
  C112     1.0000 0.54040  0.68680  0.01730  Biso   1.000  C
  C113     1.0000 0.52130  0.67740  0.07060  Biso   1.000  C
  H96      1.0000 0.53120  0.70040  0.09700  Biso   1.000  H
  C114     1.0000 0.48920  0.63600  0.08330  Biso   1.000  C
  H97      1.0000 0.47990  0.62950  0.11780  Biso   1.000  H
  C115     1.0000 0.47270  0.60680  0.04670  Biso   1.000  C
  C116     1.0000 0.48340  0.60750  0.99010  Biso   1.000  C
  H98      1.0000 0.47010  0.58390  0.96590  Biso   1.000  H
  C117     1.0000 0.51660  0.64940  0.97860  Biso   1.000  C
  H99      1.0000 0.52480  0.65460  0.94360  Biso   1.000  H
  N28      1.0000 0.05960  0.30270  0.36290  Biso   1.000  N
  N29      1.0000 0.10920  0.28100  0.43800  Biso   1.000  N
  N30      1.0000 0.07110  0.24530  0.45240  Biso   1.000  N
  C118     1.0000 0.06390  0.32420  0.31440  Biso   1.000  C
  H100     1.0000 0.03610  0.31790  0.29170  Biso   1.000  H
  C119     1.0000 0.10110  0.35190  0.29620  Biso   1.000  C
  H101     1.0000 0.09830  0.36970  0.26460  Biso   1.000  H
  C120     1.0000 0.14430  0.35390  0.32520  Biso   1.000  C
  H102     1.0000 0.17350  0.37030  0.31110  Biso   1.000  H
  C121     1.0000 0.14870  0.33370  0.37330  Biso   1.000  C
  H103     1.0000 0.17890  0.33700  0.39340  Biso   1.000  H
  C122     1.0000 0.10260  0.30630  0.39150  Biso   1.000  C
  C123     1.0000 0.07230  0.22830  0.50120  Biso   1.000  C
  C124     1.0000 0.10940  0.25070  0.54110  Biso   1.000  C
  H104     1.0000 0.12900  0.27870  0.52560  Biso   1.000  H
  H105     1.0000 0.13290  0.22390  0.55270  Biso   1.000  H
  H106     1.0000 0.08990  0.26380  0.57030  Biso   1.000  H
  C125     1.0000 0.04040  0.18680  0.51730  Biso   1.000  C
  C126     1.0000 0.02130  0.17740  0.57060  Biso   1.000  C
  H107     1.0000 0.03120  0.20040  0.59700  Biso   1.000  H
  C127     1.0000 0.98920  0.13600  0.58330  Biso   1.000  C
  H108     1.0000 0.97990  0.12950  0.61780  Biso   1.000  H
  C128     1.0000 0.97270  0.10680  0.54670  Biso   1.000  C
  C129     1.0000 0.98340  0.10750  0.49010  Biso   1.000  C
  H109     1.0000 0.97010  0.08390  0.46590  Biso   1.000  H
  C130     1.0000 0.01660  0.14940  0.47860  Biso   1.000  C
  H110     1.0000 0.02480  0.15460  0.44360  Biso   1.000  H
  N31      1.0000 0.05960  0.69730  0.13710  Biso   1.000  N
  N32      1.0000 0.10920  0.71900  0.06200  Biso   1.000  N
  N33      1.0000 0.07110  0.75470  0.04760  Biso   1.000  N
  C131     1.0000 0.06390  0.67580  0.18560  Biso   1.000  C
  H111     1.0000 0.03610  0.68210  0.20830  Biso   1.000  H
  C132     1.0000 0.10110  0.64810  0.20380  Biso   1.000  C
  H112     1.0000 0.09830  0.63030  0.23540  Biso   1.000  H
  C133     1.0000 0.14430  0.64610  0.17480  Biso   1.000  C
  H113     1.0000 0.17350  0.62970  0.18890  Biso   1.000  H
  C134     1.0000 0.14870  0.66630  0.12670  Biso   1.000  C
  H114     1.0000 0.17890  0.66300  0.10660  Biso   1.000  H
  C135     1.0000 0.10260  0.69370  0.10850  Biso   1.000  C
  C136     1.0000 0.07230  0.77170  0.99880  Biso   1.000  C
  C137     1.0000 0.10940  0.74930  0.95890  Biso   1.000  C
  H115     1.0000 0.12900  0.72130  0.97440  Biso   1.000  H
  H116     1.0000 0.13290  0.77610  0.94730  Biso   1.000  H
  H117     1.0000 0.08990  0.73620  0.92970  Biso   1.000  H
  C138     1.0000 0.04040  0.81320  0.98270  Biso   1.000  C
  C139     1.0000 0.02130  0.82260  0.92940  Biso   1.000  C
  H118     1.0000 0.03120  0.79960  0.90300  Biso   1.000  H
  C140     1.0000 0.98920  0.86400  0.91670  Biso   1.000  C
  H119     1.0000 0.97990  0.87050  0.88220  Biso   1.000  H
  C141     1.0000 0.97270  0.89320  0.95330  Biso   1.000  C
  C142     1.0000 0.98340  0.89250  0.00990  Biso   1.000  C
  H120     1.0000 0.97010  0.91610  0.03410  Biso   1.000  H
  C143     1.0000 0.01660  0.85060  0.02140  Biso   1.000  C
  H121     1.0000 0.02480  0.84540  0.05640  Biso   1.000  H
  N34      1.0000 0.55960  0.19730  0.63710  Biso   1.000  N
  N35      1.0000 0.60920  0.21900  0.56200  Biso   1.000  N
  N36      1.0000 0.57110  0.25470  0.54760  Biso   1.000  N
  C144     1.0000 0.56390  0.17580  0.68560  Biso   1.000  C
  H122     1.0000 0.53610  0.18210  0.70830  Biso   1.000  H
  C145     1.0000 0.60110  0.14810  0.70380  Biso   1.000  C
  H123     1.0000 0.59830  0.13030  0.73540  Biso   1.000  H
  C146     1.0000 0.64430  0.14610  0.67480  Biso   1.000  C
  H124     1.0000 0.67350  0.12970  0.68890  Biso   1.000  H
  C147     1.0000 0.64870  0.16630  0.62670  Biso   1.000  C
  H125     1.0000 0.67890  0.16300  0.60660  Biso   1.000  H
  C148     1.0000 0.60260  0.19370  0.60850  Biso   1.000  C
  C149     1.0000 0.57230  0.27170  0.49880  Biso   1.000  C
  C150     1.0000 0.60940  0.24930  0.45890  Biso   1.000  C
  H126     1.0000 0.62900  0.22130  0.47440  Biso   1.000  H
  H127     1.0000 0.63290  0.27610  0.44730  Biso   1.000  H
  H128     1.0000 0.58990  0.23620  0.42970  Biso   1.000  H
  C151     1.0000 0.54040  0.31320  0.48270  Biso   1.000  C
  C152     1.0000 0.52130  0.32260  0.42940  Biso   1.000  C
  H129     1.0000 0.53120  0.29960  0.40300  Biso   1.000  H
  C153     1.0000 0.48920  0.36400  0.41670  Biso   1.000  C
  H130     1.0000 0.47990  0.37050  0.38220  Biso   1.000  H
  C154     1.0000 0.47270  0.39320  0.45330  Biso   1.000  C
  C155     1.0000 0.48340  0.39250  0.50990  Biso   1.000  C
  H131     1.0000 0.47010  0.41610  0.53410  Biso   1.000  H
  C156     1.0000 0.51660  0.35060  0.52140  Biso   1.000  C
  H132     1.0000 0.52480  0.34540  0.55640  Biso   1.000  H
  N37      1.0000 0.94040  0.19730  0.36290  Biso   1.000  N
  N38      1.0000 0.89080  0.21900  0.43800  Biso   1.000  N
  N39      1.0000 0.92890  0.25470  0.45240  Biso   1.000  N
  C157     1.0000 0.93610  0.17580  0.31440  Biso   1.000  C
  H133     1.0000 0.96390  0.18210  0.29170  Biso   1.000  H
  C158     1.0000 0.89890  0.14810  0.29620  Biso   1.000  C
  H134     1.0000 0.90170  0.13030  0.26460  Biso   1.000  H
  C159     1.0000 0.85570  0.14610  0.32520  Biso   1.000  C
  H135     1.0000 0.82650  0.12970  0.31110  Biso   1.000  H
  C160     1.0000 0.85130  0.16630  0.37330  Biso   1.000  C
  H136     1.0000 0.82110  0.16300  0.39340  Biso   1.000  H
  C161     1.0000 0.89740  0.19370  0.39150  Biso   1.000  C
  C162     1.0000 0.92770  0.27170  0.50120  Biso   1.000  C
  C163     1.0000 0.89060  0.24930  0.54110  Biso   1.000  C
  H137     1.0000 0.87100  0.22130  0.52560  Biso   1.000  H
  H138     1.0000 0.86710  0.27610  0.55270  Biso   1.000  H
  H139     1.0000 0.91010  0.23620  0.57030  Biso   1.000  H
  C164     1.0000 0.95960  0.31320  0.51730  Biso   1.000  C
  C165     1.0000 0.97870  0.32260  0.57060  Biso   1.000  C
  H140     1.0000 0.96880  0.29960  0.59700  Biso   1.000  H
  C166     1.0000 0.01080  0.36400  0.58330  Biso   1.000  C
  H141     1.0000 0.02010  0.37050  0.61780  Biso   1.000  H
  C167     1.0000 0.02730  0.39320  0.54670  Biso   1.000  C
  C168     1.0000 0.01660  0.39250  0.49010  Biso   1.000  C
  H142     1.0000 0.02990  0.41610  0.46590  Biso   1.000  H
  C169     1.0000 0.98340  0.35060  0.47860  Biso   1.000  C
  H143     1.0000 0.97520  0.34540  0.44360  Biso   1.000  H
  N40      1.0000 0.44040  0.69730  0.86290  Biso   1.000  N
  N41      1.0000 0.39080  0.71900  0.93800  Biso   1.000  N
  N42      1.0000 0.42890  0.75470  0.95240  Biso   1.000  N
  C170     1.0000 0.43610  0.67580  0.81440  Biso   1.000  C
  H144     1.0000 0.46390  0.68210  0.79170  Biso   1.000  H
  C171     1.0000 0.39890  0.64810  0.79620  Biso   1.000  C
  H145     1.0000 0.40170  0.63030  0.76460  Biso   1.000  H
  C172     1.0000 0.35570  0.64610  0.82520  Biso   1.000  C
  H146     1.0000 0.32650  0.62970  0.81110  Biso   1.000  H
  C173     1.0000 0.35130  0.66630  0.87330  Biso   1.000  C
  H147     1.0000 0.32110  0.66300  0.89340  Biso   1.000  H
  C174     1.0000 0.39740  0.69370  0.89150  Biso   1.000  C
  C175     1.0000 0.42770  0.77170  0.00120  Biso   1.000  C
  C176     1.0000 0.39060  0.74930  0.04110  Biso   1.000  C
  H148     1.0000 0.37100  0.72130  0.02560  Biso   1.000  H
  H149     1.0000 0.36710  0.77610  0.05270  Biso   1.000  H
  H150     1.0000 0.41010  0.73620  0.07030  Biso   1.000  H
  C177     1.0000 0.45960  0.81320  0.01730  Biso   1.000  C
  C178     1.0000 0.47870  0.82260  0.07060  Biso   1.000  C
  H151     1.0000 0.46880  0.79960  0.09700  Biso   1.000  H
  C179     1.0000 0.51080  0.86400  0.08330  Biso   1.000  C
  H152     1.0000 0.52010  0.87050  0.11780  Biso   1.000  H
  C180     1.0000 0.52730  0.89320  0.04670  Biso   1.000  C
  C181     1.0000 0.51660  0.89250  0.99010  Biso   1.000  C
  H153     1.0000 0.52990  0.91610  0.96590  Biso   1.000  H
  C182     1.0000 0.48340  0.85060  0.97860  Biso   1.000  C
  H154     1.0000 0.47520  0.84540  0.94360  Biso   1.000  H
  N43      1.0000 0.44040  0.30270  0.63710  Biso   1.000  N
  N44      1.0000 0.39080  0.28100  0.56200  Biso   1.000  N
  N45      1.0000 0.42890  0.24530  0.54760  Biso   1.000  N
  C183     1.0000 0.43610  0.32420  0.68560  Biso   1.000  C
  H155     1.0000 0.46390  0.31790  0.70830  Biso   1.000  H
  C184     1.0000 0.39890  0.35190  0.70380  Biso   1.000  C
  H156     1.0000 0.40170  0.36970  0.73540  Biso   1.000  H
  C185     1.0000 0.35570  0.35390  0.67480  Biso   1.000  C
  H157     1.0000 0.32650  0.37030  0.68890  Biso   1.000  H
  C186     1.0000 0.35130  0.33370  0.62670  Biso   1.000  C
  H158     1.0000 0.32110  0.33700  0.60660  Biso   1.000  H
  C187     1.0000 0.39740  0.30630  0.60850  Biso   1.000  C
  C188     1.0000 0.42770  0.22830  0.49880  Biso   1.000  C
  C189     1.0000 0.39060  0.25070  0.45890  Biso   1.000  C
  H159     1.0000 0.37100  0.27870  0.47440  Biso   1.000  H
  H160     1.0000 0.36710  0.22390  0.44730  Biso   1.000  H
  H161     1.0000 0.41010  0.26380  0.42970  Biso   1.000  H
  C190     1.0000 0.45960  0.18680  0.48270  Biso   1.000  C
  C191     1.0000 0.47870  0.17740  0.42940  Biso   1.000  C
  H162     1.0000 0.46880  0.20040  0.40300  Biso   1.000  H
  C192     1.0000 0.51080  0.13600  0.41670  Biso   1.000  C
  H163     1.0000 0.52010  0.12950  0.38220  Biso   1.000  H
  C193     1.0000 0.52730  0.10680  0.45330  Biso   1.000  C
  C194     1.0000 0.51660  0.10750  0.50990  Biso   1.000  C
  H164     1.0000 0.52990  0.08390  0.53410  Biso   1.000  H
  C195     1.0000 0.48340  0.14940  0.52140  Biso   1.000  C
  H165     1.0000 0.47520  0.15460  0.55640  Biso   1.000  H
  N46      1.0000 0.94040  0.80270  0.13710  Biso   1.000  N
  N47      1.0000 0.89080  0.78100  0.06200  Biso   1.000  N
  N48      1.0000 0.92890  0.74530  0.04760  Biso   1.000  N
  C196     1.0000 0.93610  0.82420  0.18560  Biso   1.000  C
  H166     1.0000 0.96390  0.81790  0.20830  Biso   1.000  H
  C197     1.0000 0.89890  0.85190  0.20380  Biso   1.000  C
  H167     1.0000 0.90170  0.86970  0.23540  Biso   1.000  H
  C198     1.0000 0.85570  0.85390  0.17480  Biso   1.000  C
  H168     1.0000 0.82650  0.87030  0.18890  Biso   1.000  H
  C199     1.0000 0.85130  0.83370  0.12670  Biso   1.000  C
  H169     1.0000 0.82110  0.83700  0.10660  Biso   1.000  H
  C200     1.0000 0.89740  0.80630  0.10850  Biso   1.000  C
  C201     1.0000 0.92770  0.72830  0.99880  Biso   1.000  C
  C202     1.0000 0.89060  0.75070  0.95890  Biso   1.000  C
  H170     1.0000 0.87100  0.77870  0.97440  Biso   1.000  H
  H171     1.0000 0.86710  0.72390  0.94730  Biso   1.000  H
  H172     1.0000 0.91010  0.76380  0.92970  Biso   1.000  H
  C203     1.0000 0.95960  0.68680  0.98270  Biso   1.000  C
  C204     1.0000 0.97870  0.67740  0.92940  Biso   1.000  C
  H173     1.0000 0.96880  0.70040  0.90300  Biso   1.000  H
  C205     1.0000 0.01080  0.63600  0.91670  Biso   1.000  C
  H174     1.0000 0.02010  0.62950  0.88220  Biso   1.000  H
  C206     1.0000 0.02730  0.60680  0.95330  Biso   1.000  C
  C207     1.0000 0.01660  0.60750  0.00990  Biso   1.000  C
  H175     1.0000 0.02990  0.58390  0.03410  Biso   1.000  H
  C208     1.0000 0.98340  0.64940  0.02140  Biso   1.000  C
  H176     1.0000 0.97520  0.65460  0.05640  Biso   1.000  H
  N49      1.0000 0.86290  0.55960  0.80270  Biso   1.000  N
  N50      1.0000 0.93800  0.60920  0.78100  Biso   1.000  N
  N51      1.0000 0.95240  0.57110  0.74530  Biso   1.000  N
  C209     1.0000 0.81440  0.56390  0.82420  Biso   1.000  C
  H177     1.0000 0.79170  0.53610  0.81790  Biso   1.000  H
  C210     1.0000 0.79620  0.60110  0.85190  Biso   1.000  C
  H178     1.0000 0.76460  0.59830  0.86970  Biso   1.000  H
  C211     1.0000 0.82520  0.64430  0.85390  Biso   1.000  C
  H179     1.0000 0.81110  0.67350  0.87030  Biso   1.000  H
  C212     1.0000 0.87330  0.64870  0.83370  Biso   1.000  C
  H180     1.0000 0.89340  0.67890  0.83700  Biso   1.000  H
  C213     1.0000 0.89150  0.60260  0.80630  Biso   1.000  C
  C214     1.0000 0.00120  0.57230  0.72830  Biso   1.000  C
  C215     1.0000 0.04110  0.60940  0.75070  Biso   1.000  C
  H181     1.0000 0.02560  0.62900  0.77870  Biso   1.000  H
  H182     1.0000 0.05270  0.63290  0.72390  Biso   1.000  H
  H183     1.0000 0.07030  0.58990  0.76380  Biso   1.000  H
  C216     1.0000 0.01730  0.54040  0.68680  Biso   1.000  C
  C217     1.0000 0.07060  0.52130  0.67740  Biso   1.000  C
  H184     1.0000 0.09700  0.53120  0.70040  Biso   1.000  H
  C218     1.0000 0.08330  0.48920  0.63600  Biso   1.000  C
  H185     1.0000 0.11780  0.47990  0.62950  Biso   1.000  H
  C219     1.0000 0.04670  0.47270  0.60680  Biso   1.000  C
  C220     1.0000 0.99010  0.48340  0.60750  Biso   1.000  C
  H186     1.0000 0.96590  0.47010  0.58390  Biso   1.000  H
  C221     1.0000 0.97860  0.51660  0.64940  Biso   1.000  C
  H187     1.0000 0.94360  0.52480  0.65460  Biso   1.000  H
  N52      1.0000 0.36290  0.05960  0.30270  Biso   1.000  N
  N53      1.0000 0.43800  0.10920  0.28100  Biso   1.000  N
  N54      1.0000 0.45240  0.07110  0.24530  Biso   1.000  N
  C222     1.0000 0.31440  0.06390  0.32420  Biso   1.000  C
  H188     1.0000 0.29170  0.03610  0.31790  Biso   1.000  H
  C223     1.0000 0.29620  0.10110  0.35190  Biso   1.000  C
  H189     1.0000 0.26460  0.09830  0.36970  Biso   1.000  H
  C224     1.0000 0.32520  0.14430  0.35390  Biso   1.000  C
  H190     1.0000 0.31110  0.17350  0.37030  Biso   1.000  H
  C225     1.0000 0.37330  0.14870  0.33370  Biso   1.000  C
  H191     1.0000 0.39340  0.17890  0.33700  Biso   1.000  H
  C226     1.0000 0.39150  0.10260  0.30630  Biso   1.000  C
  C227     1.0000 0.50120  0.07230  0.22830  Biso   1.000  C
  C228     1.0000 0.54110  0.10940  0.25070  Biso   1.000  C
  H192     1.0000 0.52560  0.12900  0.27870  Biso   1.000  H
  H193     1.0000 0.55270  0.13290  0.22390  Biso   1.000  H
  H194     1.0000 0.57030  0.08990  0.26380  Biso   1.000  H
  C229     1.0000 0.51730  0.04040  0.18680  Biso   1.000  C
  C230     1.0000 0.57060  0.02130  0.17740  Biso   1.000  C
  H195     1.0000 0.59700  0.03120  0.20040  Biso   1.000  H
  C231     1.0000 0.58330  0.98920  0.13600  Biso   1.000  C
  H196     1.0000 0.61780  0.97990  0.12950  Biso   1.000  H
  C232     1.0000 0.54670  0.97270  0.10680  Biso   1.000  C
  C233     1.0000 0.49010  0.98340  0.10750  Biso   1.000  C
  H197     1.0000 0.46590  0.97010  0.08390  Biso   1.000  H
  C234     1.0000 0.47860  0.01660  0.14940  Biso   1.000  C
  H198     1.0000 0.44360  0.02480  0.15460  Biso   1.000  H
  N55      1.0000 0.13710  0.05960  0.69730  Biso   1.000  N
  N56      1.0000 0.06200  0.10920  0.71900  Biso   1.000  N
  N57      1.0000 0.04760  0.07110  0.75470  Biso   1.000  N
  C235     1.0000 0.18560  0.06390  0.67580  Biso   1.000  C
  H199     1.0000 0.20830  0.03610  0.68210  Biso   1.000  H
  C236     1.0000 0.20380  0.10110  0.64810  Biso   1.000  C
  H200     1.0000 0.23540  0.09830  0.63030  Biso   1.000  H
  C237     1.0000 0.17480  0.14430  0.64610  Biso   1.000  C
  H201     1.0000 0.18890  0.17350  0.62970  Biso   1.000  H
  C238     1.0000 0.12670  0.14870  0.66630  Biso   1.000  C
  H202     1.0000 0.10660  0.17890  0.66300  Biso   1.000  H
  C239     1.0000 0.10850  0.10260  0.69370  Biso   1.000  C
  C240     1.0000 0.99880  0.07230  0.77170  Biso   1.000  C
  C241     1.0000 0.95890  0.10940  0.74930  Biso   1.000  C
  H203     1.0000 0.97440  0.12900  0.72130  Biso   1.000  H
  H204     1.0000 0.94730  0.13290  0.77610  Biso   1.000  H
  H205     1.0000 0.92970  0.08990  0.73620  Biso   1.000  H
  C242     1.0000 0.98270  0.04040  0.81320  Biso   1.000  C
  C243     1.0000 0.92940  0.02130  0.82260  Biso   1.000  C
  H206     1.0000 0.90300  0.03120  0.79960  Biso   1.000  H
  C244     1.0000 0.91670  0.98920  0.86400  Biso   1.000  C
  H207     1.0000 0.88220  0.97990  0.87050  Biso   1.000  H
  C245     1.0000 0.95330  0.97270  0.89320  Biso   1.000  C
  C246     1.0000 0.00990  0.98340  0.89250  Biso   1.000  C
  H208     1.0000 0.03410  0.97010  0.91610  Biso   1.000  H
  C247     1.0000 0.02140  0.01660  0.85060  Biso   1.000  C
  H209     1.0000 0.05640  0.02480  0.84540  Biso   1.000  H
  N58      1.0000 0.63710  0.55960  0.19730  Biso   1.000  N
  N59      1.0000 0.56200  0.60920  0.21900  Biso   1.000  N
  N60      1.0000 0.54760  0.57110  0.25470  Biso   1.000  N
  C248     1.0000 0.68560  0.56390  0.17580  Biso   1.000  C
  H210     1.0000 0.70830  0.53610  0.18210  Biso   1.000  H
  C249     1.0000 0.70380  0.60110  0.14810  Biso   1.000  C
  H211     1.0000 0.73540  0.59830  0.13030  Biso   1.000  H
  C250     1.0000 0.67480  0.64430  0.14610  Biso   1.000  C
  H212     1.0000 0.68890  0.67350  0.12970  Biso   1.000  H
  C251     1.0000 0.62670  0.64870  0.16630  Biso   1.000  C
  H213     1.0000 0.60660  0.67890  0.16300  Biso   1.000  H
  C252     1.0000 0.60850  0.60260  0.19370  Biso   1.000  C
  C253     1.0000 0.49880  0.57230  0.27170  Biso   1.000  C
  C254     1.0000 0.45890  0.60940  0.24930  Biso   1.000  C
  H214     1.0000 0.47440  0.62900  0.22130  Biso   1.000  H
  H215     1.0000 0.44730  0.63290  0.27610  Biso   1.000  H
  H216     1.0000 0.42970  0.58990  0.23620  Biso   1.000  H
  C255     1.0000 0.48270  0.54040  0.31320  Biso   1.000  C
  C256     1.0000 0.42940  0.52130  0.32260  Biso   1.000  C
  H217     1.0000 0.40300  0.53120  0.29960  Biso   1.000  H
  C257     1.0000 0.41670  0.48920  0.36400  Biso   1.000  C
  H218     1.0000 0.38220  0.47990  0.37050  Biso   1.000  H
  C258     1.0000 0.45330  0.47270  0.39320  Biso   1.000  C
  C259     1.0000 0.50990  0.48340  0.39250  Biso   1.000  C
  H219     1.0000 0.53410  0.47010  0.41610  Biso   1.000  H
  C260     1.0000 0.52140  0.51660  0.35060  Biso   1.000  C
  H220     1.0000 0.55640  0.52480  0.34540  Biso   1.000  H
  N61      1.0000 0.36290  0.94040  0.19730  Biso   1.000  N
  N62      1.0000 0.43800  0.89080  0.21900  Biso   1.000  N
  N63      1.0000 0.45240  0.92890  0.25470  Biso   1.000  N
  C261     1.0000 0.31440  0.93610  0.17580  Biso   1.000  C
  H221     1.0000 0.29170  0.96390  0.18210  Biso   1.000  H
  C262     1.0000 0.29620  0.89890  0.14810  Biso   1.000  C
  H222     1.0000 0.26460  0.90170  0.13030  Biso   1.000  H
  C263     1.0000 0.32520  0.85570  0.14610  Biso   1.000  C
  H223     1.0000 0.31110  0.82650  0.12970  Biso   1.000  H
  C264     1.0000 0.37330  0.85130  0.16630  Biso   1.000  C
  H224     1.0000 0.39340  0.82110  0.16300  Biso   1.000  H
  C265     1.0000 0.39150  0.89740  0.19370  Biso   1.000  C
  C266     1.0000 0.50120  0.92770  0.27170  Biso   1.000  C
  C267     1.0000 0.54110  0.89060  0.24930  Biso   1.000  C
  H225     1.0000 0.52560  0.87100  0.22130  Biso   1.000  H
  H226     1.0000 0.55270  0.86710  0.27610  Biso   1.000  H
  H227     1.0000 0.57030  0.91010  0.23620  Biso   1.000  H
  C268     1.0000 0.51730  0.95960  0.31320  Biso   1.000  C
  C269     1.0000 0.57060  0.97870  0.32260  Biso   1.000  C
  H228     1.0000 0.59700  0.96880  0.29960  Biso   1.000  H
  C270     1.0000 0.58330  0.01080  0.36400  Biso   1.000  C
  H229     1.0000 0.61780  0.02010  0.37050  Biso   1.000  H
  C271     1.0000 0.54670  0.02730  0.39320  Biso   1.000  C
  C272     1.0000 0.49010  0.01660  0.39250  Biso   1.000  C
  H230     1.0000 0.46590  0.02990  0.41610  Biso   1.000  H
  C273     1.0000 0.47860  0.98340  0.35060  Biso   1.000  C
  H231     1.0000 0.44360  0.97520  0.34540  Biso   1.000  H
  N64      1.0000 0.86290  0.44040  0.69730  Biso   1.000  N
  N65      1.0000 0.93800  0.39080  0.71900  Biso   1.000  N
  N66      1.0000 0.95240  0.42890  0.75470  Biso   1.000  N
  C274     1.0000 0.81440  0.43610  0.67580  Biso   1.000  C
  H232     1.0000 0.79170  0.46390  0.68210  Biso   1.000  H
  C275     1.0000 0.79620  0.39890  0.64810  Biso   1.000  C
  H233     1.0000 0.76460  0.40170  0.63030  Biso   1.000  H
  C276     1.0000 0.82520  0.35570  0.64610  Biso   1.000  C
  H234     1.0000 0.81110  0.32650  0.62970  Biso   1.000  H
  C277     1.0000 0.87330  0.35130  0.66630  Biso   1.000  C
  H235     1.0000 0.89340  0.32110  0.66300  Biso   1.000  H
  C278     1.0000 0.89150  0.39740  0.69370  Biso   1.000  C
  C279     1.0000 0.00120  0.42770  0.77170  Biso   1.000  C
  C280     1.0000 0.04110  0.39060  0.74930  Biso   1.000  C
  H236     1.0000 0.02560  0.37100  0.72130  Biso   1.000  H
  H237     1.0000 0.05270  0.36710  0.77610  Biso   1.000  H
  H238     1.0000 0.07030  0.41010  0.73620  Biso   1.000  H
  C281     1.0000 0.01730  0.45960  0.81320  Biso   1.000  C
  C282     1.0000 0.07060  0.47870  0.82260  Biso   1.000  C
  H239     1.0000 0.09700  0.46880  0.79960  Biso   1.000  H
  C283     1.0000 0.08330  0.51080  0.86400  Biso   1.000  C
  H240     1.0000 0.11780  0.52010  0.87050  Biso   1.000  H
  C284     1.0000 0.04670  0.52730  0.89320  Biso   1.000  C
  C285     1.0000 0.99010  0.51660  0.89250  Biso   1.000  C
  H241     1.0000 0.96590  0.52990  0.91610  Biso   1.000  H
  C286     1.0000 0.97860  0.48340  0.85060  Biso   1.000  C
  H242     1.0000 0.94360  0.47520  0.84540  Biso   1.000  H
  N67      1.0000 0.63710  0.44040  0.30270  Biso   1.000  N
  N68      1.0000 0.56200  0.39080  0.28100  Biso   1.000  N
  N69      1.0000 0.54760  0.42890  0.24530  Biso   1.000  N
  C287     1.0000 0.68560  0.43610  0.32420  Biso   1.000  C
  H243     1.0000 0.70830  0.46390  0.31790  Biso   1.000  H
  C288     1.0000 0.70380  0.39890  0.35190  Biso   1.000  C
  H244     1.0000 0.73540  0.40170  0.36970  Biso   1.000  H
  C289     1.0000 0.67480  0.35570  0.35390  Biso   1.000  C
  H245     1.0000 0.68890  0.32650  0.37030  Biso   1.000  H
  C290     1.0000 0.62670  0.35130  0.33370  Biso   1.000  C
  H246     1.0000 0.60660  0.32110  0.33700  Biso   1.000  H
  C291     1.0000 0.60850  0.39740  0.30630  Biso   1.000  C
  C292     1.0000 0.49880  0.42770  0.22830  Biso   1.000  C
  C293     1.0000 0.45890  0.39060  0.25070  Biso   1.000  C
  H247     1.0000 0.47440  0.37100  0.27870  Biso   1.000  H
  H248     1.0000 0.44730  0.36710  0.22390  Biso   1.000  H
  H249     1.0000 0.42970  0.41010  0.26380  Biso   1.000  H
  C294     1.0000 0.48270  0.45960  0.18680  Biso   1.000  C
  C295     1.0000 0.42940  0.47870  0.17740  Biso   1.000  C
  H250     1.0000 0.40300  0.46880  0.20040  Biso   1.000  H
  C296     1.0000 0.41670  0.51080  0.13600  Biso   1.000  C
  H251     1.0000 0.38220  0.52010  0.12950  Biso   1.000  H
  C297     1.0000 0.45330  0.52730  0.10680  Biso   1.000  C
  C298     1.0000 0.50990  0.51660  0.10750  Biso   1.000  C
  H252     1.0000 0.53410  0.52990  0.08390  Biso   1.000  H
  C299     1.0000 0.52140  0.48340  0.14940  Biso   1.000  C
  H253     1.0000 0.55640  0.47520  0.15460  Biso   1.000  H
  N70      1.0000 0.13710  0.94040  0.80270  Biso   1.000  N
  N71      1.0000 0.06200  0.89080  0.78100  Biso   1.000  N
  N72      1.0000 0.04760  0.92890  0.74530  Biso   1.000  N
  C300     1.0000 0.18560  0.93610  0.82420  Biso   1.000  C
  H254     1.0000 0.20830  0.96390  0.81790  Biso   1.000  H
  C301     1.0000 0.20380  0.89890  0.85190  Biso   1.000  C
  H255     1.0000 0.23540  0.90170  0.86970  Biso   1.000  H
  C302     1.0000 0.17480  0.85570  0.85390  Biso   1.000  C
  H256     1.0000 0.18890  0.82650  0.87030  Biso   1.000  H
  C303     1.0000 0.12670  0.85130  0.83370  Biso   1.000  C
  H257     1.0000 0.10660  0.82110  0.83700  Biso   1.000  H
  C304     1.0000 0.10850  0.89740  0.80630  Biso   1.000  C
  C305     1.0000 0.99880  0.92770  0.72830  Biso   1.000  C
  C306     1.0000 0.95890  0.89060  0.75070  Biso   1.000  C
  H258     1.0000 0.97440  0.87100  0.77870  Biso   1.000  H
  H259     1.0000 0.94730  0.86710  0.72390  Biso   1.000  H
  H260     1.0000 0.92970  0.91010  0.76380  Biso   1.000  H
  C307     1.0000 0.98270  0.95960  0.68680  Biso   1.000  C
  C308     1.0000 0.92940  0.97870  0.67740  Biso   1.000  C
  H261     1.0000 0.90300  0.96880  0.70040  Biso   1.000  H
  C309     1.0000 0.91670  0.01080  0.63600  Biso   1.000  C
  H262     1.0000 0.88220  0.02010  0.62950  Biso   1.000  H
  C310     1.0000 0.95330  0.02730  0.60680  Biso   1.000  C
  C311     1.0000 0.00990  0.01660  0.60750  Biso   1.000  C
  H263     1.0000 0.03410  0.02990  0.58390  Biso   1.000  H
  C312     1.0000 0.02140  0.98340  0.64940  Biso   1.000  C
  H264     1.0000 0.05640  0.97520  0.65460  Biso   1.000  H
  Ag1      1.0000 0.75000  0.89321  0.50000  Biso   1.000  Ag
  Ag2      1.0000 0.75000  0.10679  0.00000  Biso   1.000  Ag
  Ag3      1.0000 0.25000  0.39321  0.00000  Biso   1.000  Ag
  Ag4      1.0000 0.25000  0.60679  0.50000  Biso   1.000  Ag
  Ag5      1.0000 0.50000  0.75000  0.89321  Biso   1.000  Ag
  Ag6      1.0000 0.00000  0.75000  0.10679  Biso   1.000  Ag
  Ag7      1.0000 0.00000  0.25000  0.39321  Biso   1.000  Ag
  Ag8      1.0000 0.50000  0.25000  0.60679  Biso   1.000  Ag
  Ag9      1.0000 0.89321  0.50000  0.75000  Biso   1.000  Ag
  Ag10     1.0000 0.10679  0.00000  0.75000  Biso   1.000  Ag
  Ag11     1.0000 0.39321  0.00000  0.25000  Biso   1.000  Ag
  Ag12     1.0000 0.60679  0.50000  0.25000  Biso   1.000  Ag
  N73      1.0000 0.56050  0.06050  0.43950  Biso   1.000  N
  N74      1.0000 0.06050  0.56050  0.93950  Biso   1.000  N
  N75      1.0000 0.93950  0.93950  0.93950  Biso   1.000  N
  N76      1.0000 0.43950  0.43950  0.43950  Biso   1.000  N
  N77      1.0000 0.43950  0.56050  0.06050  Biso   1.000  N
  N78      1.0000 0.93950  0.06050  0.56050  Biso   1.000  N
  N79      1.0000 0.06050  0.43950  0.56050  Biso   1.000  N
  N80      1.0000 0.56050  0.93950  0.06050  Biso   1.000  N
