data_image0
_cell_length_a       18.199
_cell_length_b       20.125
_cell_length_c       37.4537
_cell_angle_alpha    74.4151
_cell_angle_beta     75.939
_cell_angle_gamma    90

_symmetry_space_group_name_H-M    P 1
_symmetry_int_tables_number       1

loop_
  _symmetry_equiv_pos_as_xyz
  'x, y, z'

loop_
  _atom_site_label
  _atom_site_occupancy
  _atom_site_fract_x
  _atom_site_fract_y
  _atom_site_fract_z
  _atom_site_thermal_displace_type
  _atom_site_B_iso_or_equiv
  _atom_site_type_symbol
  Zn1      1.0000 0.09017  0.89267  0.76358  Biso   1.000  Zn
  Zn2      1.0000 0.10262  0.03771  0.68874  Biso   1.000  Zn
  Zn3      1.0000 0.64625  0.34375  0.76358  Biso   1.000  Zn
  Zn4      1.0000 0.70864  0.27355  0.68874  Biso   1.000  Zn
  Zn5      1.0000 0.85375  0.60733  0.23642  Biso   1.000  Zn
  Zn6      1.0000 0.79136  0.46229  0.31126  Biso   1.000  Zn
  Zn7      1.0000 0.40983  0.15625  0.23642  Biso   1.000  Zn
  Zn8      1.0000 0.39738  0.22645  0.31126  Biso   1.000  Zn
  Zn9      1.0000 0.90983  0.10733  0.23642  Biso   1.000  Zn
  Zn10     1.0000 0.89738  0.96229  0.31126  Biso   1.000  Zn
  Zn11     1.0000 0.35375  0.65625  0.23642  Biso   1.000  Zn
  Zn12     1.0000 0.29136  0.72645  0.31126  Biso   1.000  Zn
  Zn13     1.0000 0.14625  0.39267  0.76358  Biso   1.000  Zn
  Zn14     1.0000 0.20864  0.53771  0.68874  Biso   1.000  Zn
  Zn15     1.0000 0.59017  0.84375  0.76358  Biso   1.000  Zn
  Zn16     1.0000 0.60262  0.77355  0.68874  Biso   1.000  Zn
  H1       1.0000 0.10700  0.16220  0.75900  Biso   1.000  H
  H2       1.0000 0.05060  0.00070  0.85280  Biso   1.000  H
  H3       1.0000 0.08200  0.19180  0.86240  Biso   1.000  H
  H4       1.0000 0.08610  0.90990  0.99800  Biso   1.000  H
  H5       1.0000 0.34260  0.89860  0.74240  Biso   1.000  H
  H6       1.0000 0.31360  0.97870  0.63680  Biso   1.000  H
  H7       1.0000 0.51440  0.90790  0.65020  Biso   1.000  H
  H8       1.0000 0.39770  0.92680  0.50000  Biso   1.000  H
  H9       1.0000 0.20310  0.03400  0.61840  Biso   1.000  H
  H10      1.0000 0.22900  0.95780  0.57820  Biso   1.000  H
  H11      1.0000 0.14940  0.95860  0.56900  Biso   1.000  H
  H12      1.0000 0.22110  0.99630  0.53700  Biso   1.000  H
  H13      1.0000 0.21490  0.12770  0.69640  Biso   1.000  H
  H14      1.0000 0.21100  0.32230  0.65100  Biso   1.000  H
  H15      1.0000 0.19830  0.26990  0.62840  Biso   1.000  H
  H16      1.0000 0.13600  0.27410  0.66480  Biso   1.000  H
  H17      1.0000 0.30100  0.27960  0.68880  Biso   1.000  H
  H18      1.0000 0.27160  0.21080  0.72100  Biso   1.000  H
  H19      1.0000 0.32940  0.20890  0.68280  Biso   1.000  H
  H20      1.0000 0.93910  0.04290  0.73340  Biso   1.000  H
  H21      1.0000 0.81300  0.09130  0.65960  Biso   1.000  H
  H22      1.0000 0.89300  0.13100  0.64820  Biso   1.000  H
  H23      1.0000 0.88650  0.05310  0.64860  Biso   1.000  H
  H24      1.0000 0.75750  0.05920  0.72540  Biso   1.000  H
  H25      1.0000 0.80190  0.00360  0.74820  Biso   1.000  H
  H26      1.0000 0.80730  0.08050  0.74980  Biso   1.000  H
  H27      1.0000 0.63400  0.07880  0.75900  Biso   1.000  H
  H28      1.0000 0.59660  0.14650  0.85280  Biso   1.000  H
  H29      1.0000 0.55560  0.94580  0.86240  Biso   1.000  H
  H30      1.0000 0.41590  0.09210  0.99800  Biso   1.000  H
  H31      1.0000 0.41500  0.35900  0.74240  Biso   1.000  H
  H32      1.0000 0.54960  0.38450  0.63680  Biso   1.000  H
  H33      1.0000 0.33540  0.44190  0.65020  Biso   1.000  H
  H34      1.0000 0.60230  0.57320  0.50000  Biso   1.000  H
  H35      1.0000 0.67850  0.34760  0.61840  Biso   1.000  H
  H36      1.0000 0.69280  0.46400  0.57820  Biso   1.000  H
  H37      1.0000 0.78160  0.47240  0.56900  Biso   1.000  H
  H38      1.0000 0.74190  0.46670  0.53700  Biso   1.000  H
  H39      1.0000 0.58870  0.17590  0.69640  Biso   1.000  H
  H40      1.0000 0.63800  0.02670  0.65100  Biso   1.000  H
  H41      1.0000 0.67330  0.10170  0.62840  Biso   1.000  H
  H42      1.0000 0.69920  0.06110  0.66480  Biso   1.000  H
  H43      1.0000 0.51020  0.03160  0.68880  Biso   1.000  H
  H44      1.0000 0.50740  0.06820  0.72100  Biso   1.000  H
  H45      1.0000 0.48780  0.10830  0.68280  Biso   1.000  H
  H46      1.0000 0.82750  0.22370  0.73340  Biso   1.000  H
  H47      1.0000 0.02740  0.24910  0.65960  Biso   1.000  H
  H48      1.0000 0.95880  0.22080  0.64820  Biso   1.000  H
  H49      1.0000 0.96490  0.29830  0.64860  Biso   1.000  H
  H50      1.0000 0.01710  0.21540  0.72540  Biso   1.000  H
  H51      1.0000 0.94990  0.24820  0.74820  Biso   1.000  H
  H52      1.0000 0.94290  0.16970  0.74980  Biso   1.000  H
  H53      1.0000 0.86600  0.33780  0.24100  Biso   1.000  H
  H54      1.0000 0.90340  0.49930  0.14720  Biso   1.000  H
  H55      1.0000 0.94440  0.30820  0.13760  Biso   1.000  H
  H56      1.0000 0.08410  0.59010  0.00200  Biso   1.000  H
  H57      1.0000 0.08500  0.60140  0.25760  Biso   1.000  H
  H58      1.0000 0.95040  0.52130  0.36320  Biso   1.000  H
  H59      1.0000 0.16460  0.59210  0.34980  Biso   1.000  H
  H60      1.0000 0.89770  0.57320  0.50000  Biso   1.000  H
  H61      1.0000 0.82150  0.46600  0.38160  Biso   1.000  H
  H62      1.0000 0.80720  0.54220  0.42180  Biso   1.000  H
  H63      1.0000 0.71840  0.54140  0.43100  Biso   1.000  H
  H64      1.0000 0.75810  0.50370  0.46300  Biso   1.000  H
  H65      1.0000 0.91130  0.37230  0.30360  Biso   1.000  H
  H66      1.0000 0.86200  0.17770  0.34900  Biso   1.000  H
  H67      1.0000 0.82670  0.23010  0.37160  Biso   1.000  H
  H68      1.0000 0.80080  0.22590  0.33520  Biso   1.000  H
  H69      1.0000 0.98980  0.22040  0.31120  Biso   1.000  H
  H70      1.0000 0.99260  0.28920  0.27900  Biso   1.000  H
  H71      1.0000 0.01220  0.29110  0.31720  Biso   1.000  H
  H72      1.0000 0.67250  0.45710  0.26660  Biso   1.000  H
  H73      1.0000 0.47260  0.40870  0.34040  Biso   1.000  H
  H74      1.0000 0.54120  0.36900  0.35180  Biso   1.000  H
  H75      1.0000 0.53510  0.44690  0.35140  Biso   1.000  H
  H76      1.0000 0.48290  0.44080  0.27460  Biso   1.000  H
  H77      1.0000 0.55010  0.49640  0.25180  Biso   1.000  H
  H78      1.0000 0.55710  0.41950  0.25020  Biso   1.000  H
  H79      1.0000 0.39300  0.42120  0.24100  Biso   1.000  H
  H80      1.0000 0.44940  0.35350  0.14720  Biso   1.000  H
  H81      1.0000 0.41800  0.55420  0.13760  Biso   1.000  H
  H82      1.0000 0.41390  0.40790  0.00200  Biso   1.000  H
  H83      1.0000 0.15740  0.14100  0.25760  Biso   1.000  H
  H84      1.0000 0.18640  0.11550  0.36320  Biso   1.000  H
  H85      1.0000 0.98560  0.05810  0.34980  Biso   1.000  H
  H86      1.0000 0.10230  0.92680  0.50000  Biso   1.000  H
  H87      1.0000 0.29690  0.15240  0.38160  Biso   1.000  H
  H88      1.0000 0.27100  0.03600  0.42180  Biso   1.000  H
  H89      1.0000 0.35060  0.02760  0.43100  Biso   1.000  H
  H90      1.0000 0.27890  0.03330  0.46300  Biso   1.000  H
  H91      1.0000 0.28510  0.32410  0.30360  Biso   1.000  H
  H92      1.0000 0.28900  0.47330  0.34900  Biso   1.000  H
  H93      1.0000 0.30170  0.39830  0.37160  Biso   1.000  H
  H94      1.0000 0.36400  0.43890  0.33520  Biso   1.000  H
  H95      1.0000 0.19900  0.46840  0.31120  Biso   1.000  H
  H96      1.0000 0.22840  0.43180  0.27900  Biso   1.000  H
  H97      1.0000 0.17060  0.39170  0.31720  Biso   1.000  H
  H98      1.0000 0.56090  0.27630  0.26660  Biso   1.000  H
  H99      1.0000 0.68700  0.25090  0.34040  Biso   1.000  H
  H100     1.0000 0.60700  0.27920  0.35180  Biso   1.000  H
  H101     1.0000 0.61350  0.20170  0.35140  Biso   1.000  H
  H102     1.0000 0.74250  0.28460  0.27460  Biso   1.000  H
  H103     1.0000 0.69810  0.25180  0.25180  Biso   1.000  H
  H104     1.0000 0.69270  0.33030  0.25020  Biso   1.000  H
  H105     1.0000 0.89300  0.83780  0.24100  Biso   1.000  H
  H106     1.0000 0.94940  0.99930  0.14720  Biso   1.000  H
  H107     1.0000 0.91800  0.80820  0.13760  Biso   1.000  H
  H108     1.0000 0.91390  0.09010  0.00200  Biso   1.000  H
  H109     1.0000 0.65740  0.10140  0.25760  Biso   1.000  H
  H110     1.0000 0.68640  0.02130  0.36320  Biso   1.000  H
  H111     1.0000 0.48560  0.09210  0.34980  Biso   1.000  H
  H112     1.0000 0.60230  0.07320  0.50000  Biso   1.000  H
  H113     1.0000 0.79690  0.96600  0.38160  Biso   1.000  H
  H114     1.0000 0.77100  0.04220  0.42180  Biso   1.000  H
  H115     1.0000 0.85060  0.04140  0.43100  Biso   1.000  H
  H116     1.0000 0.77890  0.00370  0.46300  Biso   1.000  H
  H117     1.0000 0.78510  0.87230  0.30360  Biso   1.000  H
  H118     1.0000 0.78900  0.67770  0.34900  Biso   1.000  H
  H119     1.0000 0.80170  0.73010  0.37160  Biso   1.000  H
  H120     1.0000 0.86400  0.72590  0.33520  Biso   1.000  H
  H121     1.0000 0.69900  0.72040  0.31120  Biso   1.000  H
  H122     1.0000 0.72840  0.78920  0.27900  Biso   1.000  H
  H123     1.0000 0.67060  0.79110  0.31720  Biso   1.000  H
  H124     1.0000 0.06090  0.95710  0.26660  Biso   1.000  H
  H125     1.0000 0.18700  0.90870  0.34040  Biso   1.000  H
  H126     1.0000 0.10700  0.86900  0.35180  Biso   1.000  H
  H127     1.0000 0.11350  0.94690  0.35140  Biso   1.000  H
  H128     1.0000 0.24250  0.94080  0.27460  Biso   1.000  H
  H129     1.0000 0.19810  0.99640  0.25180  Biso   1.000  H
  H130     1.0000 0.19270  0.91950  0.25020  Biso   1.000  H
  H131     1.0000 0.36600  0.92120  0.24100  Biso   1.000  H
  H132     1.0000 0.40340  0.85350  0.14720  Biso   1.000  H
  H133     1.0000 0.44440  0.05420  0.13760  Biso   1.000  H
  H134     1.0000 0.58410  0.90790  0.00200  Biso   1.000  H
  H135     1.0000 0.58500  0.64100  0.25760  Biso   1.000  H
  H136     1.0000 0.45040  0.61550  0.36320  Biso   1.000  H
  H137     1.0000 0.66460  0.55810  0.34980  Biso   1.000  H
  H138     1.0000 0.39770  0.42680  0.50000  Biso   1.000  H
  H139     1.0000 0.32150  0.65240  0.38160  Biso   1.000  H
  H140     1.0000 0.30720  0.53600  0.42180  Biso   1.000  H
  H141     1.0000 0.21840  0.52760  0.43100  Biso   1.000  H
  H142     1.0000 0.25810  0.53330  0.46300  Biso   1.000  H
  H143     1.0000 0.41130  0.82410  0.30360  Biso   1.000  H
  H144     1.0000 0.36200  0.97330  0.34900  Biso   1.000  H
  H145     1.0000 0.32670  0.89830  0.37160  Biso   1.000  H
  H146     1.0000 0.30080  0.93890  0.33520  Biso   1.000  H
  H147     1.0000 0.48980  0.96840  0.31120  Biso   1.000  H
  H148     1.0000 0.49260  0.93180  0.27900  Biso   1.000  H
  H149     1.0000 0.51220  0.89170  0.31720  Biso   1.000  H
  H150     1.0000 0.17250  0.77630  0.26660  Biso   1.000  H
  H151     1.0000 0.97260  0.75090  0.34040  Biso   1.000  H
  H152     1.0000 0.04120  0.77920  0.35180  Biso   1.000  H
  H153     1.0000 0.03510  0.70170  0.35140  Biso   1.000  H
  H154     1.0000 0.98290  0.78460  0.27460  Biso   1.000  H
  H155     1.0000 0.05010  0.75180  0.25180  Biso   1.000  H
  H156     1.0000 0.05710  0.83030  0.25020  Biso   1.000  H
  H157     1.0000 0.13400  0.66220  0.75900  Biso   1.000  H
  H158     1.0000 0.09660  0.50070  0.85280  Biso   1.000  H
  H159     1.0000 0.05560  0.69180  0.86240  Biso   1.000  H
  H160     1.0000 0.91590  0.40990  0.99800  Biso   1.000  H
  H161     1.0000 0.91500  0.39860  0.74240  Biso   1.000  H
  H162     1.0000 0.04960  0.47870  0.63680  Biso   1.000  H
  H163     1.0000 0.83540  0.40790  0.65020  Biso   1.000  H
  H164     1.0000 0.10230  0.42680  0.50000  Biso   1.000  H
  H165     1.0000 0.17850  0.53400  0.61840  Biso   1.000  H
  H166     1.0000 0.19280  0.45780  0.57820  Biso   1.000  H
  H167     1.0000 0.28160  0.45860  0.56900  Biso   1.000  H
  H168     1.0000 0.24190  0.49630  0.53700  Biso   1.000  H
  H169     1.0000 0.08870  0.62770  0.69640  Biso   1.000  H
  H170     1.0000 0.13800  0.82230  0.65100  Biso   1.000  H
  H171     1.0000 0.17330  0.76990  0.62840  Biso   1.000  H
  H172     1.0000 0.19920  0.77410  0.66480  Biso   1.000  H
  H173     1.0000 0.01020  0.77960  0.68880  Biso   1.000  H
  H174     1.0000 0.00740  0.71080  0.72100  Biso   1.000  H
  H175     1.0000 0.98780  0.70890  0.68280  Biso   1.000  H
  H176     1.0000 0.32750  0.54290  0.73340  Biso   1.000  H
  H177     1.0000 0.52740  0.59130  0.65960  Biso   1.000  H
  H178     1.0000 0.45880  0.63100  0.64820  Biso   1.000  H
  H179     1.0000 0.46490  0.55310  0.64860  Biso   1.000  H
  H180     1.0000 0.51710  0.55920  0.72540  Biso   1.000  H
  H181     1.0000 0.44990  0.50360  0.74820  Biso   1.000  H
  H182     1.0000 0.44290  0.58050  0.74980  Biso   1.000  H
  H183     1.0000 0.60700  0.57880  0.75900  Biso   1.000  H
  H184     1.0000 0.55060  0.64650  0.85280  Biso   1.000  H
  H185     1.0000 0.58200  0.44580  0.86240  Biso   1.000  H
  H186     1.0000 0.58610  0.59210  0.99800  Biso   1.000  H
  H187     1.0000 0.84260  0.85900  0.74240  Biso   1.000  H
  H188     1.0000 0.81360  0.88450  0.63680  Biso   1.000  H
  H189     1.0000 0.01440  0.94190  0.65020  Biso   1.000  H
  H190     1.0000 0.89770  0.07320  0.50000  Biso   1.000  H
  H191     1.0000 0.70310  0.84760  0.61840  Biso   1.000  H
  H192     1.0000 0.72900  0.96400  0.57820  Biso   1.000  H
  H193     1.0000 0.64940  0.97240  0.56900  Biso   1.000  H
  H194     1.0000 0.72110  0.96670  0.53700  Biso   1.000  H
  H195     1.0000 0.71490  0.67590  0.69640  Biso   1.000  H
  H196     1.0000 0.71100  0.52670  0.65100  Biso   1.000  H
  H197     1.0000 0.69830  0.60170  0.62840  Biso   1.000  H
  H198     1.0000 0.63600  0.56110  0.66480  Biso   1.000  H
  H199     1.0000 0.80100  0.53160  0.68880  Biso   1.000  H
  H200     1.0000 0.77160  0.56820  0.72100  Biso   1.000  H
  H201     1.0000 0.82940  0.60830  0.68280  Biso   1.000  H
  H202     1.0000 0.43910  0.72370  0.73340  Biso   1.000  H
  H203     1.0000 0.31300  0.74910  0.65960  Biso   1.000  H
  H204     1.0000 0.39300  0.72080  0.64820  Biso   1.000  H
  H205     1.0000 0.38650  0.79830  0.64860  Biso   1.000  H
  H206     1.0000 0.25750  0.71540  0.72540  Biso   1.000  H
  H207     1.0000 0.30190  0.74820  0.74820  Biso   1.000  H
  H208     1.0000 0.30730  0.66970  0.74980  Biso   1.000  H
  C1       1.0000 0.09658  0.14438  0.78544  Biso   1.000  C
  C2       1.0000 0.07977  0.07327  0.80166  Biso   1.000  C
  C3       1.0000 0.07886  0.02506  0.77688  Biso   1.000  C
  C4       1.0000 0.06319  0.04769  0.84122  Biso   1.000  C
  C5       1.0000 0.06545  0.09205  0.86350  Biso   1.000  C
  C6       1.0000 0.08184  0.16224  0.84712  Biso   1.000  C
  C7       1.0000 0.09802  0.18812  0.80736  Biso   1.000  C
  C8       1.0000 0.11790  0.26370  0.78800  Biso   1.000  C
  C9       1.0000 0.07080  0.00560  0.92580  Biso   1.000  C
  C10      1.0000 0.03970  0.00050  0.96320  Biso   1.000  C
  C11      1.0000 0.05040  0.94290  0.99840  Biso   1.000  C
  C12      1.0000 0.00770  0.04940  0.96660  Biso   1.000  C
  C13      1.0000 0.99690  0.09280  0.92880  Biso   1.000  C
  C14      1.0000 0.36184  0.91104  0.71592  Biso   1.000  C
  C15      1.0000 0.31644  0.94014  0.69232  Biso   1.000  C
  C16      1.0000 0.23495  0.95455  0.70830  Biso   1.000  C
  C17      1.0000 0.34428  0.95808  0.65264  Biso   1.000  C
  C18      1.0000 0.41739  0.94479  0.63722  Biso   1.000  C
  C19      1.0000 0.46470  0.91610  0.66080  Biso   1.000  C
  C20      1.0000 0.43710  0.90010  0.70000  Biso   1.000  C
  C21      1.0000 0.48671  0.87091  0.72598  Biso   1.000  C
  C22      1.0000 0.40705  0.93365  0.57390  Biso   1.000  C
  C23      1.0000 0.45194  0.96504  0.53392  Biso   1.000  C
  C24      1.0000 0.43803  0.95533  0.49994  Biso   1.000  C
  C25      1.0000 0.51014  0.00784  0.53352  Biso   1.000  C
  C26      1.0000 0.50647  0.00667  0.57426  Biso   1.000  C
  C27      1.0000 0.15839  0.03359  0.61062  Biso   1.000  C
  C28      1.0000 0.19660  0.98480  0.56400  Biso   1.000  C
  C29      1.0000 0.19620  0.16320  0.68020  Biso   1.000  C
  C30      1.0000 0.18961  0.27721  0.65338  Biso   1.000  C
  C31      1.0000 0.28685  0.23135  0.69390  Biso   1.000  C
  C32      1.0000 0.93703  0.05853  0.70794  Biso   1.000  C
  C33      1.0000 0.86486  0.08726  0.66088  Biso   1.000  C
  C34      1.0000 0.80320  0.05120  0.73380  Biso   1.000  C
  C35      1.0000 0.61798  0.07018  0.78544  Biso   1.000  C
  C36      1.0000 0.61857  0.12507  0.80166  Biso   1.000  C
  C37      1.0000 0.64426  0.19806  0.77688  Biso   1.000  C
  C38      1.0000 0.59559  0.11109  0.84122  Biso   1.000  C
  C39      1.0000 0.57105  0.04445  0.86350  Biso   1.000  C
  C40      1.0000 0.57104  0.99064  0.84712  Biso   1.000  C
  C41      1.0000 0.59462  0.00452  0.80736  Biso   1.000  C
  C42      1.0000 0.59410  0.94830  0.78800  Biso   1.000  C
  C43      1.0000 0.50340  0.06860  0.92580  Biso   1.000  C
  C44      1.0000 0.49710  0.03630  0.96320  Biso   1.000  C
  C45      1.0000 0.45120  0.05870  0.99840  Biso   1.000  C
  C46      1.0000 0.52570  0.98400  0.96660  Biso   1.000  C
  C47      1.0000 0.57430  0.97840  0.92880  Biso   1.000  C
  C48      1.0000 0.42224  0.37304  0.71592  Biso   1.000  C
  C49      1.0000 0.49124  0.36754  0.69232  Biso   1.000  C
  C50      1.0000 0.55675  0.33715  0.70830  Biso   1.000  C
  C51      1.0000 0.50308  0.38928  0.65264  Biso   1.000  C
  C52      1.0000 0.44539  0.41799  0.63722  Biso   1.000  C
  C53      1.0000 0.37450  0.42310  0.66080  Biso   1.000  C
  C54      1.0000 0.36290  0.39990  0.70000  Biso   1.000  C
  C55      1.0000 0.28731  0.40311  0.72598  Biso   1.000  C
  C56      1.0000 0.51905  0.49245  0.57390  Biso   1.000  C
  C57      1.0000 0.51414  0.50104  0.53392  Biso   1.000  C
  C58      1.0000 0.56203  0.54473  0.49994  Biso   1.000  C
  C59      1.0000 0.45634  0.45864  0.53352  Biso   1.000  C
  C60      1.0000 0.41927  0.41907  0.57426  Biso   1.000  C
  C61      1.0000 0.73099  0.35579  0.61062  Biso   1.000  C
  C62      1.0000 0.73940  0.45120  0.56400  Biso   1.000  C
  C63      1.0000 0.62360  0.15660  0.68020  Biso   1.000  C
  C64      1.0000 0.65701  0.06941  0.65338  Biso   1.000  C
  C65      1.0000 0.51925  0.07475  0.69390  Biso   1.000  C
  C66      1.0000 0.85503  0.23353  0.70794  Biso   1.000  C
  C67      1.0000 0.97426  0.25186  0.66088  Biso   1.000  C
  C68      1.0000 0.96300  0.21500  0.73380  Biso   1.000  C
  C69      1.0000 0.88202  0.35562  0.21456  Biso   1.000  C
  C70      1.0000 0.88143  0.42673  0.19834  Biso   1.000  C
  C71      1.0000 0.85574  0.47494  0.22312  Biso   1.000  C
  C72      1.0000 0.90441  0.45231  0.15878  Biso   1.000  C
  C73      1.0000 0.92895  0.40795  0.13650  Biso   1.000  C
  C74      1.0000 0.92896  0.33776  0.15288  Biso   1.000  C
  C75      1.0000 0.90538  0.31188  0.19264  Biso   1.000  C
  C76      1.0000 0.90590  0.23630  0.21200  Biso   1.000  C
  C77      1.0000 0.99660  0.49440  0.07420  Biso   1.000  C
  C78      1.0000 0.00290  0.49950  0.03680  Biso   1.000  C
  C79      1.0000 0.04880  0.55710  0.00160  Biso   1.000  C
  C80      1.0000 0.97430  0.45060  0.03340  Biso   1.000  C
  C81      1.0000 0.92570  0.40720  0.07120  Biso   1.000  C
  C82      1.0000 0.07776  0.58896  0.28408  Biso   1.000  C
  C83      1.0000 0.00876  0.55986  0.30768  Biso   1.000  C
  C84      1.0000 0.94325  0.54545  0.29170  Biso   1.000  C
  C85      1.0000 0.99692  0.54192  0.34736  Biso   1.000  C
  C86      1.0000 0.05461  0.55521  0.36278  Biso   1.000  C
  C87      1.0000 0.12550  0.58390  0.33920  Biso   1.000  C
  C88      1.0000 0.13710  0.59990  0.30000  Biso   1.000  C
  C89      1.0000 0.21269  0.62909  0.27402  Biso   1.000  C
  C90      1.0000 0.98095  0.56635  0.42610  Biso   1.000  C
  C91      1.0000 0.98586  0.53496  0.46608  Biso   1.000  C
  C92      1.0000 0.93797  0.54467  0.50006  Biso   1.000  C
  C93      1.0000 0.04366  0.49216  0.46648  Biso   1.000  C
  C94      1.0000 0.08073  0.49333  0.42574  Biso   1.000  C
  C95      1.0000 0.76901  0.46641  0.38938  Biso   1.000  C
  C96      1.0000 0.76060  0.51520  0.43600  Biso   1.000  C
  C97      1.0000 0.87640  0.33680  0.31980  Biso   1.000  C
  C98      1.0000 0.84299  0.22279  0.34662  Biso   1.000  C
  C99      1.0000 0.98075  0.26865  0.30610  Biso   1.000  C
  C100     1.0000 0.64497  0.44147  0.29206  Biso   1.000  C
  C101     1.0000 0.52574  0.41274  0.33912  Biso   1.000  C
  C102     1.0000 0.53700  0.44880  0.26620  Biso   1.000  C
  C103     1.0000 0.40342  0.42982  0.21456  Biso   1.000  C
  C104     1.0000 0.42023  0.37493  0.19834  Biso   1.000  C
  C105     1.0000 0.42114  0.30194  0.22312  Biso   1.000  C
  C106     1.0000 0.43681  0.38891  0.15878  Biso   1.000  C
  C107     1.0000 0.43455  0.45555  0.13650  Biso   1.000  C
  C108     1.0000 0.41816  0.50936  0.15288  Biso   1.000  C
  C109     1.0000 0.40198  0.49548  0.19264  Biso   1.000  C
  C110     1.0000 0.38210  0.55170  0.21200  Biso   1.000  C
  C111     1.0000 0.42920  0.43140  0.07420  Biso   1.000  C
  C112     1.0000 0.46030  0.46370  0.03680  Biso   1.000  C
  C113     1.0000 0.44960  0.44130  0.00160  Biso   1.000  C
  C114     1.0000 0.49230  0.51600  0.03340  Biso   1.000  C
  C115     1.0000 0.50310  0.52160  0.07120  Biso   1.000  C
  C116     1.0000 0.13816  0.12696  0.28408  Biso   1.000  C
  C117     1.0000 0.18356  0.13246  0.30768  Biso   1.000  C
  C118     1.0000 0.26505  0.16285  0.29170  Biso   1.000  C
  C119     1.0000 0.15572  0.11072  0.34736  Biso   1.000  C
  C120     1.0000 0.08261  0.08201  0.36278  Biso   1.000  C
  C121     1.0000 0.03530  0.07690  0.33920  Biso   1.000  C
  C122     1.0000 0.06290  0.10010  0.30000  Biso   1.000  C
  C123     1.0000 0.01329  0.09689  0.27402  Biso   1.000  C
  C124     1.0000 0.09295  0.00755  0.42610  Biso   1.000  C
  C125     1.0000 0.04806  0.99896  0.46608  Biso   1.000  C
  C126     1.0000 0.06197  0.95527  0.50006  Biso   1.000  C
  C127     1.0000 0.98986  0.04136  0.46648  Biso   1.000  C
  C128     1.0000 0.99353  0.08093  0.42574  Biso   1.000  C
  C129     1.0000 0.34161  0.14421  0.38938  Biso   1.000  C
  C130     1.0000 0.30340  0.04880  0.43600  Biso   1.000  C
  C131     1.0000 0.30380  0.34340  0.31980  Biso   1.000  C
  C132     1.0000 0.31039  0.43059  0.34662  Biso   1.000  C
  C133     1.0000 0.21315  0.42525  0.30610  Biso   1.000  C
  C134     1.0000 0.56297  0.26647  0.29206  Biso   1.000  C
  C135     1.0000 0.63514  0.24814  0.33912  Biso   1.000  C
  C136     1.0000 0.69680  0.28500  0.26620  Biso   1.000  C
  C137     1.0000 0.90342  0.85562  0.21456  Biso   1.000  C
  C138     1.0000 0.92023  0.92673  0.19834  Biso   1.000  C
  C139     1.0000 0.92114  0.97494  0.22312  Biso   1.000  C
  C140     1.0000 0.93681  0.95231  0.15878  Biso   1.000  C
  C141     1.0000 0.93455  0.90795  0.13650  Biso   1.000  C
  C142     1.0000 0.91816  0.83776  0.15288  Biso   1.000  C
  C143     1.0000 0.90198  0.81188  0.19264  Biso   1.000  C
  C144     1.0000 0.88210  0.73630  0.21200  Biso   1.000  C
  C145     1.0000 0.92920  0.99440  0.07420  Biso   1.000  C
  C146     1.0000 0.96030  0.99950  0.03680  Biso   1.000  C
  C147     1.0000 0.94960  0.05710  0.00160  Biso   1.000  C
  C148     1.0000 0.99230  0.95060  0.03340  Biso   1.000  C
  C149     1.0000 0.00310  0.90720  0.07120  Biso   1.000  C
  C150     1.0000 0.63816  0.08896  0.28408  Biso   1.000  C
  C151     1.0000 0.68356  0.05986  0.30768  Biso   1.000  C
  C152     1.0000 0.76505  0.04545  0.29170  Biso   1.000  C
  C153     1.0000 0.65572  0.04192  0.34736  Biso   1.000  C
  C154     1.0000 0.58261  0.05521  0.36278  Biso   1.000  C
  C155     1.0000 0.53530  0.08390  0.33920  Biso   1.000  C
  C156     1.0000 0.56290  0.09990  0.30000  Biso   1.000  C
  C157     1.0000 0.51329  0.12909  0.27402  Biso   1.000  C
  C158     1.0000 0.59295  0.06635  0.42610  Biso   1.000  C
  C159     1.0000 0.54806  0.03496  0.46608  Biso   1.000  C
  C160     1.0000 0.56197  0.04467  0.50006  Biso   1.000  C
  C161     1.0000 0.48986  0.99216  0.46648  Biso   1.000  C
  C162     1.0000 0.49353  0.99333  0.42574  Biso   1.000  C
  C163     1.0000 0.84161  0.96641  0.38938  Biso   1.000  C
  C164     1.0000 0.80340  0.01520  0.43600  Biso   1.000  C
  C165     1.0000 0.80380  0.83680  0.31980  Biso   1.000  C
  C166     1.0000 0.81039  0.72279  0.34662  Biso   1.000  C
  C167     1.0000 0.71315  0.76865  0.30610  Biso   1.000  C
  C168     1.0000 0.06297  0.94147  0.29206  Biso   1.000  C
  C169     1.0000 0.13514  0.91274  0.33912  Biso   1.000  C
  C170     1.0000 0.19680  0.94880  0.26620  Biso   1.000  C
  C171     1.0000 0.38202  0.92982  0.21456  Biso   1.000  C
  C172     1.0000 0.38143  0.87493  0.19834  Biso   1.000  C
  C173     1.0000 0.35574  0.80194  0.22312  Biso   1.000  C
  C174     1.0000 0.40441  0.88891  0.15878  Biso   1.000  C
  C175     1.0000 0.42895  0.95555  0.13650  Biso   1.000  C
  C176     1.0000 0.42896  0.00936  0.15288  Biso   1.000  C
  C177     1.0000 0.40538  0.99548  0.19264  Biso   1.000  C
  C178     1.0000 0.40590  0.05170  0.21200  Biso   1.000  C
  C179     1.0000 0.49660  0.93140  0.07420  Biso   1.000  C
  C180     1.0000 0.50290  0.96370  0.03680  Biso   1.000  C
  C181     1.0000 0.54880  0.94130  0.00160  Biso   1.000  C
  C182     1.0000 0.47430  0.01600  0.03340  Biso   1.000  C
  C183     1.0000 0.42570  0.02160  0.07120  Biso   1.000  C
  C184     1.0000 0.57776  0.62696  0.28408  Biso   1.000  C
  C185     1.0000 0.50876  0.63246  0.30768  Biso   1.000  C
  C186     1.0000 0.44325  0.66285  0.29170  Biso   1.000  C
  C187     1.0000 0.49692  0.61072  0.34736  Biso   1.000  C
  C188     1.0000 0.55461  0.58201  0.36278  Biso   1.000  C
  C189     1.0000 0.62550  0.57690  0.33920  Biso   1.000  C
  C190     1.0000 0.63710  0.60010  0.30000  Biso   1.000  C
  C191     1.0000 0.71269  0.59689  0.27402  Biso   1.000  C
  C192     1.0000 0.48095  0.50755  0.42610  Biso   1.000  C
  C193     1.0000 0.48586  0.49896  0.46608  Biso   1.000  C
  C194     1.0000 0.43797  0.45527  0.50006  Biso   1.000  C
  C195     1.0000 0.54366  0.54136  0.46648  Biso   1.000  C
  C196     1.0000 0.58073  0.58093  0.42574  Biso   1.000  C
  C197     1.0000 0.26901  0.64421  0.38938  Biso   1.000  C
  C198     1.0000 0.26060  0.54880  0.43600  Biso   1.000  C
  C199     1.0000 0.37640  0.84340  0.31980  Biso   1.000  C
  C200     1.0000 0.34299  0.93059  0.34662  Biso   1.000  C
  C201     1.0000 0.48075  0.92525  0.30610  Biso   1.000  C
  C202     1.0000 0.14497  0.76647  0.29206  Biso   1.000  C
  C203     1.0000 0.02574  0.74814  0.33912  Biso   1.000  C
  C204     1.0000 0.03700  0.78500  0.26620  Biso   1.000  C
  C205     1.0000 0.11798  0.64438  0.78544  Biso   1.000  C
  C206     1.0000 0.11857  0.57327  0.80166  Biso   1.000  C
  C207     1.0000 0.14426  0.52506  0.77688  Biso   1.000  C
  C208     1.0000 0.09559  0.54769  0.84122  Biso   1.000  C
  C209     1.0000 0.07105  0.59205  0.86350  Biso   1.000  C
  C210     1.0000 0.07104  0.66224  0.84712  Biso   1.000  C
  C211     1.0000 0.09462  0.68812  0.80736  Biso   1.000  C
  C212     1.0000 0.09410  0.76370  0.78800  Biso   1.000  C
  C213     1.0000 0.00340  0.50560  0.92580  Biso   1.000  C
  C214     1.0000 0.99710  0.50050  0.96320  Biso   1.000  C
  C215     1.0000 0.95120  0.44290  0.99840  Biso   1.000  C
  C216     1.0000 0.02570  0.54940  0.96660  Biso   1.000  C
  C217     1.0000 0.07430  0.59280  0.92880  Biso   1.000  C
  C218     1.0000 0.92224  0.41104  0.71592  Biso   1.000  C
  C219     1.0000 0.99124  0.44014  0.69232  Biso   1.000  C
  C220     1.0000 0.05675  0.45455  0.70830  Biso   1.000  C
  C221     1.0000 0.00308  0.45808  0.65264  Biso   1.000  C
  C222     1.0000 0.94539  0.44479  0.63722  Biso   1.000  C
  C223     1.0000 0.87450  0.41610  0.66080  Biso   1.000  C
  C224     1.0000 0.86290  0.40010  0.70000  Biso   1.000  C
  C225     1.0000 0.78731  0.37091  0.72598  Biso   1.000  C
  C226     1.0000 0.01905  0.43365  0.57390  Biso   1.000  C
  C227     1.0000 0.01414  0.46504  0.53392  Biso   1.000  C
  C228     1.0000 0.06203  0.45533  0.49994  Biso   1.000  C
  C229     1.0000 0.95634  0.50784  0.53352  Biso   1.000  C
  C230     1.0000 0.91927  0.50667  0.57426  Biso   1.000  C
  C231     1.0000 0.23099  0.53359  0.61062  Biso   1.000  C
  C232     1.0000 0.23940  0.48480  0.56400  Biso   1.000  C
  C233     1.0000 0.12360  0.66320  0.68020  Biso   1.000  C
  C234     1.0000 0.15701  0.77721  0.65338  Biso   1.000  C
  C235     1.0000 0.01925  0.73135  0.69390  Biso   1.000  C
  C236     1.0000 0.35503  0.55853  0.70794  Biso   1.000  C
  C237     1.0000 0.47426  0.58726  0.66088  Biso   1.000  C
  C238     1.0000 0.46300  0.55120  0.73380  Biso   1.000  C
  C239     1.0000 0.59658  0.57018  0.78544  Biso   1.000  C
  C240     1.0000 0.57977  0.62507  0.80166  Biso   1.000  C
  C241     1.0000 0.57886  0.69806  0.77688  Biso   1.000  C
  C242     1.0000 0.56319  0.61109  0.84122  Biso   1.000  C
  C243     1.0000 0.56545  0.54445  0.86350  Biso   1.000  C
  C244     1.0000 0.58184  0.49064  0.84712  Biso   1.000  C
  C245     1.0000 0.59802  0.50452  0.80736  Biso   1.000  C
  C246     1.0000 0.61790  0.44830  0.78800  Biso   1.000  C
  C247     1.0000 0.57080  0.56860  0.92580  Biso   1.000  C
  C248     1.0000 0.53970  0.53630  0.96320  Biso   1.000  C
  C249     1.0000 0.55040  0.55870  0.99840  Biso   1.000  C
  C250     1.0000 0.50770  0.48400  0.96660  Biso   1.000  C
  C251     1.0000 0.49690  0.47840  0.92880  Biso   1.000  C
  C252     1.0000 0.86184  0.87304  0.71592  Biso   1.000  C
  C253     1.0000 0.81644  0.86754  0.69232  Biso   1.000  C
  C254     1.0000 0.73495  0.83715  0.70830  Biso   1.000  C
  C255     1.0000 0.84428  0.88928  0.65264  Biso   1.000  C
  C256     1.0000 0.91739  0.91799  0.63722  Biso   1.000  C
  C257     1.0000 0.96470  0.92310  0.66080  Biso   1.000  C
  C258     1.0000 0.93710  0.89990  0.70000  Biso   1.000  C
  C259     1.0000 0.98671  0.90311  0.72598  Biso   1.000  C
  C260     1.0000 0.90705  0.99245  0.57390  Biso   1.000  C
  C261     1.0000 0.95194  0.00104  0.53392  Biso   1.000  C
  C262     1.0000 0.93803  0.04473  0.49994  Biso   1.000  C
  C263     1.0000 0.01014  0.95864  0.53352  Biso   1.000  C
  C264     1.0000 0.00647  0.91907  0.57426  Biso   1.000  C
  C265     1.0000 0.65839  0.85579  0.61062  Biso   1.000  C
  C266     1.0000 0.69660  0.95120  0.56400  Biso   1.000  C
  C267     1.0000 0.69620  0.65660  0.68020  Biso   1.000  C
  C268     1.0000 0.68961  0.56941  0.65338  Biso   1.000  C
  C269     1.0000 0.78685  0.57475  0.69390  Biso   1.000  C
  C270     1.0000 0.43703  0.73353  0.70794  Biso   1.000  C
  C271     1.0000 0.36486  0.75186  0.66088  Biso   1.000  C
  C272     1.0000 0.30320  0.71500  0.73380  Biso   1.000  C
  N1       1.0000 0.04698  0.06568  0.90424  Biso   1.000  N
  N2       1.0000 0.44478  0.96038  0.59644  Biso   1.000  N
  N3       1.0000 0.18520  0.03610  0.57320  Biso   1.000  N
  N4       1.0000 0.22619  0.22389  0.67782  Biso   1.000  N
  N5       1.0000 0.86814  0.06634  0.70092  Biso   1.000  N
  N6       1.0000 0.54878  0.03008  0.90424  Biso   1.000  N
  N7       1.0000 0.45878  0.44318  0.59644  Biso   1.000  N
  N8       1.0000 0.74160  0.39070  0.57320  Biso   1.000  N
  N9       1.0000 0.59599  0.09829  0.67782  Biso   1.000  N
  N10      1.0000 0.93094  0.23274  0.70092  Biso   1.000  N
  N11      1.0000 0.95122  0.43432  0.09576  Biso   1.000  N
  N12      1.0000 0.04122  0.53962  0.40356  Biso   1.000  N
  N13      1.0000 0.75840  0.46390  0.42680  Biso   1.000  N
  N14      1.0000 0.90401  0.27611  0.32218  Biso   1.000  N
  N15      1.0000 0.56906  0.43366  0.29908  Biso   1.000  N
  N16      1.0000 0.45302  0.46992  0.09576  Biso   1.000  N
  N17      1.0000 0.05522  0.05682  0.40356  Biso   1.000  N
  N18      1.0000 0.31480  0.10930  0.42680  Biso   1.000  N
  N19      1.0000 0.27381  0.40171  0.32218  Biso   1.000  N
  N20      1.0000 0.63186  0.26726  0.29908  Biso   1.000  N
  N21      1.0000 0.95302  0.93432  0.09576  Biso   1.000  N
  N22      1.0000 0.55522  0.03962  0.40356  Biso   1.000  N
  N23      1.0000 0.81480  0.96390  0.42680  Biso   1.000  N
  N24      1.0000 0.77381  0.77611  0.32218  Biso   1.000  N
  N25      1.0000 0.13186  0.93366  0.29908  Biso   1.000  N
  N26      1.0000 0.45122  0.96992  0.09576  Biso   1.000  N
  N27      1.0000 0.54122  0.55682  0.40356  Biso   1.000  N
  N28      1.0000 0.25840  0.60930  0.42680  Biso   1.000  N
  N29      1.0000 0.40401  0.90171  0.32218  Biso   1.000  N
  N30      1.0000 0.06906  0.76726  0.29908  Biso   1.000  N
  N31      1.0000 0.04878  0.56568  0.90424  Biso   1.000  N
  N32      1.0000 0.95878  0.46038  0.59644  Biso   1.000  N
  N33      1.0000 0.24160  0.53610  0.57320  Biso   1.000  N
  N34      1.0000 0.09599  0.72389  0.67782  Biso   1.000  N
  N35      1.0000 0.43094  0.56634  0.70092  Biso   1.000  N
  N36      1.0000 0.54698  0.53008  0.90424  Biso   1.000  N
  N37      1.0000 0.94478  0.94318  0.59644  Biso   1.000  N
  N38      1.0000 0.68520  0.89070  0.57320  Biso   1.000  N
  N39      1.0000 0.72619  0.59829  0.67782  Biso   1.000  N
  N40      1.0000 0.36814  0.73274  0.70092  Biso   1.000  N
  O1       1.0000 0.08317  0.05387  0.74226  Biso   1.000  O
  O2       1.0000 0.07253  0.96207  0.79314  Biso   1.000  O
  O3       1.0000 0.14183  0.28383  0.75294  Biso   1.000  O
  O4       1.0000 0.10986  0.30609  0.80808  Biso   1.000  O
  O5       1.0000 0.12460  0.97360  0.91080  Biso   1.000  O
  O6       1.0000 0.96260  0.14330  0.91980  Biso   1.000  O
  O7       1.0000 0.20274  0.91514  0.74132  Biso   1.000  O
  O8       1.0000 0.20749  0.00079  0.68722  Biso   1.000  O
  O9       1.0000 0.46283  0.86233  0.76114  Biso   1.000  O
  O10      1.0000 0.55547  0.85862  0.71146  Biso   1.000  O
  O11      1.0000 0.35183  0.89453  0.58554  Biso   1.000  O
  O12      1.0000 0.54871  0.03551  0.58578  Biso   1.000  O
  O13      1.0000 0.12398  0.03178  0.63184  Biso   1.000  O
  O14      1.0000 0.14979  0.14119  0.66642  Biso   1.000  O
  O15      1.0000 0.99822  0.07062  0.68296  Biso   1.000  O
  O16      1.0000 0.67457  0.20387  0.74226  Biso   1.000  O
  O17      1.0000 0.63433  0.24479  0.79314  Biso   1.000  O
  O18      1.0000 0.60523  0.96323  0.75294  Biso   1.000  O
  O19      1.0000 0.58206  0.88583  0.80808  Biso   1.000  O
  O20      1.0000 0.46460  0.11560  0.91080  Biso   1.000  O
  O21      1.0000 0.61760  0.93690  0.91980  Biso   1.000  O
  O22      1.0000 0.55594  0.34354  0.74132  Biso   1.000  O
  O23      1.0000 0.60529  0.31199  0.68722  Biso   1.000  O
  O24      1.0000 0.27603  0.37653  0.76114  Biso   1.000  O
  O25      1.0000 0.23307  0.42992  0.71146  Biso   1.000  O
  O26      1.0000 0.56263  0.51993  0.58554  Biso   1.000  O
  O27      1.0000 0.36551  0.37871  0.58578  Biso   1.000  O
  O28      1.0000 0.74418  0.33638  0.63184  Biso   1.000  O
  O29      1.0000 0.68379  0.19239  0.66642  Biso   1.000  O
  O30      1.0000 0.81882  0.24642  0.68296  Biso   1.000  O
  O31      1.0000 0.82543  0.44613  0.25774  Biso   1.000  O
  O32      1.0000 0.86567  0.53793  0.20686  Biso   1.000  O
  O33      1.0000 0.89477  0.21617  0.24706  Biso   1.000  O
  O34      1.0000 0.91794  0.19391  0.19192  Biso   1.000  O
  O35      1.0000 0.03540  0.52640  0.08920  Biso   1.000  O
  O36      1.0000 0.88240  0.35670  0.08020  Biso   1.000  O
  O37      1.0000 0.94406  0.58486  0.25868  Biso   1.000  O
  O38      1.0000 0.89471  0.49921  0.31278  Biso   1.000  O
  O39      1.0000 0.22397  0.63767  0.23886  Biso   1.000  O
  O40      1.0000 0.26693  0.64138  0.28854  Biso   1.000  O
  O41      1.0000 0.93737  0.60547  0.41446  Biso   1.000  O
  O42      1.0000 0.13449  0.46449  0.41422  Biso   1.000  O
  O43      1.0000 0.75582  0.46822  0.36816  Biso   1.000  O
  O44      1.0000 0.81621  0.35881  0.33358  Biso   1.000  O
  O45      1.0000 0.68118  0.42938  0.31704  Biso   1.000  O
  O46      1.0000 0.41683  0.29613  0.25774  Biso   1.000  O
  O47      1.0000 0.42747  0.25521  0.20686  Biso   1.000  O
  O48      1.0000 0.35817  0.53677  0.24706  Biso   1.000  O
  O49      1.0000 0.39014  0.61417  0.19192  Biso   1.000  O
  O50      1.0000 0.37540  0.38440  0.08920  Biso   1.000  O
  O51      1.0000 0.53740  0.56310  0.08020  Biso   1.000  O
  O52      1.0000 0.29726  0.15646  0.25868  Biso   1.000  O
  O53      1.0000 0.29251  0.18801  0.31278  Biso   1.000  O
  O54      1.0000 0.03717  0.12347  0.23886  Biso   1.000  O
  O55      1.0000 0.94453  0.07008  0.28854  Biso   1.000  O
  O56      1.0000 0.14817  0.98007  0.41446  Biso   1.000  O
  O57      1.0000 0.95129  0.12129  0.41422  Biso   1.000  O
  O58      1.0000 0.37602  0.16362  0.36816  Biso   1.000  O
  O59      1.0000 0.35021  0.30761  0.33358  Biso   1.000  O
  O60      1.0000 0.50178  0.25358  0.31704  Biso   1.000  O
  O61      1.0000 0.91683  0.94613  0.25774  Biso   1.000  O
  O62      1.0000 0.92747  0.03793  0.20686  Biso   1.000  O
  O63      1.0000 0.85817  0.71617  0.24706  Biso   1.000  O
  O64      1.0000 0.89014  0.69391  0.19192  Biso   1.000  O
  O65      1.0000 0.87540  0.02640  0.08920  Biso   1.000  O
  O66      1.0000 0.03740  0.85670  0.08020  Biso   1.000  O
  O67      1.0000 0.79726  0.08486  0.25868  Biso   1.000  O
  O68      1.0000 0.79251  0.99921  0.31278  Biso   1.000  O
  O69      1.0000 0.53717  0.13767  0.23886  Biso   1.000  O
  O70      1.0000 0.44453  0.14138  0.28854  Biso   1.000  O
  O71      1.0000 0.64817  0.10547  0.41446  Biso   1.000  O
  O72      1.0000 0.45129  0.96449  0.41422  Biso   1.000  O
  O73      1.0000 0.87602  0.96822  0.36816  Biso   1.000  O
  O74      1.0000 0.85021  0.85881  0.33358  Biso   1.000  O
  O75      1.0000 0.00178  0.92938  0.31704  Biso   1.000  O
  O76      1.0000 0.32543  0.79613  0.25774  Biso   1.000  O
  O77      1.0000 0.36567  0.75521  0.20686  Biso   1.000  O
  O78      1.0000 0.39477  0.03677  0.24706  Biso   1.000  O
  O79      1.0000 0.41794  0.11417  0.19192  Biso   1.000  O
  O80      1.0000 0.53540  0.88440  0.08920  Biso   1.000  O
  O81      1.0000 0.38240  0.06310  0.08020  Biso   1.000  O
  O82      1.0000 0.44406  0.65646  0.25868  Biso   1.000  O
  O83      1.0000 0.39471  0.68801  0.31278  Biso   1.000  O
  O84      1.0000 0.72397  0.62347  0.23886  Biso   1.000  O
  O85      1.0000 0.76693  0.57008  0.28854  Biso   1.000  O
  O86      1.0000 0.43737  0.48007  0.41446  Biso   1.000  O
  O87      1.0000 0.63449  0.62129  0.41422  Biso   1.000  O
  O88      1.0000 0.25582  0.66362  0.36816  Biso   1.000  O
  O89      1.0000 0.31621  0.80761  0.33358  Biso   1.000  O
  O90      1.0000 0.18118  0.75358  0.31704  Biso   1.000  O
  O91      1.0000 0.17457  0.55387  0.74226  Biso   1.000  O
  O92      1.0000 0.13433  0.46207  0.79314  Biso   1.000  O
  O93      1.0000 0.10523  0.78383  0.75294  Biso   1.000  O
  O94      1.0000 0.08206  0.80609  0.80808  Biso   1.000  O
  O95      1.0000 0.96460  0.47360  0.91080  Biso   1.000  O
  O96      1.0000 0.11760  0.64330  0.91980  Biso   1.000  O
  O97      1.0000 0.05594  0.41514  0.74132  Biso   1.000  O
  O98      1.0000 0.10529  0.50079  0.68722  Biso   1.000  O
  O99      1.0000 0.77603  0.36233  0.76114  Biso   1.000  O
  O100     1.0000 0.73307  0.35862  0.71146  Biso   1.000  O
  O101     1.0000 0.06263  0.39453  0.58554  Biso   1.000  O
  O102     1.0000 0.86551  0.53551  0.58578  Biso   1.000  O
  O103     1.0000 0.24418  0.53178  0.63184  Biso   1.000  O
  O104     1.0000 0.18379  0.64119  0.66642  Biso   1.000  O
  O105     1.0000 0.31882  0.57062  0.68296  Biso   1.000  O
  O106     1.0000 0.58317  0.70387  0.74226  Biso   1.000  O
  O107     1.0000 0.57253  0.74479  0.79314  Biso   1.000  O
  O108     1.0000 0.64183  0.46323  0.75294  Biso   1.000  O
  O109     1.0000 0.60986  0.38583  0.80808  Biso   1.000  O
  O110     1.0000 0.62460  0.61560  0.91080  Biso   1.000  O
  O111     1.0000 0.46260  0.43690  0.91980  Biso   1.000  O
  O112     1.0000 0.70274  0.84354  0.74132  Biso   1.000  O
  O113     1.0000 0.70749  0.81199  0.68722  Biso   1.000  O
  O114     1.0000 0.96283  0.87653  0.76114  Biso   1.000  O
  O115     1.0000 0.05547  0.92992  0.71146  Biso   1.000  O
  O116     1.0000 0.85183  0.01993  0.58554  Biso   1.000  O
  O117     1.0000 0.04871  0.87871  0.58578  Biso   1.000  O
  O118     1.0000 0.62398  0.83638  0.63184  Biso   1.000  O
  O119     1.0000 0.64979  0.69239  0.66642  Biso   1.000  O
  O120     1.0000 0.49822  0.74642  0.68296  Biso   1.000  O
