data_image0
_cell_length_a       34.5146
_cell_length_b       34.5146
_cell_length_c       34.5146
_cell_angle_alpha    109.471
_cell_angle_beta     109.471
_cell_angle_gamma    109.471

_symmetry_space_group_name_H-M    P 1
_symmetry_int_tables_number       1

loop_
  _symmetry_equiv_pos_as_xyz
  'x, y, z'

loop_
  _atom_site_label
  _atom_site_occupancy
  _atom_site_fract_x
  _atom_site_fract_y
  _atom_site_fract_z
  _atom_site_thermal_displace_type
  _atom_site_B_iso_or_equiv
  _atom_site_type_symbol
  Ce1      1.0000 0.50000  0.50000  0.00000  Biso   1.000  Ce
  Ce2      1.0000 0.00000  0.50000  0.50000  Biso   1.000  Ce
  Ce3      1.0000 0.50000  0.00000  0.50000  Biso   1.000  Ce
  Ce4      1.0000 0.00000  0.00000  0.00000  Biso   1.000  Ce
  Ce5      1.0000 0.61713  0.61713  0.11713  Biso   1.000  Ce
  Ce6      1.0000 0.00000  0.50000  0.38287  Biso   1.000  Ce
  Ce7      1.0000 0.50000  0.88287  0.50000  Biso   1.000  Ce
  Ce8      1.0000 0.88287  0.00000  0.00000  Biso   1.000  Ce
  Ce9      1.0000 0.38287  0.38287  0.88287  Biso   1.000  Ce
  Ce10     1.0000 0.00000  0.50000  0.61713  Biso   1.000  Ce
  Ce11     1.0000 0.50000  0.11713  0.50000  Biso   1.000  Ce
  Ce12     1.0000 0.11713  0.00000  0.00000  Biso   1.000  Ce
  H1       1.0000 0.76430  0.90420  0.03230  Biso   1.000  H
  H2       1.0000 0.71500  0.83960  0.02700  Biso   1.000  H
  H3       1.0000 0.73160  0.75710  0.92630  Biso   1.000  H
  H4       1.0000 0.78340  0.82520  0.93240  Biso   1.000  H
  H5       1.0000 0.59520  0.58920  0.93880  Biso   1.000  H
  H6       1.0000 0.63990  0.65210  0.93300  Biso   1.000  H
  H7       1.0000 0.63530  0.74100  0.04050  Biso   1.000  H
  H8       1.0000 0.59420  0.67590  0.04770  Biso   1.000  H
  H9       1.0000 0.37190  0.73200  0.46770  Biso   1.000  H
  H10      1.0000 0.31260  0.68800  0.47300  Biso   1.000  H
  H11      1.0000 0.33080  0.80530  0.57370  Biso   1.000  H
  H12      1.0000 0.39280  0.85100  0.56760  Biso   1.000  H
  H13      1.0000 0.15040  0.65640  0.56120  Biso   1.000  H
  H14      1.0000 0.21910  0.70690  0.56700  Biso   1.000  H
  H15      1.0000 0.20050  0.59480  0.45950  Biso   1.000  H
  H16      1.0000 0.12820  0.54650  0.45230  Biso   1.000  H
  H17      1.0000 0.12810  0.59580  0.36010  Biso   1.000  H
  H18      1.0000 0.18740  0.66040  0.37540  Biso   1.000  H
  H19      1.0000 0.16920  0.74290  0.47450  Biso   1.000  H
  H20      1.0000 0.10720  0.67480  0.45820  Biso   1.000  H
  H21      1.0000 0.34960  0.91080  0.50600  Biso   1.000  H
  H22      1.0000 0.28090  0.84790  0.48780  Biso   1.000  H
  H23      1.0000 0.29950  0.75900  0.39430  Biso   1.000  H
  H24      1.0000 0.37180  0.82410  0.41830  Biso   1.000  H
  H25      1.0000 0.73570  0.76800  0.13990  Biso   1.000  H
  H26      1.0000 0.78500  0.81200  0.12460  Biso   1.000  H
  H27      1.0000 0.76840  0.69470  0.02550  Biso   1.000  H
  H28      1.0000 0.71660  0.64900  0.04180  Biso   1.000  H
  H29      1.0000 0.90480  0.84360  0.99400  Biso   1.000  H
  H30      1.0000 0.86010  0.79310  0.01220  Biso   1.000  H
  H31      1.0000 0.86470  0.90520  0.10570  Biso   1.000  H
  H32      1.0000 0.90580  0.95350  0.08170  Biso   1.000  H
  H33      1.0000 0.86010  0.12810  0.09580  Biso   1.000  H
  H34      1.0000 0.87540  0.18740  0.16040  Biso   1.000  H
  H35      1.0000 0.97450  0.16920  0.24290  Biso   1.000  H
  H36      1.0000 0.95820  0.10720  0.17480  Biso   1.000  H
  H37      1.0000 0.00600  0.34960  0.41080  Biso   1.000  H
  H38      1.0000 0.98780  0.28090  0.34790  Biso   1.000  H
  H39      1.0000 0.89430  0.29950  0.25900  Biso   1.000  H
  H40      1.0000 0.91830  0.37180  0.32410  Biso   1.000  H
  H41      1.0000 0.63990  0.73570  0.26800  Biso   1.000  H
  H42      1.0000 0.62460  0.78500  0.31200  Biso   1.000  H
  H43      1.0000 0.52550  0.76840  0.19470  Biso   1.000  H
  H44      1.0000 0.54180  0.71660  0.14900  Biso   1.000  H
  H45      1.0000 0.49400  0.90480  0.34360  Biso   1.000  H
  H46      1.0000 0.51220  0.86010  0.29310  Biso   1.000  H
  H47      1.0000 0.60570  0.86470  0.40520  Biso   1.000  H
  H48      1.0000 0.58170  0.90580  0.45350  Biso   1.000  H
  H49      1.0000 0.53230  0.76430  0.40420  Biso   1.000  H
  H50      1.0000 0.52700  0.71500  0.33960  Biso   1.000  H
  H51      1.0000 0.42630  0.73160  0.25710  Biso   1.000  H
  H52      1.0000 0.43240  0.78340  0.32520  Biso   1.000  H
  H53      1.0000 0.43880  0.59520  0.08920  Biso   1.000  H
  H54      1.0000 0.43300  0.63990  0.15210  Biso   1.000  H
  H55      1.0000 0.54050  0.63530  0.24100  Biso   1.000  H
  H56      1.0000 0.54770  0.59420  0.17590  Biso   1.000  H
  H57      1.0000 0.96770  0.37190  0.23200  Biso   1.000  H
  H58      1.0000 0.97300  0.31260  0.18800  Biso   1.000  H
  H59      1.0000 0.07370  0.33080  0.30530  Biso   1.000  H
  H60      1.0000 0.06760  0.39280  0.35100  Biso   1.000  H
  H61      1.0000 0.06120  0.15040  0.15640  Biso   1.000  H
  H62      1.0000 0.06700  0.21910  0.20690  Biso   1.000  H
  H63      1.0000 0.95950  0.20050  0.09480  Biso   1.000  H
  H64      1.0000 0.95230  0.12820  0.04650  Biso   1.000  H
  H65      1.0000 0.73200  0.96770  0.87190  Biso   1.000  H
  H66      1.0000 0.68800  0.97300  0.81260  Biso   1.000  H
  H67      1.0000 0.80530  0.07370  0.83080  Biso   1.000  H
  H68      1.0000 0.85100  0.06760  0.89280  Biso   1.000  H
  H69      1.0000 0.65640  0.06120  0.65040  Biso   1.000  H
  H70      1.0000 0.70690  0.06700  0.71910  Biso   1.000  H
  H71      1.0000 0.59480  0.95950  0.70050  Biso   1.000  H
  H72      1.0000 0.54650  0.95230  0.62820  Biso   1.000  H
  H73      1.0000 0.90420  0.53230  0.26430  Biso   1.000  H
  H74      1.0000 0.83960  0.52700  0.21500  Biso   1.000  H
  H75      1.0000 0.75710  0.42630  0.23160  Biso   1.000  H
  H76      1.0000 0.82520  0.43240  0.28340  Biso   1.000  H
  H77      1.0000 0.58920  0.43880  0.09520  Biso   1.000  H
  H78      1.0000 0.65210  0.43300  0.13990  Biso   1.000  H
  H79      1.0000 0.74100  0.54050  0.13530  Biso   1.000  H
  H80      1.0000 0.67590  0.54770  0.09420  Biso   1.000  H
  H81      1.0000 0.76800  0.63990  0.23570  Biso   1.000  H
  H82      1.0000 0.81200  0.62460  0.28500  Biso   1.000  H
  H83      1.0000 0.69470  0.52550  0.26840  Biso   1.000  H
  H84      1.0000 0.64900  0.54180  0.21660  Biso   1.000  H
  H85      1.0000 0.84360  0.49400  0.40480  Biso   1.000  H
  H86      1.0000 0.79310  0.51220  0.36010  Biso   1.000  H
  H87      1.0000 0.90520  0.60570  0.36470  Biso   1.000  H
  H88      1.0000 0.95350  0.58170  0.40580  Biso   1.000  H
  H89      1.0000 0.59580  0.86010  0.62810  Biso   1.000  H
  H90      1.0000 0.66040  0.87540  0.68740  Biso   1.000  H
  H91      1.0000 0.74290  0.97450  0.66920  Biso   1.000  H
  H92      1.0000 0.67480  0.95820  0.60720  Biso   1.000  H
  H93      1.0000 0.91080  0.00600  0.84960  Biso   1.000  H
  H94      1.0000 0.84790  0.98780  0.78090  Biso   1.000  H
  H95      1.0000 0.75900  0.89430  0.79950  Biso   1.000  H
  H96      1.0000 0.82410  0.91830  0.87180  Biso   1.000  H
  H97      1.0000 0.23570  0.09580  0.96770  Biso   1.000  H
  H98      1.0000 0.28500  0.16040  0.97300  Biso   1.000  H
  H99      1.0000 0.26840  0.24290  0.07370  Biso   1.000  H
  H100     1.0000 0.21660  0.17480  0.06760  Biso   1.000  H
  H101     1.0000 0.40480  0.41080  0.06120  Biso   1.000  H
  H102     1.0000 0.36010  0.34790  0.06700  Biso   1.000  H
  H103     1.0000 0.36470  0.25900  0.95950  Biso   1.000  H
  H104     1.0000 0.40580  0.32410  0.95230  Biso   1.000  H
  H105     1.0000 0.62810  0.26800  0.53230  Biso   1.000  H
  H106     1.0000 0.68740  0.31200  0.52700  Biso   1.000  H
  H107     1.0000 0.66920  0.19470  0.42630  Biso   1.000  H
  H108     1.0000 0.60720  0.14900  0.43240  Biso   1.000  H
  H109     1.0000 0.84960  0.34360  0.43880  Biso   1.000  H
  H110     1.0000 0.78090  0.29310  0.43300  Biso   1.000  H
  H111     1.0000 0.79950  0.40520  0.54050  Biso   1.000  H
  H112     1.0000 0.87180  0.45350  0.54770  Biso   1.000  H
  H113     1.0000 0.87190  0.40420  0.63990  Biso   1.000  H
  H114     1.0000 0.81260  0.33960  0.62460  Biso   1.000  H
  H115     1.0000 0.83080  0.25710  0.52550  Biso   1.000  H
  H116     1.0000 0.89280  0.32520  0.54180  Biso   1.000  H
  H117     1.0000 0.65040  0.08920  0.49400  Biso   1.000  H
  H118     1.0000 0.71910  0.15210  0.51220  Biso   1.000  H
  H119     1.0000 0.70050  0.24100  0.60570  Biso   1.000  H
  H120     1.0000 0.62820  0.17590  0.58170  Biso   1.000  H
  H121     1.0000 0.26430  0.23200  0.86010  Biso   1.000  H
  H122     1.0000 0.21500  0.18800  0.87540  Biso   1.000  H
  H123     1.0000 0.23160  0.30530  0.97450  Biso   1.000  H
  H124     1.0000 0.28340  0.35100  0.95820  Biso   1.000  H
  H125     1.0000 0.09520  0.15640  0.00600  Biso   1.000  H
  H126     1.0000 0.13990  0.20690  0.98780  Biso   1.000  H
  H127     1.0000 0.13530  0.09480  0.89430  Biso   1.000  H
  H128     1.0000 0.09420  0.04650  0.91830  Biso   1.000  H
  H129     1.0000 0.13990  0.87190  0.90420  Biso   1.000  H
  H130     1.0000 0.12460  0.81260  0.83960  Biso   1.000  H
  H131     1.0000 0.02550  0.83080  0.75710  Biso   1.000  H
  H132     1.0000 0.04180  0.89280  0.82520  Biso   1.000  H
  H133     1.0000 0.99400  0.65040  0.58920  Biso   1.000  H
  H134     1.0000 0.01220  0.71910  0.65210  Biso   1.000  H
  H135     1.0000 0.10570  0.70050  0.74100  Biso   1.000  H
  H136     1.0000 0.08170  0.62820  0.67590  Biso   1.000  H
  H137     1.0000 0.36010  0.26430  0.73200  Biso   1.000  H
  H138     1.0000 0.37540  0.21500  0.68800  Biso   1.000  H
  H139     1.0000 0.47450  0.23160  0.80530  Biso   1.000  H
  H140     1.0000 0.45820  0.28340  0.85100  Biso   1.000  H
  H141     1.0000 0.50600  0.09520  0.65640  Biso   1.000  H
  H142     1.0000 0.48780  0.13990  0.70690  Biso   1.000  H
  H143     1.0000 0.39430  0.13530  0.59480  Biso   1.000  H
  H144     1.0000 0.41830  0.09420  0.54650  Biso   1.000  H
  H145     1.0000 0.46770  0.23570  0.59580  Biso   1.000  H
  H146     1.0000 0.47300  0.28500  0.66040  Biso   1.000  H
  H147     1.0000 0.57370  0.26840  0.74290  Biso   1.000  H
  H148     1.0000 0.56760  0.21660  0.67480  Biso   1.000  H
  H149     1.0000 0.56120  0.40480  0.91080  Biso   1.000  H
  H150     1.0000 0.56700  0.36010  0.84790  Biso   1.000  H
  H151     1.0000 0.45950  0.36470  0.75900  Biso   1.000  H
  H152     1.0000 0.45230  0.40580  0.82410  Biso   1.000  H
  H153     1.0000 0.03230  0.62810  0.76800  Biso   1.000  H
  H154     1.0000 0.02700  0.68740  0.81200  Biso   1.000  H
  H155     1.0000 0.92630  0.66920  0.69470  Biso   1.000  H
  H156     1.0000 0.93240  0.60720  0.64900  Biso   1.000  H
  H157     1.0000 0.93880  0.84960  0.84360  Biso   1.000  H
  H158     1.0000 0.93300  0.78090  0.79310  Biso   1.000  H
  H159     1.0000 0.04050  0.79950  0.90520  Biso   1.000  H
  H160     1.0000 0.04770  0.87180  0.95350  Biso   1.000  H
  H161     1.0000 0.26800  0.03230  0.12810  Biso   1.000  H
  H162     1.0000 0.31200  0.02700  0.18740  Biso   1.000  H
  H163     1.0000 0.19470  0.92630  0.16920  Biso   1.000  H
  H164     1.0000 0.14900  0.93240  0.10720  Biso   1.000  H
  H165     1.0000 0.34360  0.93880  0.34960  Biso   1.000  H
  H166     1.0000 0.29310  0.93300  0.28090  Biso   1.000  H
  H167     1.0000 0.40520  0.04050  0.29950  Biso   1.000  H
  H168     1.0000 0.45350  0.04770  0.37180  Biso   1.000  H
  H169     1.0000 0.09580  0.46770  0.73570  Biso   1.000  H
  H170     1.0000 0.16040  0.47300  0.78500  Biso   1.000  H
  H171     1.0000 0.24290  0.57370  0.76840  Biso   1.000  H
  H172     1.0000 0.17480  0.56760  0.71660  Biso   1.000  H
  H173     1.0000 0.41080  0.56120  0.90480  Biso   1.000  H
  H174     1.0000 0.34790  0.56700  0.86010  Biso   1.000  H
  H175     1.0000 0.25900  0.45950  0.86470  Biso   1.000  H
  H176     1.0000 0.32410  0.45230  0.90580  Biso   1.000  H
  H177     1.0000 0.23200  0.36010  0.76430  Biso   1.000  H
  H178     1.0000 0.18800  0.37540  0.71500  Biso   1.000  H
  H179     1.0000 0.30530  0.47450  0.73160  Biso   1.000  H
  H180     1.0000 0.35100  0.45820  0.78340  Biso   1.000  H
  H181     1.0000 0.15640  0.50600  0.59520  Biso   1.000  H
  H182     1.0000 0.20690  0.48780  0.63990  Biso   1.000  H
  H183     1.0000 0.09480  0.39430  0.63530  Biso   1.000  H
  H184     1.0000 0.04650  0.41830  0.59420  Biso   1.000  H
  H185     1.0000 0.40420  0.13990  0.37190  Biso   1.000  H
  H186     1.0000 0.33960  0.12460  0.31260  Biso   1.000  H
  H187     1.0000 0.25710  0.02550  0.33080  Biso   1.000  H
  H188     1.0000 0.32520  0.04180  0.39280  Biso   1.000  H
  H189     1.0000 0.08920  0.99400  0.15040  Biso   1.000  H
  H190     1.0000 0.15210  0.01220  0.21910  Biso   1.000  H
  H191     1.0000 0.24100  0.10570  0.20050  Biso   1.000  H
  H192     1.0000 0.17590  0.08170  0.12820  Biso   1.000  H
  C1       1.0000 0.81127  0.91461  0.98626  Biso   1.000  C
  C2       1.0000 0.77885  0.87145  0.98272  Biso   1.000  C
  C3       1.0000 0.75771  0.87466  0.01105  Biso   1.000  C
  C4       1.0000 0.72880  0.83643  0.00795  Biso   1.000  C
  C5       1.0000 0.71743  0.78985  0.97638  Biso   1.000  C
  C6       1.0000 0.73841  0.78671  0.94774  Biso   1.000  C
  C7       1.0000 0.76922  0.82738  0.95112  Biso   1.000  C
  C8       1.0000 0.56489  0.58636  0.99829  Biso   1.000  C
  C9       1.0000 0.58918  0.62658  0.99284  Biso   1.000  C
  C10      1.0000 0.60359  0.61982  0.95933  Biso   1.000  C
  C11      1.0000 0.62993  0.65671  0.95534  Biso   1.000  C
  C12      1.0000 0.64046  0.70085  0.98655  Biso   1.000  C
  C13      1.0000 0.62765  0.71044  0.02065  Biso   1.000  C
  C14      1.0000 0.60215  0.67114  0.02393  Biso   1.000  C
  C15      1.0000 0.42835  0.82501  0.51374  Biso   1.000  C
  C16      1.0000 0.38873  0.79613  0.51728  Biso   1.000  C
  C17      1.0000 0.36361  0.74666  0.48895  Biso   1.000  C
  C18      1.0000 0.32848  0.72085  0.49205  Biso   1.000  C
  C19      1.0000 0.31347  0.74105  0.52362  Biso   1.000  C
  C20      1.0000 0.33897  0.79067  0.55226  Biso   1.000  C
  C21      1.0000 0.37626  0.81810  0.54888  Biso   1.000  C
  C22      1.0000 0.08807  0.56660  0.50171  Biso   1.000  C
  C23      1.0000 0.13374  0.59634  0.50716  Biso   1.000  C
  C24      1.0000 0.16049  0.64426  0.54067  Biso   1.000  C
  C25      1.0000 0.20137  0.67459  0.54466  Biso   1.000  C
  C26      1.0000 0.21430  0.65391  0.51345  Biso   1.000  C
  C27      1.0000 0.18979  0.60700  0.47935  Biso   1.000  C
  C28      1.0000 0.14721  0.57822  0.47607  Biso   1.000  C
  C29      1.0000 0.07165  0.58539  0.39666  Biso   1.000  C
  C30      1.0000 0.11127  0.62855  0.40740  Biso   1.000  C
  C31      1.0000 0.13639  0.62534  0.38305  Biso   1.000  C
  C32      1.0000 0.17152  0.66357  0.39237  Biso   1.000  C
  C33      1.0000 0.18653  0.71015  0.42758  Biso   1.000  C
  C34      1.0000 0.16103  0.71329  0.45170  Biso   1.000  C
  C35      1.0000 0.12374  0.67262  0.44184  Biso   1.000  C
  C36      1.0000 0.41193  0.91364  0.47853  Biso   1.000  C
  C37      1.0000 0.36626  0.87342  0.46260  Biso   1.000  C
  C38      1.0000 0.33951  0.88018  0.48377  Biso   1.000  C
  C39      1.0000 0.29863  0.84329  0.47322  Biso   1.000  C
  C40      1.0000 0.28570  0.79915  0.43961  Biso   1.000  C
  C41      1.0000 0.31021  0.78956  0.41721  Biso   1.000  C
  C42      1.0000 0.35279  0.82886  0.43101  Biso   1.000  C
  C43      1.0000 0.68873  0.67499  0.10334  Biso   1.000  C
  C44      1.0000 0.72115  0.70387  0.09260  Biso   1.000  C
  C45      1.0000 0.74229  0.75334  0.11695  Biso   1.000  C
  C46      1.0000 0.77120  0.77915  0.10763  Biso   1.000  C
  C47      1.0000 0.78257  0.75895  0.07242  Biso   1.000  C
  C48      1.0000 0.76159  0.70933  0.04830  Biso   1.000  C
  C49      1.0000 0.73078  0.68190  0.05816  Biso   1.000  C
  C50      1.0000 0.93511  0.93340  0.02147  Biso   1.000  C
  C51      1.0000 0.91082  0.90366  0.03740  Biso   1.000  C
  C52      1.0000 0.89641  0.85574  0.01623  Biso   1.000  C
  C53      1.0000 0.87007  0.82541  0.02678  Biso   1.000  C
  C54      1.0000 0.85954  0.84609  0.06039  Biso   1.000  C
  C55      1.0000 0.87235  0.89300  0.08279  Biso   1.000  C
  C56      1.0000 0.89785  0.92178  0.06899  Biso   1.000  C
  C57      1.0000 0.89666  0.07165  0.08539  Biso   1.000  C
  C58      1.0000 0.90740  0.11127  0.12855  Biso   1.000  C
  C59      1.0000 0.88305  0.13639  0.12534  Biso   1.000  C
  C60      1.0000 0.89237  0.17152  0.16357  Biso   1.000  C
  C61      1.0000 0.92758  0.18653  0.21015  Biso   1.000  C
  C62      1.0000 0.95170  0.16103  0.21329  Biso   1.000  C
  C63      1.0000 0.94184  0.12374  0.17262  Biso   1.000  C
  C64      1.0000 0.97853  0.41193  0.41364  Biso   1.000  C
  C65      1.0000 0.96260  0.36626  0.37342  Biso   1.000  C
  C66      1.0000 0.98377  0.33951  0.38018  Biso   1.000  C
  C67      1.0000 0.97322  0.29863  0.34329  Biso   1.000  C
  C68      1.0000 0.93961  0.28570  0.29915  Biso   1.000  C
  C69      1.0000 0.91721  0.31021  0.28956  Biso   1.000  C
  C70      1.0000 0.93101  0.35279  0.32886  Biso   1.000  C
  C71      1.0000 0.60334  0.68873  0.17499  Biso   1.000  C
  C72      1.0000 0.59260  0.72115  0.20387  Biso   1.000  C
  C73      1.0000 0.61695  0.74229  0.25334  Biso   1.000  C
  C74      1.0000 0.60763  0.77120  0.27915  Biso   1.000  C
  C75      1.0000 0.57242  0.78257  0.25895  Biso   1.000  C
  C76      1.0000 0.54830  0.76159  0.20933  Biso   1.000  C
  C77      1.0000 0.55816  0.73078  0.18190  Biso   1.000  C
  C78      1.0000 0.52147  0.93511  0.43340  Biso   1.000  C
  C79      1.0000 0.53740  0.91082  0.40366  Biso   1.000  C
  C80      1.0000 0.51623  0.89641  0.35574  Biso   1.000  C
  C81      1.0000 0.52678  0.87007  0.32541  Biso   1.000  C
  C82      1.0000 0.56039  0.85954  0.34609  Biso   1.000  C
  C83      1.0000 0.58279  0.87235  0.39300  Biso   1.000  C
  C84      1.0000 0.56899  0.89785  0.42178  Biso   1.000  C
  C85      1.0000 0.48626  0.81127  0.41461  Biso   1.000  C
  C86      1.0000 0.48272  0.77885  0.37145  Biso   1.000  C
  C87      1.0000 0.51105  0.75771  0.37466  Biso   1.000  C
  C88      1.0000 0.50795  0.72880  0.33643  Biso   1.000  C
  C89      1.0000 0.47638  0.71743  0.28985  Biso   1.000  C
  C90      1.0000 0.44774  0.73841  0.28671  Biso   1.000  C
  C91      1.0000 0.45112  0.76922  0.32738  Biso   1.000  C
  C92      1.0000 0.49829  0.56489  0.08636  Biso   1.000  C
  C93      1.0000 0.49284  0.58918  0.12658  Biso   1.000  C
  C94      1.0000 0.45933  0.60359  0.11982  Biso   1.000  C
  C95      1.0000 0.45534  0.62993  0.15671  Biso   1.000  C
  C96      1.0000 0.48655  0.64046  0.20085  Biso   1.000  C
  C97      1.0000 0.52065  0.62765  0.21044  Biso   1.000  C
  C98      1.0000 0.52393  0.60215  0.17114  Biso   1.000  C
  C99      1.0000 0.01374  0.42835  0.32501  Biso   1.000  C
  C100     1.0000 0.01728  0.38873  0.29613  Biso   1.000  C
  C101     1.0000 0.98895  0.36361  0.24666  Biso   1.000  C
  C102     1.0000 0.99205  0.32848  0.22085  Biso   1.000  C
  C103     1.0000 0.02362  0.31347  0.24105  Biso   1.000  C
  C104     1.0000 0.05226  0.33897  0.29067  Biso   1.000  C
  C105     1.0000 0.04888  0.37626  0.31810  Biso   1.000  C
  C106     1.0000 0.00171  0.08807  0.06660  Biso   1.000  C
  C107     1.0000 0.00716  0.13374  0.09634  Biso   1.000  C
  C108     1.0000 0.04067  0.16049  0.14426  Biso   1.000  C
  C109     1.0000 0.04466  0.20137  0.17459  Biso   1.000  C
  C110     1.0000 0.01345  0.21430  0.15391  Biso   1.000  C
  C111     1.0000 0.97935  0.18979  0.10700  Biso   1.000  C
  C112     1.0000 0.97607  0.14721  0.07822  Biso   1.000  C
  C113     1.0000 0.82501  0.01374  0.92835  Biso   1.000  C
  C114     1.0000 0.79613  0.01728  0.88873  Biso   1.000  C
  C115     1.0000 0.74666  0.98895  0.86361  Biso   1.000  C
  C116     1.0000 0.72085  0.99205  0.82848  Biso   1.000  C
  C117     1.0000 0.74105  0.02362  0.81347  Biso   1.000  C
  C118     1.0000 0.79067  0.05226  0.83897  Biso   1.000  C
  C119     1.0000 0.81810  0.04888  0.87626  Biso   1.000  C
  C120     1.0000 0.56660  0.00171  0.58807  Biso   1.000  C
  C121     1.0000 0.59634  0.00716  0.63374  Biso   1.000  C
  C122     1.0000 0.64426  0.04067  0.66049  Biso   1.000  C
  C123     1.0000 0.67459  0.04466  0.70137  Biso   1.000  C
  C124     1.0000 0.65391  0.01345  0.71430  Biso   1.000  C
  C125     1.0000 0.60700  0.97935  0.68979  Biso   1.000  C
  C126     1.0000 0.57822  0.97607  0.64721  Biso   1.000  C
  C127     1.0000 0.91461  0.48626  0.31127  Biso   1.000  C
  C128     1.0000 0.87145  0.48272  0.27885  Biso   1.000  C
  C129     1.0000 0.87466  0.51105  0.25771  Biso   1.000  C
  C130     1.0000 0.83643  0.50795  0.22880  Biso   1.000  C
  C131     1.0000 0.78985  0.47638  0.21743  Biso   1.000  C
  C132     1.0000 0.78671  0.44774  0.23841  Biso   1.000  C
  C133     1.0000 0.82738  0.45112  0.26922  Biso   1.000  C
  C134     1.0000 0.58636  0.49829  0.06489  Biso   1.000  C
  C135     1.0000 0.62658  0.49284  0.08918  Biso   1.000  C
  C136     1.0000 0.61982  0.45933  0.10359  Biso   1.000  C
  C137     1.0000 0.65671  0.45534  0.12993  Biso   1.000  C
  C138     1.0000 0.70085  0.48655  0.14046  Biso   1.000  C
  C139     1.0000 0.71044  0.52065  0.12765  Biso   1.000  C
  C140     1.0000 0.67114  0.52393  0.10215  Biso   1.000  C
  C141     1.0000 0.67499  0.60334  0.18873  Biso   1.000  C
  C142     1.0000 0.70387  0.59260  0.22115  Biso   1.000  C
  C143     1.0000 0.75334  0.61695  0.24229  Biso   1.000  C
  C144     1.0000 0.77915  0.60763  0.27120  Biso   1.000  C
  C145     1.0000 0.75895  0.57242  0.28257  Biso   1.000  C
  C146     1.0000 0.70933  0.54830  0.26159  Biso   1.000  C
  C147     1.0000 0.68190  0.55816  0.23078  Biso   1.000  C
  C148     1.0000 0.93340  0.52147  0.43511  Biso   1.000  C
  C149     1.0000 0.90366  0.53740  0.41082  Biso   1.000  C
  C150     1.0000 0.85574  0.51623  0.39641  Biso   1.000  C
  C151     1.0000 0.82541  0.52678  0.37007  Biso   1.000  C
  C152     1.0000 0.84609  0.56039  0.35954  Biso   1.000  C
  C153     1.0000 0.89300  0.58279  0.37235  Biso   1.000  C
  C154     1.0000 0.92178  0.56899  0.39785  Biso   1.000  C
  C155     1.0000 0.58539  0.89666  0.57165  Biso   1.000  C
  C156     1.0000 0.62855  0.90740  0.61127  Biso   1.000  C
  C157     1.0000 0.62534  0.88305  0.63639  Biso   1.000  C
  C158     1.0000 0.66357  0.89237  0.67152  Biso   1.000  C
  C159     1.0000 0.71015  0.92758  0.68653  Biso   1.000  C
  C160     1.0000 0.71329  0.95170  0.66103  Biso   1.000  C
  C161     1.0000 0.67262  0.94184  0.62374  Biso   1.000  C
  C162     1.0000 0.91364  0.97853  0.91193  Biso   1.000  C
  C163     1.0000 0.87342  0.96260  0.86626  Biso   1.000  C
  C164     1.0000 0.88018  0.98377  0.83951  Biso   1.000  C
  C165     1.0000 0.84329  0.97322  0.79863  Biso   1.000  C
  C166     1.0000 0.79915  0.93961  0.78570  Biso   1.000  C
  C167     1.0000 0.78956  0.91721  0.81021  Biso   1.000  C
  C168     1.0000 0.82886  0.93101  0.85279  Biso   1.000  C
  C169     1.0000 0.18873  0.08539  0.01374  Biso   1.000  C
  C170     1.0000 0.22115  0.12855  0.01728  Biso   1.000  C
  C171     1.0000 0.24229  0.12534  0.98895  Biso   1.000  C
  C172     1.0000 0.27120  0.16357  0.99205  Biso   1.000  C
  C173     1.0000 0.28257  0.21015  0.02362  Biso   1.000  C
  C174     1.0000 0.26159  0.21329  0.05226  Biso   1.000  C
  C175     1.0000 0.23078  0.17262  0.04888  Biso   1.000  C
  C176     1.0000 0.43511  0.41364  0.00171  Biso   1.000  C
  C177     1.0000 0.41082  0.37342  0.00716  Biso   1.000  C
  C178     1.0000 0.39641  0.38018  0.04067  Biso   1.000  C
  C179     1.0000 0.37007  0.34329  0.04466  Biso   1.000  C
  C180     1.0000 0.35954  0.29915  0.01345  Biso   1.000  C
  C181     1.0000 0.37235  0.28956  0.97935  Biso   1.000  C
  C182     1.0000 0.39785  0.32886  0.97607  Biso   1.000  C
  C183     1.0000 0.57165  0.17499  0.48626  Biso   1.000  C
  C184     1.0000 0.61127  0.20387  0.48272  Biso   1.000  C
  C185     1.0000 0.63639  0.25334  0.51105  Biso   1.000  C
  C186     1.0000 0.67152  0.27915  0.50795  Biso   1.000  C
  C187     1.0000 0.68653  0.25895  0.47638  Biso   1.000  C
  C188     1.0000 0.66103  0.20933  0.44774  Biso   1.000  C
  C189     1.0000 0.62374  0.18190  0.45112  Biso   1.000  C
  C190     1.0000 0.91193  0.43340  0.49829  Biso   1.000  C
  C191     1.0000 0.86626  0.40366  0.49284  Biso   1.000  C
  C192     1.0000 0.83951  0.35574  0.45933  Biso   1.000  C
  C193     1.0000 0.79863  0.32541  0.45534  Biso   1.000  C
  C194     1.0000 0.78570  0.34609  0.48655  Biso   1.000  C
  C195     1.0000 0.81021  0.39300  0.52065  Biso   1.000  C
  C196     1.0000 0.85279  0.42178  0.52393  Biso   1.000  C
  C197     1.0000 0.92835  0.41461  0.60334  Biso   1.000  C
  C198     1.0000 0.88873  0.37145  0.59260  Biso   1.000  C
  C199     1.0000 0.86361  0.37466  0.61695  Biso   1.000  C
  C200     1.0000 0.82848  0.33643  0.60763  Biso   1.000  C
  C201     1.0000 0.81347  0.28985  0.57242  Biso   1.000  C
  C202     1.0000 0.83897  0.28671  0.54830  Biso   1.000  C
  C203     1.0000 0.87626  0.32738  0.55816  Biso   1.000  C
  C204     1.0000 0.58807  0.08636  0.52147  Biso   1.000  C
  C205     1.0000 0.63374  0.12658  0.53740  Biso   1.000  C
  C206     1.0000 0.66049  0.11982  0.51623  Biso   1.000  C
  C207     1.0000 0.70137  0.15671  0.52678  Biso   1.000  C
  C208     1.0000 0.71430  0.20085  0.56039  Biso   1.000  C
  C209     1.0000 0.68979  0.21044  0.58279  Biso   1.000  C
  C210     1.0000 0.64721  0.17114  0.56899  Biso   1.000  C
  C211     1.0000 0.31127  0.32501  0.89666  Biso   1.000  C
  C212     1.0000 0.27885  0.29613  0.90740  Biso   1.000  C
  C213     1.0000 0.25771  0.24666  0.88305  Biso   1.000  C
  C214     1.0000 0.22880  0.22085  0.89237  Biso   1.000  C
  C215     1.0000 0.21743  0.24105  0.92758  Biso   1.000  C
  C216     1.0000 0.23841  0.29067  0.95170  Biso   1.000  C
  C217     1.0000 0.26922  0.31810  0.94184  Biso   1.000  C
  C218     1.0000 0.06489  0.06660  0.97853  Biso   1.000  C
  C219     1.0000 0.08918  0.09634  0.96260  Biso   1.000  C
  C220     1.0000 0.10359  0.14426  0.98377  Biso   1.000  C
  C221     1.0000 0.12993  0.17459  0.97322  Biso   1.000  C
  C222     1.0000 0.14046  0.15391  0.93961  Biso   1.000  C
  C223     1.0000 0.12765  0.10700  0.91721  Biso   1.000  C
  C224     1.0000 0.10215  0.07822  0.93101  Biso   1.000  C
  C225     1.0000 0.10334  0.92835  0.91461  Biso   1.000  C
  C226     1.0000 0.09260  0.88873  0.87145  Biso   1.000  C
  C227     1.0000 0.11695  0.86361  0.87466  Biso   1.000  C
  C228     1.0000 0.10763  0.82848  0.83643  Biso   1.000  C
  C229     1.0000 0.07242  0.81347  0.78985  Biso   1.000  C
  C230     1.0000 0.04830  0.83897  0.78671  Biso   1.000  C
  C231     1.0000 0.05816  0.87626  0.82738  Biso   1.000  C
  C232     1.0000 0.02147  0.58807  0.58636  Biso   1.000  C
  C233     1.0000 0.03740  0.63374  0.62658  Biso   1.000  C
  C234     1.0000 0.01623  0.66049  0.61982  Biso   1.000  C
  C235     1.0000 0.02678  0.70137  0.65671  Biso   1.000  C
  C236     1.0000 0.06039  0.71430  0.70085  Biso   1.000  C
  C237     1.0000 0.08279  0.68979  0.71044  Biso   1.000  C
  C238     1.0000 0.06899  0.64721  0.67114  Biso   1.000  C
  C239     1.0000 0.39666  0.31127  0.82501  Biso   1.000  C
  C240     1.0000 0.40740  0.27885  0.79613  Biso   1.000  C
  C241     1.0000 0.38305  0.25771  0.74666  Biso   1.000  C
  C242     1.0000 0.39237  0.22880  0.72085  Biso   1.000  C
  C243     1.0000 0.42758  0.21743  0.74105  Biso   1.000  C
  C244     1.0000 0.45170  0.23841  0.79067  Biso   1.000  C
  C245     1.0000 0.44184  0.26922  0.81810  Biso   1.000  C
  C246     1.0000 0.47853  0.06489  0.56660  Biso   1.000  C
  C247     1.0000 0.46260  0.08918  0.59634  Biso   1.000  C
  C248     1.0000 0.48377  0.10359  0.64426  Biso   1.000  C
  C249     1.0000 0.47322  0.12993  0.67459  Biso   1.000  C
  C250     1.0000 0.43961  0.14046  0.65391  Biso   1.000  C
  C251     1.0000 0.41721  0.12765  0.60700  Biso   1.000  C
  C252     1.0000 0.43101  0.10215  0.57822  Biso   1.000  C
  C253     1.0000 0.51374  0.18873  0.58539  Biso   1.000  C
  C254     1.0000 0.51728  0.22115  0.62855  Biso   1.000  C
  C255     1.0000 0.48895  0.24229  0.62534  Biso   1.000  C
  C256     1.0000 0.49205  0.27120  0.66357  Biso   1.000  C
  C257     1.0000 0.52362  0.28257  0.71015  Biso   1.000  C
  C258     1.0000 0.55226  0.26159  0.71329  Biso   1.000  C
  C259     1.0000 0.54888  0.23078  0.67262  Biso   1.000  C
  C260     1.0000 0.50171  0.43511  0.91364  Biso   1.000  C
  C261     1.0000 0.50716  0.41082  0.87342  Biso   1.000  C
  C262     1.0000 0.54067  0.39641  0.88018  Biso   1.000  C
  C263     1.0000 0.54466  0.37007  0.84329  Biso   1.000  C
  C264     1.0000 0.51345  0.35954  0.79915  Biso   1.000  C
  C265     1.0000 0.47935  0.37235  0.78956  Biso   1.000  C
  C266     1.0000 0.47607  0.39785  0.82886  Biso   1.000  C
  C267     1.0000 0.98626  0.57165  0.67499  Biso   1.000  C
  C268     1.0000 0.98272  0.61127  0.70387  Biso   1.000  C
  C269     1.0000 0.01105  0.63639  0.75334  Biso   1.000  C
  C270     1.0000 0.00795  0.67152  0.77915  Biso   1.000  C
  C271     1.0000 0.97638  0.68653  0.75895  Biso   1.000  C
  C272     1.0000 0.94774  0.66103  0.70933  Biso   1.000  C
  C273     1.0000 0.95112  0.62374  0.68190  Biso   1.000  C
  C274     1.0000 0.99829  0.91193  0.93340  Biso   1.000  C
  C275     1.0000 0.99284  0.86626  0.90366  Biso   1.000  C
  C276     1.0000 0.95933  0.83951  0.85574  Biso   1.000  C
  C277     1.0000 0.95534  0.79863  0.82541  Biso   1.000  C
  C278     1.0000 0.98655  0.78570  0.84609  Biso   1.000  C
  C279     1.0000 0.02065  0.81021  0.89300  Biso   1.000  C
  C280     1.0000 0.02393  0.85279  0.92178  Biso   1.000  C
  C281     1.0000 0.17499  0.98626  0.07165  Biso   1.000  C
  C282     1.0000 0.20387  0.98272  0.11127  Biso   1.000  C
  C283     1.0000 0.25334  0.01105  0.13639  Biso   1.000  C
  C284     1.0000 0.27915  0.00795  0.17152  Biso   1.000  C
  C285     1.0000 0.25895  0.97638  0.18653  Biso   1.000  C
  C286     1.0000 0.20933  0.94774  0.16103  Biso   1.000  C
  C287     1.0000 0.18190  0.95112  0.12374  Biso   1.000  C
  C288     1.0000 0.43340  0.99829  0.41193  Biso   1.000  C
  C289     1.0000 0.40366  0.99284  0.36626  Biso   1.000  C
  C290     1.0000 0.35574  0.95933  0.33951  Biso   1.000  C
  C291     1.0000 0.32541  0.95534  0.29863  Biso   1.000  C
  C292     1.0000 0.34609  0.98655  0.28570  Biso   1.000  C
  C293     1.0000 0.39300  0.02065  0.31021  Biso   1.000  C
  C294     1.0000 0.42178  0.02393  0.35279  Biso   1.000  C
  C295     1.0000 0.08539  0.51374  0.68873  Biso   1.000  C
  C296     1.0000 0.12855  0.51728  0.72115  Biso   1.000  C
  C297     1.0000 0.12534  0.48895  0.74229  Biso   1.000  C
  C298     1.0000 0.16357  0.49205  0.77120  Biso   1.000  C
  C299     1.0000 0.21015  0.52362  0.78257  Biso   1.000  C
  C300     1.0000 0.21329  0.55226  0.76159  Biso   1.000  C
  C301     1.0000 0.17262  0.54888  0.73078  Biso   1.000  C
  C302     1.0000 0.41364  0.50171  0.93511  Biso   1.000  C
  C303     1.0000 0.37342  0.50716  0.91082  Biso   1.000  C
  C304     1.0000 0.38018  0.54067  0.89641  Biso   1.000  C
  C305     1.0000 0.34329  0.54466  0.87007  Biso   1.000  C
  C306     1.0000 0.29915  0.51345  0.85954  Biso   1.000  C
  C307     1.0000 0.28956  0.47935  0.87235  Biso   1.000  C
  C308     1.0000 0.32886  0.47607  0.89785  Biso   1.000  C
  C309     1.0000 0.32501  0.39666  0.81127  Biso   1.000  C
  C310     1.0000 0.29613  0.40740  0.77885  Biso   1.000  C
  C311     1.0000 0.24666  0.38305  0.75771  Biso   1.000  C
  C312     1.0000 0.22085  0.39237  0.72880  Biso   1.000  C
  C313     1.0000 0.24105  0.42758  0.71743  Biso   1.000  C
  C314     1.0000 0.29067  0.45170  0.73841  Biso   1.000  C
  C315     1.0000 0.31810  0.44184  0.76922  Biso   1.000  C
  C316     1.0000 0.06660  0.47853  0.56489  Biso   1.000  C
  C317     1.0000 0.09634  0.46260  0.58918  Biso   1.000  C
  C318     1.0000 0.14426  0.48377  0.60359  Biso   1.000  C
  C319     1.0000 0.17459  0.47322  0.62993  Biso   1.000  C
  C320     1.0000 0.15391  0.43961  0.64046  Biso   1.000  C
  C321     1.0000 0.10700  0.41721  0.62765  Biso   1.000  C
  C322     1.0000 0.07822  0.43101  0.60215  Biso   1.000  C
  C323     1.0000 0.41461  0.10334  0.42835  Biso   1.000  C
  C324     1.0000 0.37145  0.09260  0.38873  Biso   1.000  C
  C325     1.0000 0.37466  0.11695  0.36361  Biso   1.000  C
  C326     1.0000 0.33643  0.10763  0.32848  Biso   1.000  C
  C327     1.0000 0.28985  0.07242  0.31347  Biso   1.000  C
  C328     1.0000 0.28671  0.04830  0.33897  Biso   1.000  C
  C329     1.0000 0.32738  0.05816  0.37626  Biso   1.000  C
  C330     1.0000 0.08636  0.02147  0.08807  Biso   1.000  C
  C331     1.0000 0.12658  0.03740  0.13374  Biso   1.000  C
  C332     1.0000 0.11982  0.01623  0.16049  Biso   1.000  C
  C333     1.0000 0.15671  0.02678  0.20137  Biso   1.000  C
  C334     1.0000 0.20085  0.06039  0.21430  Biso   1.000  C
  C335     1.0000 0.21044  0.08279  0.18979  Biso   1.000  C
  C336     1.0000 0.17114  0.06899  0.14721  Biso   1.000  C
  N1       1.0000 0.68966  0.74526  0.96648  Biso   1.000  N
  N2       1.0000 0.66782  0.74259  0.98975  Biso   1.000  N
  N3       1.0000 0.27878  0.72318  0.53352  Biso   1.000  N
  N4       1.0000 0.25284  0.67807  0.51025  Biso   1.000  N
  N5       1.0000 0.22122  0.75474  0.44440  Biso   1.000  N
  N6       1.0000 0.24716  0.75741  0.42523  Biso   1.000  N
  N7       1.0000 0.81034  0.77682  0.05560  Biso   1.000  N
  N8       1.0000 0.83218  0.82193  0.07477  Biso   1.000  N
  N9       1.0000 0.94440  0.22122  0.25474  Biso   1.000  N
  N10      1.0000 0.92523  0.24716  0.25741  Biso   1.000  N
  N11      1.0000 0.55560  0.81034  0.27682  Biso   1.000  N
  N12      1.0000 0.57477  0.83218  0.32193  Biso   1.000  N
  N13      1.0000 0.46648  0.68966  0.24526  Biso   1.000  N
  N14      1.0000 0.48975  0.66782  0.24259  Biso   1.000  N
  N15      1.0000 0.03352  0.27878  0.22318  Biso   1.000  N
  N16      1.0000 0.01025  0.25284  0.17807  Biso   1.000  N
  N17      1.0000 0.72318  0.03352  0.77878  Biso   1.000  N
  N18      1.0000 0.67807  0.01025  0.75284  Biso   1.000  N
  N19      1.0000 0.74526  0.46648  0.18966  Biso   1.000  N
  N20      1.0000 0.74259  0.48975  0.16782  Biso   1.000  N
  N21      1.0000 0.77682  0.55560  0.31034  Biso   1.000  N
  N22      1.0000 0.82193  0.57477  0.33218  Biso   1.000  N
  N23      1.0000 0.75474  0.94440  0.72122  Biso   1.000  N
  N24      1.0000 0.75741  0.92523  0.74716  Biso   1.000  N
  N25      1.0000 0.31034  0.25474  0.03352  Biso   1.000  N
  N26      1.0000 0.33218  0.25741  0.01025  Biso   1.000  N
  N27      1.0000 0.72122  0.27682  0.46648  Biso   1.000  N
  N28      1.0000 0.74716  0.32193  0.48975  Biso   1.000  N
  N29      1.0000 0.77878  0.24526  0.55560  Biso   1.000  N
  N30      1.0000 0.75284  0.24259  0.57477  Biso   1.000  N
  N31      1.0000 0.18966  0.22318  0.94440  Biso   1.000  N
  N32      1.0000 0.16782  0.17807  0.92523  Biso   1.000  N
  N33      1.0000 0.05560  0.77878  0.74526  Biso   1.000  N
  N34      1.0000 0.07477  0.75284  0.74259  Biso   1.000  N
  N35      1.0000 0.44440  0.18966  0.72318  Biso   1.000  N
  N36      1.0000 0.42523  0.16782  0.67807  Biso   1.000  N
  N37      1.0000 0.53352  0.31034  0.75474  Biso   1.000  N
  N38      1.0000 0.51025  0.33218  0.75741  Biso   1.000  N
  N39      1.0000 0.96648  0.72122  0.77682  Biso   1.000  N
  N40      1.0000 0.98975  0.74716  0.82193  Biso   1.000  N
  N41      1.0000 0.27682  0.96648  0.22122  Biso   1.000  N
  N42      1.0000 0.32193  0.98975  0.24716  Biso   1.000  N
  N43      1.0000 0.25474  0.53352  0.81034  Biso   1.000  N
  N44      1.0000 0.25741  0.51025  0.83218  Biso   1.000  N
  N45      1.0000 0.22318  0.44440  0.68966  Biso   1.000  N
  N46      1.0000 0.17807  0.42523  0.66782  Biso   1.000  N
  N47      1.0000 0.24526  0.05560  0.27878  Biso   1.000  N
  N48      1.0000 0.24259  0.07477  0.25284  Biso   1.000  N
  O1       1.0000 0.54793  0.54415  0.96634  Biso   1.000  O
  O2       1.0000 0.56079  0.59462  0.03483  Biso   1.000  O
  O3       1.0000 0.83042  0.91038  0.95954  Biso   1.000  O
  O4       1.0000 0.82281  0.95360  0.01727  Biso   1.000  O
  O5       1.0000 0.07781  0.58159  0.53366  Biso   1.000  O
  O6       1.0000 0.05979  0.52596  0.46517  Biso   1.000  O
  O7       1.0000 0.45084  0.87088  0.54046  Biso   1.000  O
  O8       1.0000 0.43633  0.80554  0.48273  Biso   1.000  O
  O9       1.0000 0.42219  0.95585  0.50378  Biso   1.000  O
  O10      1.0000 0.44021  0.90538  0.46617  Biso   1.000  O
  O11      1.0000 0.04916  0.58962  0.42004  Biso   1.000  O
  O12      1.0000 0.06367  0.54640  0.36921  Biso   1.000  O
  O13      1.0000 0.95207  0.91841  0.99622  Biso   1.000  O
  O14      1.0000 0.93921  0.97404  0.03383  Biso   1.000  O
  O15      1.0000 0.66958  0.62912  0.07996  Biso   1.000  O
  O16      1.0000 0.67719  0.69446  0.13079  Biso   1.000  O
  O17      1.0000 0.00378  0.42219  0.45585  Biso   1.000  O
  O18      1.0000 0.96617  0.44021  0.40538  Biso   1.000  O
  O19      1.0000 0.92004  0.04916  0.08962  Biso   1.000  O
  O20      1.0000 0.86921  0.06367  0.04640  Biso   1.000  O
  O21      1.0000 0.49622  0.95207  0.41841  Biso   1.000  O
  O22      1.0000 0.53383  0.93921  0.47404  Biso   1.000  O
  O23      1.0000 0.57996  0.66958  0.12912  Biso   1.000  O
  O24      1.0000 0.63079  0.67719  0.19446  Biso   1.000  O
  O25      1.0000 0.46634  0.54793  0.04415  Biso   1.000  O
  O26      1.0000 0.53483  0.56079  0.09462  Biso   1.000  O
  O27      1.0000 0.45954  0.83042  0.41038  Biso   1.000  O
  O28      1.0000 0.51727  0.82281  0.45360  Biso   1.000  O
  O29      1.0000 0.03366  0.07781  0.08159  Biso   1.000  O
  O30      1.0000 0.96517  0.05979  0.02596  Biso   1.000  O
  O31      1.0000 0.04046  0.45084  0.37088  Biso   1.000  O
  O32      1.0000 0.98273  0.43633  0.30554  Biso   1.000  O
  O33      1.0000 0.58159  0.03366  0.57781  Biso   1.000  O
  O34      1.0000 0.52596  0.96517  0.55979  Biso   1.000  O
  O35      1.0000 0.87088  0.04046  0.95084  Biso   1.000  O
  O36      1.0000 0.80554  0.98273  0.93633  Biso   1.000  O
  O37      1.0000 0.54415  0.46634  0.04793  Biso   1.000  O
  O38      1.0000 0.59462  0.53483  0.06079  Biso   1.000  O
  O39      1.0000 0.91038  0.45954  0.33042  Biso   1.000  O
  O40      1.0000 0.95360  0.51727  0.32281  Biso   1.000  O
  O41      1.0000 0.91841  0.49622  0.45207  Biso   1.000  O
  O42      1.0000 0.97404  0.53383  0.43921  Biso   1.000  O
  O43      1.0000 0.62912  0.57996  0.16958  Biso   1.000  O
  O44      1.0000 0.69446  0.63079  0.17719  Biso   1.000  O
  O45      1.0000 0.95585  0.00378  0.92219  Biso   1.000  O
  O46      1.0000 0.90538  0.96617  0.94021  Biso   1.000  O
  O47      1.0000 0.58962  0.92004  0.54916  Biso   1.000  O
  O48      1.0000 0.54640  0.86921  0.56367  Biso   1.000  O
  O49      1.0000 0.45207  0.45585  0.03366  Biso   1.000  O
  O50      1.0000 0.43921  0.40538  0.96517  Biso   1.000  O
  O51      1.0000 0.16958  0.08962  0.04046  Biso   1.000  O
  O52      1.0000 0.17719  0.04640  0.98273  Biso   1.000  O
  O53      1.0000 0.92219  0.41841  0.46634  Biso   1.000  O
  O54      1.0000 0.94021  0.47404  0.53483  Biso   1.000  O
  O55      1.0000 0.54916  0.12912  0.45954  Biso   1.000  O
  O56      1.0000 0.56367  0.19446  0.51727  Biso   1.000  O
  O57      1.0000 0.57781  0.04415  0.49622  Biso   1.000  O
  O58      1.0000 0.55979  0.09462  0.53383  Biso   1.000  O
  O59      1.0000 0.95084  0.41038  0.57996  Biso   1.000  O
  O60      1.0000 0.93633  0.45360  0.63079  Biso   1.000  O
  O61      1.0000 0.04793  0.08159  0.00378  Biso   1.000  O
  O62      1.0000 0.06079  0.02596  0.96617  Biso   1.000  O
  O63      1.0000 0.33042  0.37088  0.92004  Biso   1.000  O
  O64      1.0000 0.32281  0.30554  0.86921  Biso   1.000  O
  O65      1.0000 0.99622  0.57781  0.54415  Biso   1.000  O
  O66      1.0000 0.03383  0.55979  0.59462  Biso   1.000  O
  O67      1.0000 0.07996  0.95084  0.91038  Biso   1.000  O
  O68      1.0000 0.13079  0.93633  0.95360  Biso   1.000  O
  O69      1.0000 0.50378  0.04793  0.58159  Biso   1.000  O
  O70      1.0000 0.46617  0.06079  0.52596  Biso   1.000  O
  O71      1.0000 0.42004  0.33042  0.87088  Biso   1.000  O
  O72      1.0000 0.36921  0.32281  0.80554  Biso   1.000  O
  O73      1.0000 0.53366  0.45207  0.95585  Biso   1.000  O
  O74      1.0000 0.46517  0.43921  0.90538  Biso   1.000  O
  O75      1.0000 0.54046  0.16958  0.58962  Biso   1.000  O
  O76      1.0000 0.48273  0.17719  0.54640  Biso   1.000  O
  O77      1.0000 0.96634  0.92219  0.91841  Biso   1.000  O
  O78      1.0000 0.03483  0.94021  0.97404  Biso   1.000  O
  O79      1.0000 0.95954  0.54916  0.62912  Biso   1.000  O
  O80      1.0000 0.01727  0.56367  0.69446  Biso   1.000  O
  O81      1.0000 0.41841  0.96634  0.42219  Biso   1.000  O
  O82      1.0000 0.47404  0.03483  0.44021  Biso   1.000  O
  O83      1.0000 0.12912  0.95954  0.04916  Biso   1.000  O
  O84      1.0000 0.19446  0.01727  0.06367  Biso   1.000  O
  O85      1.0000 0.45585  0.53366  0.95207  Biso   1.000  O
  O86      1.0000 0.40538  0.46517  0.93921  Biso   1.000  O
  O87      1.0000 0.08962  0.54046  0.66958  Biso   1.000  O
  O88      1.0000 0.04640  0.48273  0.67719  Biso   1.000  O
  O89      1.0000 0.08159  0.50378  0.54793  Biso   1.000  O
  O90      1.0000 0.02596  0.46617  0.56079  Biso   1.000  O
  O91      1.0000 0.37088  0.42004  0.83042  Biso   1.000  O
  O92      1.0000 0.30554  0.36921  0.82281  Biso   1.000  O
  O93      1.0000 0.04415  0.99622  0.07781  Biso   1.000  O
  O94      1.0000 0.09462  0.03383  0.05979  Biso   1.000  O
  O95      1.0000 0.41038  0.07996  0.45084  Biso   1.000  O
  O96      1.0000 0.45360  0.13079  0.43633  Biso   1.000  O
