data_image0
_cell_length_a       22.963
_cell_length_b       22.963
_cell_length_c       34.546
_cell_angle_alpha    90
_cell_angle_beta     90
_cell_angle_gamma    90

_symmetry_space_group_name_H-M    "P 1"
_symmetry_int_tables_number       1

loop_
  _symmetry_equiv_pos_as_xyz
  'x, y, z'

loop_
  _atom_site_label
  _atom_site_occupancy
  _atom_site_fract_x
  _atom_site_fract_y
  _atom_site_fract_z
  _atom_site_thermal_displace_type
  _atom_site_B_iso_or_equiv
  _atom_site_type_symbol
  N1       1.0000 0.23307  0.08930  0.63810  Biso   1.000  N
  C1       1.0000 0.21550  0.12270  0.66703  Biso   1.000  C
  H1       1.0000 0.24330  0.14480  0.68000  Biso   1.000  H
  C2       1.0000 0.15880  0.12670  0.67894  Biso   1.000  C
  H2       1.0000 0.14910  0.15100  0.69950  Biso   1.000  H
  C3       1.0000 0.11565  0.09430  0.66027  Biso   1.000  C
  C4       1.0000 0.13430  0.06030  0.62941  Biso   1.000  C
  H3       1.0000 0.10780  0.03850  0.61520  Biso   1.000  H
  C5       1.0000 0.19260  0.05930  0.62018  Biso   1.000  C
  H4       1.0000 0.20420  0.03560  0.59970  Biso   1.000  H
  C6       1.0000 0.05417  0.09645  0.67219  Biso   1.000  C
  C7       1.0000 0.03119  0.10155  0.70862  Biso   1.000  C
  C8       1.0000 0.06515  0.10040  0.74531  Biso   1.000  C
  C9       1.0000 0.08800  0.05010  0.75954  Biso   1.000  C
  H5       1.0000 0.08460  0.01600  0.74520  Biso   1.000  H
  C10      1.0000 0.11560  0.04870  0.79415  Biso   1.000  C
  H6       1.0000 0.13000  0.01310  0.80270  Biso   1.000  H
  N2       1.0000 0.34535  0.12659  0.56701  Biso   1.000  N
  C11      1.0000 0.39540  0.14790  0.55312  Biso   1.000  C
  H7       1.0000 0.42910  0.14290  0.56770  Biso   1.000  H
  C12      1.0000 0.07330  0.14950  0.76832  Biso   1.000  C
  H8       1.0000 0.05900  0.18530  0.76010  Biso   1.000  H
  N3       1.0000 0.73307  0.58930  0.13810  Biso   1.000  N
  C13      1.0000 0.71550  0.62270  0.16703  Biso   1.000  C
  H9       1.0000 0.74330  0.64480  0.18000  Biso   1.000  H
  C14      1.0000 0.65880  0.62670  0.17894  Biso   1.000  C
  H10      1.0000 0.64910  0.65100  0.19950  Biso   1.000  H
  C15      1.0000 0.61565  0.59430  0.16027  Biso   1.000  C
  C16      1.0000 0.63430  0.56030  0.12941  Biso   1.000  C
  H11      1.0000 0.60780  0.53850  0.11520  Biso   1.000  H
  C17      1.0000 0.69260  0.55930  0.12018  Biso   1.000  C
  H12      1.0000 0.70420  0.53560  0.09970  Biso   1.000  H
  C18      1.0000 0.55417  0.59645  0.17219  Biso   1.000  C
  C19      1.0000 0.53119  0.60155  0.20862  Biso   1.000  C
  C20      1.0000 0.56515  0.60040  0.24531  Biso   1.000  C
  C21      1.0000 0.58800  0.55010  0.25954  Biso   1.000  C
  H13      1.0000 0.58460  0.51600  0.24520  Biso   1.000  H
  C22      1.0000 0.61560  0.54870  0.29415  Biso   1.000  C
  H14      1.0000 0.63000  0.51310  0.30270  Biso   1.000  H
  N4       1.0000 0.84535  0.62659  0.06701  Biso   1.000  N
  C23      1.0000 0.89540  0.64790  0.05312  Biso   1.000  C
  H15      1.0000 0.92910  0.64290  0.06770  Biso   1.000  H
  C24      1.0000 0.57330  0.64950  0.26832  Biso   1.000  C
  H16      1.0000 0.55900  0.68530  0.26010  Biso   1.000  H
  N5       1.0000 0.26693  0.91070  0.13810  Biso   1.000  N
  C25      1.0000 0.28450  0.87730  0.16703  Biso   1.000  C
  H17      1.0000 0.25670  0.85520  0.18000  Biso   1.000  H
  C26      1.0000 0.34120  0.87330  0.17894  Biso   1.000  C
  H18      1.0000 0.35090  0.84900  0.19950  Biso   1.000  H
  C27      1.0000 0.38435  0.90570  0.16027  Biso   1.000  C
  C28      1.0000 0.36570  0.93970  0.12941  Biso   1.000  C
  H19      1.0000 0.39220  0.96150  0.11520  Biso   1.000  H
  C29      1.0000 0.30740  0.94070  0.12018  Biso   1.000  C
  H20      1.0000 0.29580  0.96440  0.09970  Biso   1.000  H
  C30      1.0000 0.44583  0.90355  0.17219  Biso   1.000  C
  C31      1.0000 0.46881  0.89845  0.20862  Biso   1.000  C
  C32      1.0000 0.43485  0.89960  0.24531  Biso   1.000  C
  C33      1.0000 0.41200  0.94990  0.25954  Biso   1.000  C
  H21      1.0000 0.41540  0.98400  0.24520  Biso   1.000  H
  C34      1.0000 0.38440  0.95130  0.29415  Biso   1.000  C
  H22      1.0000 0.37000  0.98690  0.30270  Biso   1.000  H
  N6       1.0000 0.15465  0.87341  0.06701  Biso   1.000  N
  C35      1.0000 0.10460  0.85210  0.05312  Biso   1.000  C
  H23      1.0000 0.07090  0.85710  0.06770  Biso   1.000  H
  C36      1.0000 0.42670  0.85050  0.26832  Biso   1.000  C
  H24      1.0000 0.44100  0.81470  0.26010  Biso   1.000  H
  N7       1.0000 0.76693  0.41070  0.63810  Biso   1.000  N
  C37      1.0000 0.78450  0.37730  0.66703  Biso   1.000  C
  H25      1.0000 0.75670  0.35520  0.68000  Biso   1.000  H
  C38      1.0000 0.84120  0.37330  0.67894  Biso   1.000  C
  H26      1.0000 0.85090  0.34900  0.69950  Biso   1.000  H
  C39      1.0000 0.88435  0.40570  0.66027  Biso   1.000  C
  C40      1.0000 0.86570  0.43970  0.62941  Biso   1.000  C
  H27      1.0000 0.89220  0.46150  0.61520  Biso   1.000  H
  C41      1.0000 0.80740  0.44070  0.62018  Biso   1.000  C
  H28      1.0000 0.79580  0.46440  0.59970  Biso   1.000  H
  C42      1.0000 0.94583  0.40355  0.67219  Biso   1.000  C
  C43      1.0000 0.96881  0.39845  0.70862  Biso   1.000  C
  C44      1.0000 0.93485  0.39960  0.74531  Biso   1.000  C
  C45      1.0000 0.91200  0.44990  0.75954  Biso   1.000  C
  H29      1.0000 0.91540  0.48400  0.74520  Biso   1.000  H
  C46      1.0000 0.88440  0.45130  0.79415  Biso   1.000  C
  H30      1.0000 0.87000  0.48690  0.80270  Biso   1.000  H
  N8       1.0000 0.65465  0.37341  0.56701  Biso   1.000  N
  C47      1.0000 0.60460  0.35210  0.55312  Biso   1.000  C
  H31      1.0000 0.57090  0.35710  0.56770  Biso   1.000  H
  C48      1.0000 0.92670  0.35050  0.76832  Biso   1.000  C
  H32      1.0000 0.94100  0.31470  0.76010  Biso   1.000  H
  N9       1.0000 0.16070  0.98307  0.88810  Biso   1.000  N
  C49      1.0000 0.12730  0.96550  0.91703  Biso   1.000  C
  H33      1.0000 0.10520  0.99330  0.93000  Biso   1.000  H
  C50      1.0000 0.12330  0.90880  0.92894  Biso   1.000  C
  H34      1.0000 0.09900  0.89910  0.94950  Biso   1.000  H
  C51      1.0000 0.15570  0.86565  0.91027  Biso   1.000  C
  C52      1.0000 0.18970  0.88430  0.87941  Biso   1.000  C
  H35      1.0000 0.21150  0.85780  0.86520  Biso   1.000  H
  C53      1.0000 0.19070  0.94260  0.87018  Biso   1.000  C
  H36      1.0000 0.21440  0.95420  0.84970  Biso   1.000  H
  C54      1.0000 0.15355  0.80417  0.92219  Biso   1.000  C
  C55      1.0000 0.14845  0.78119  0.95862  Biso   1.000  C
  C56      1.0000 0.14960  0.81515  0.99531  Biso   1.000  C
  C57      1.0000 0.19990  0.83800  0.00954  Biso   1.000  C
  H37      1.0000 0.23400  0.83460  0.99520  Biso   1.000  H
  C58      1.0000 0.20130  0.86560  0.04415  Biso   1.000  C
  H38      1.0000 0.23690  0.88000  0.05270  Biso   1.000  H
  N10      1.0000 0.12341  0.09535  0.81701  Biso   1.000  N
  C59      1.0000 0.10210  0.14540  0.80312  Biso   1.000  C
  H39      1.0000 0.10710  0.17910  0.81770  Biso   1.000  H
  C60      1.0000 0.10050  0.82330  0.01832  Biso   1.000  C
  H40      1.0000 0.06470  0.80900  0.01010  Biso   1.000  H
  N11      1.0000 0.66070  0.48307  0.38810  Biso   1.000  N
  C61      1.0000 0.62730  0.46550  0.41703  Biso   1.000  C
  H41      1.0000 0.60520  0.49330  0.43000  Biso   1.000  H
  C62      1.0000 0.62330  0.40880  0.42894  Biso   1.000  C
  H42      1.0000 0.59900  0.39910  0.44950  Biso   1.000  H
  C63      1.0000 0.65570  0.36565  0.41027  Biso   1.000  C
  C64      1.0000 0.68970  0.38430  0.37941  Biso   1.000  C
  H43      1.0000 0.71150  0.35780  0.36520  Biso   1.000  H
  C65      1.0000 0.69070  0.44260  0.37018  Biso   1.000  C
  H44      1.0000 0.71440  0.45420  0.34970  Biso   1.000  H
  C66      1.0000 0.65355  0.30417  0.42219  Biso   1.000  C
  C67      1.0000 0.64845  0.28119  0.45862  Biso   1.000  C
  C68      1.0000 0.64960  0.31515  0.49531  Biso   1.000  C
  C69      1.0000 0.69990  0.33800  0.50954  Biso   1.000  C
  H45      1.0000 0.73400  0.33460  0.49520  Biso   1.000  H
  C70      1.0000 0.70130  0.36560  0.54415  Biso   1.000  C
  H46      1.0000 0.73690  0.38000  0.55270  Biso   1.000  H
  N12      1.0000 0.62341  0.59535  0.31701  Biso   1.000  N
  C71      1.0000 0.60210  0.64540  0.30312  Biso   1.000  C
  H47      1.0000 0.60710  0.67910  0.31770  Biso   1.000  H
  C72      1.0000 0.60050  0.32330  0.51832  Biso   1.000  C
  H48      1.0000 0.56470  0.30900  0.51010  Biso   1.000  H
  N13      1.0000 0.33930  0.01693  0.38810  Biso   1.000  N
  C73      1.0000 0.37270  0.03450  0.41703  Biso   1.000  C
  H49      1.0000 0.39480  0.00670  0.43000  Biso   1.000  H
  C74      1.0000 0.37670  0.09120  0.42894  Biso   1.000  C
  H50      1.0000 0.40100  0.10090  0.44950  Biso   1.000  H
  C75      1.0000 0.34430  0.13435  0.41027  Biso   1.000  C
  C76      1.0000 0.31030  0.11570  0.37941  Biso   1.000  C
  H51      1.0000 0.28850  0.14220  0.36520  Biso   1.000  H
  C77      1.0000 0.30930  0.05740  0.37018  Biso   1.000  C
  H52      1.0000 0.28560  0.04580  0.34970  Biso   1.000  H
  C78      1.0000 0.34645  0.19583  0.42219  Biso   1.000  C
  C79      1.0000 0.35155  0.21881  0.45862  Biso   1.000  C
  C80      1.0000 0.35040  0.18485  0.49531  Biso   1.000  C
  C81      1.0000 0.30010  0.16200  0.50954  Biso   1.000  C
  H53      1.0000 0.26600  0.16540  0.49520  Biso   1.000  H
  C82      1.0000 0.29870  0.13440  0.54415  Biso   1.000  C
  H54      1.0000 0.26310  0.12000  0.55270  Biso   1.000  H
  N14      1.0000 0.37659  0.90465  0.31701  Biso   1.000  N
  C83      1.0000 0.39790  0.85460  0.30312  Biso   1.000  C
  H55      1.0000 0.39290  0.82090  0.31770  Biso   1.000  H
  C84      1.0000 0.39950  0.17670  0.51832  Biso   1.000  C
  H56      1.0000 0.43530  0.19100  0.51010  Biso   1.000  H
  N15      1.0000 0.83930  0.51693  0.88810  Biso   1.000  N
  C85      1.0000 0.87270  0.53450  0.91703  Biso   1.000  C
  H57      1.0000 0.89480  0.50670  0.93000  Biso   1.000  H
  C86      1.0000 0.87670  0.59120  0.92894  Biso   1.000  C
  H58      1.0000 0.90100  0.60090  0.94950  Biso   1.000  H
  C87      1.0000 0.84430  0.63435  0.91027  Biso   1.000  C
  C88      1.0000 0.81030  0.61570  0.87941  Biso   1.000  C
  H59      1.0000 0.78850  0.64220  0.86520  Biso   1.000  H
  C89      1.0000 0.80930  0.55740  0.87018  Biso   1.000  C
  H60      1.0000 0.78560  0.54580  0.84970  Biso   1.000  H
  C90      1.0000 0.84645  0.69583  0.92219  Biso   1.000  C
  C91      1.0000 0.85155  0.71881  0.95862  Biso   1.000  C
  C92      1.0000 0.85040  0.68485  0.99531  Biso   1.000  C
  C93      1.0000 0.80010  0.66200  0.00954  Biso   1.000  C
  H61      1.0000 0.76600  0.66540  0.99520  Biso   1.000  H
  C94      1.0000 0.79870  0.63440  0.04415  Biso   1.000  C
  H62      1.0000 0.76310  0.62000  0.05270  Biso   1.000  H
  N16      1.0000 0.87659  0.40465  0.81701  Biso   1.000  N
  C95      1.0000 0.89790  0.35460  0.80312  Biso   1.000  C
  H63      1.0000 0.89290  0.32090  0.81770  Biso   1.000  H
  C96      1.0000 0.89950  0.67670  0.01832  Biso   1.000  C
  H64      1.0000 0.93530  0.69100  0.01010  Biso   1.000  H
  N17      1.0000 0.26693  0.08930  0.86190  Biso   1.000  N
  C97      1.0000 0.28450  0.12270  0.83297  Biso   1.000  C
  H65      1.0000 0.25670  0.14480  0.82000  Biso   1.000  H
  C98      1.0000 0.34120  0.12670  0.82106  Biso   1.000  C
  H66      1.0000 0.35090  0.15100  0.80050  Biso   1.000  H
  C99      1.0000 0.38435  0.09430  0.83973  Biso   1.000  C
  C100     1.0000 0.36570  0.06030  0.87059  Biso   1.000  C
  H67      1.0000 0.39220  0.03850  0.88480  Biso   1.000  H
  C101     1.0000 0.30740  0.05930  0.87982  Biso   1.000  C
  H68      1.0000 0.29580  0.03560  0.90030  Biso   1.000  H
  C102     1.0000 0.44583  0.09645  0.82781  Biso   1.000  C
  C103     1.0000 0.46881  0.10155  0.79138  Biso   1.000  C
  C104     1.0000 0.43485  0.10040  0.75469  Biso   1.000  C
  C105     1.0000 0.41200  0.05010  0.74046  Biso   1.000  C
  H69      1.0000 0.41540  0.01600  0.75480  Biso   1.000  H
  C106     1.0000 0.38440  0.04870  0.70585  Biso   1.000  C
  H70      1.0000 0.37000  0.01310  0.69730  Biso   1.000  H
  N18      1.0000 0.15465  0.12659  0.93299  Biso   1.000  N
  C107     1.0000 0.10460  0.14790  0.94688  Biso   1.000  C
  H71      1.0000 0.07090  0.14290  0.93230  Biso   1.000  H
  C108     1.0000 0.42670  0.14950  0.73168  Biso   1.000  C
  H72      1.0000 0.44100  0.18530  0.73990  Biso   1.000  H
  N19      1.0000 0.76693  0.58930  0.36190  Biso   1.000  N
  C109     1.0000 0.78450  0.62270  0.33297  Biso   1.000  C
  H73      1.0000 0.75670  0.64480  0.32000  Biso   1.000  H
  C110     1.0000 0.84120  0.62670  0.32106  Biso   1.000  C
  H74      1.0000 0.85090  0.65100  0.30050  Biso   1.000  H
  C111     1.0000 0.88435  0.59430  0.33973  Biso   1.000  C
  C112     1.0000 0.86570  0.56030  0.37059  Biso   1.000  C
  H75      1.0000 0.89220  0.53850  0.38480  Biso   1.000  H
  C113     1.0000 0.80740  0.55930  0.37982  Biso   1.000  C
  H76      1.0000 0.79580  0.53560  0.40030  Biso   1.000  H
  C114     1.0000 0.94583  0.59645  0.32781  Biso   1.000  C
  C115     1.0000 0.96881  0.60155  0.29138  Biso   1.000  C
  C116     1.0000 0.93485  0.60040  0.25469  Biso   1.000  C
  C117     1.0000 0.91200  0.55010  0.24046  Biso   1.000  C
  H77      1.0000 0.91540  0.51600  0.25480  Biso   1.000  H
  C118     1.0000 0.88440  0.54870  0.20585  Biso   1.000  C
  H78      1.0000 0.87000  0.51310  0.19730  Biso   1.000  H
  N20      1.0000 0.65465  0.62659  0.43299  Biso   1.000  N
  C119     1.0000 0.60460  0.64790  0.44688  Biso   1.000  C
  H79      1.0000 0.57090  0.64290  0.43230  Biso   1.000  H
  C120     1.0000 0.92670  0.64950  0.23168  Biso   1.000  C
  H80      1.0000 0.94100  0.68530  0.23990  Biso   1.000  H
  N21      1.0000 0.23307  0.91070  0.36190  Biso   1.000  N
  C121     1.0000 0.21550  0.87730  0.33297  Biso   1.000  C
  H81      1.0000 0.24330  0.85520  0.32000  Biso   1.000  H
  C122     1.0000 0.15880  0.87330  0.32106  Biso   1.000  C
  H82      1.0000 0.14910  0.84900  0.30050  Biso   1.000  H
  C123     1.0000 0.11565  0.90570  0.33973  Biso   1.000  C
  C124     1.0000 0.13430  0.93970  0.37059  Biso   1.000  C
  H83      1.0000 0.10780  0.96150  0.38480  Biso   1.000  H
  C125     1.0000 0.19260  0.94070  0.37982  Biso   1.000  C
  H84      1.0000 0.20420  0.96440  0.40030  Biso   1.000  H
  C126     1.0000 0.05417  0.90355  0.32781  Biso   1.000  C
  C127     1.0000 0.03119  0.89845  0.29138  Biso   1.000  C
  C128     1.0000 0.06515  0.89960  0.25469  Biso   1.000  C
  C129     1.0000 0.08800  0.94990  0.24046  Biso   1.000  C
  H85      1.0000 0.08460  0.98400  0.25480  Biso   1.000  H
  C130     1.0000 0.11560  0.95130  0.20585  Biso   1.000  C
  H86      1.0000 0.13000  0.98690  0.19730  Biso   1.000  H
  N22      1.0000 0.34535  0.87341  0.43299  Biso   1.000  N
  C131     1.0000 0.39540  0.85210  0.44688  Biso   1.000  C
  H87      1.0000 0.42910  0.85710  0.43230  Biso   1.000  H
  C132     1.0000 0.07330  0.85050  0.23168  Biso   1.000  C
  H88      1.0000 0.05900  0.81470  0.23990  Biso   1.000  H
  N23      1.0000 0.73307  0.41070  0.86190  Biso   1.000  N
  C133     1.0000 0.71550  0.37730  0.83297  Biso   1.000  C
  H89      1.0000 0.74330  0.35520  0.82000  Biso   1.000  H
  C134     1.0000 0.65880  0.37330  0.82106  Biso   1.000  C
  H90      1.0000 0.64910  0.34900  0.80050  Biso   1.000  H
  C135     1.0000 0.61565  0.40570  0.83973  Biso   1.000  C
  C136     1.0000 0.63430  0.43970  0.87059  Biso   1.000  C
  H91      1.0000 0.60780  0.46150  0.88480  Biso   1.000  H
  C137     1.0000 0.69260  0.44070  0.87982  Biso   1.000  C
  H92      1.0000 0.70420  0.46440  0.90030  Biso   1.000  H
  C138     1.0000 0.55417  0.40355  0.82781  Biso   1.000  C
  C139     1.0000 0.53119  0.39845  0.79138  Biso   1.000  C
  C140     1.0000 0.56515  0.39960  0.75469  Biso   1.000  C
  C141     1.0000 0.58800  0.44990  0.74046  Biso   1.000  C
  H93      1.0000 0.58460  0.48400  0.75480  Biso   1.000  H
  C142     1.0000 0.61560  0.45130  0.70585  Biso   1.000  C
  H94      1.0000 0.63000  0.48690  0.69730  Biso   1.000  H
  N24      1.0000 0.84535  0.37341  0.93299  Biso   1.000  N
  C143     1.0000 0.89540  0.35210  0.94688  Biso   1.000  C
  H95      1.0000 0.92910  0.35710  0.93230  Biso   1.000  H
  C144     1.0000 0.57330  0.35050  0.73168  Biso   1.000  C
  H96      1.0000 0.55900  0.31470  0.73990  Biso   1.000  H
  N25      1.0000 0.33930  0.98307  0.61190  Biso   1.000  N
  C145     1.0000 0.37270  0.96550  0.58297  Biso   1.000  C
  H97      1.0000 0.39480  0.99330  0.57000  Biso   1.000  H
  C146     1.0000 0.37670  0.90880  0.57106  Biso   1.000  C
  H98      1.0000 0.40100  0.89910  0.55050  Biso   1.000  H
  C147     1.0000 0.34430  0.86565  0.58973  Biso   1.000  C
  C148     1.0000 0.31030  0.88430  0.62059  Biso   1.000  C
  H99      1.0000 0.28850  0.85780  0.63480  Biso   1.000  H
  C149     1.0000 0.30930  0.94260  0.62982  Biso   1.000  C
  H100     1.0000 0.28560  0.95420  0.65030  Biso   1.000  H
  C150     1.0000 0.34645  0.80417  0.57781  Biso   1.000  C
  C151     1.0000 0.35155  0.78119  0.54138  Biso   1.000  C
  C152     1.0000 0.35040  0.81515  0.50469  Biso   1.000  C
  C153     1.0000 0.30010  0.83800  0.49046  Biso   1.000  C
  H101     1.0000 0.26600  0.83460  0.50480  Biso   1.000  H
  C154     1.0000 0.29870  0.86560  0.45585  Biso   1.000  C
  H102     1.0000 0.26310  0.88000  0.44730  Biso   1.000  H
  N26      1.0000 0.37659  0.09535  0.68299  Biso   1.000  N
  C155     1.0000 0.39790  0.14540  0.69688  Biso   1.000  C
  H103     1.0000 0.39290  0.17910  0.68230  Biso   1.000  H
  C156     1.0000 0.39950  0.82330  0.48168  Biso   1.000  C
  H104     1.0000 0.43530  0.80900  0.48990  Biso   1.000  H
  N27      1.0000 0.83930  0.48307  0.11190  Biso   1.000  N
  C157     1.0000 0.87270  0.46550  0.08297  Biso   1.000  C
  H105     1.0000 0.89480  0.49330  0.07000  Biso   1.000  H
  C158     1.0000 0.87670  0.40880  0.07106  Biso   1.000  C
  H106     1.0000 0.90100  0.39910  0.05050  Biso   1.000  H
  C159     1.0000 0.84430  0.36565  0.08973  Biso   1.000  C
  C160     1.0000 0.81030  0.38430  0.12059  Biso   1.000  C
  H107     1.0000 0.78850  0.35780  0.13480  Biso   1.000  H
  C161     1.0000 0.80930  0.44260  0.12982  Biso   1.000  C
  H108     1.0000 0.78560  0.45420  0.15030  Biso   1.000  H
  C162     1.0000 0.84645  0.30417  0.07781  Biso   1.000  C
  C163     1.0000 0.85155  0.28119  0.04138  Biso   1.000  C
  C164     1.0000 0.85040  0.31515  0.00469  Biso   1.000  C
  C165     1.0000 0.80010  0.33800  0.99046  Biso   1.000  C
  H109     1.0000 0.76600  0.33460  0.00480  Biso   1.000  H
  C166     1.0000 0.79870  0.36560  0.95585  Biso   1.000  C
  H110     1.0000 0.76310  0.38000  0.94730  Biso   1.000  H
  N28      1.0000 0.87659  0.59535  0.18299  Biso   1.000  N
  C167     1.0000 0.89790  0.64540  0.19688  Biso   1.000  C
  H111     1.0000 0.89290  0.67910  0.18230  Biso   1.000  H
  C168     1.0000 0.89950  0.32330  0.98168  Biso   1.000  C
  H112     1.0000 0.93530  0.30900  0.98990  Biso   1.000  H
  N29      1.0000 0.16070  0.01693  0.11190  Biso   1.000  N
  C169     1.0000 0.12730  0.03450  0.08297  Biso   1.000  C
  H113     1.0000 0.10520  0.00670  0.07000  Biso   1.000  H
  C170     1.0000 0.12330  0.09120  0.07106  Biso   1.000  C
  H114     1.0000 0.09900  0.10090  0.05050  Biso   1.000  H
  C171     1.0000 0.15570  0.13435  0.08973  Biso   1.000  C
  C172     1.0000 0.18970  0.11570  0.12059  Biso   1.000  C
  H115     1.0000 0.21150  0.14220  0.13480  Biso   1.000  H
  C173     1.0000 0.19070  0.05740  0.12982  Biso   1.000  C
  H116     1.0000 0.21440  0.04580  0.15030  Biso   1.000  H
  C174     1.0000 0.15355  0.19583  0.07781  Biso   1.000  C
  C175     1.0000 0.14845  0.21881  0.04138  Biso   1.000  C
  C176     1.0000 0.14960  0.18485  0.00469  Biso   1.000  C
  C177     1.0000 0.19990  0.16200  0.99046  Biso   1.000  C
  H117     1.0000 0.23400  0.16540  0.00480  Biso   1.000  H
  C178     1.0000 0.20130  0.13440  0.95585  Biso   1.000  C
  H118     1.0000 0.23690  0.12000  0.94730  Biso   1.000  H
  N30      1.0000 0.12341  0.90465  0.18299  Biso   1.000  N
  C179     1.0000 0.10210  0.85460  0.19688  Biso   1.000  C
  H119     1.0000 0.10710  0.82090  0.18230  Biso   1.000  H
  C180     1.0000 0.10050  0.17670  0.98168  Biso   1.000  C
  H120     1.0000 0.06470  0.19100  0.98990  Biso   1.000  H
  N31      1.0000 0.66070  0.51693  0.61190  Biso   1.000  N
  C181     1.0000 0.62730  0.53450  0.58297  Biso   1.000  C
  H121     1.0000 0.60520  0.50670  0.57000  Biso   1.000  H
  C182     1.0000 0.62330  0.59120  0.57106  Biso   1.000  C
  H122     1.0000 0.59900  0.60090  0.55050  Biso   1.000  H
  C183     1.0000 0.65570  0.63435  0.58973  Biso   1.000  C
  C184     1.0000 0.68970  0.61570  0.62059  Biso   1.000  C
  H123     1.0000 0.71150  0.64220  0.63480  Biso   1.000  H
  C185     1.0000 0.69070  0.55740  0.62982  Biso   1.000  C
  H124     1.0000 0.71440  0.54580  0.65030  Biso   1.000  H
  C186     1.0000 0.65355  0.69583  0.57781  Biso   1.000  C
  C187     1.0000 0.64845  0.71881  0.54138  Biso   1.000  C
  C188     1.0000 0.64960  0.68485  0.50469  Biso   1.000  C
  C189     1.0000 0.69990  0.66200  0.49046  Biso   1.000  C
  H125     1.0000 0.73400  0.66540  0.50480  Biso   1.000  H
  C190     1.0000 0.70130  0.63440  0.45585  Biso   1.000  C
  H126     1.0000 0.73690  0.62000  0.44730  Biso   1.000  H
  N32      1.0000 0.62341  0.40465  0.68299  Biso   1.000  N
  C191     1.0000 0.60210  0.35460  0.69688  Biso   1.000  C
  H127     1.0000 0.60710  0.32090  0.68230  Biso   1.000  H
  C192     1.0000 0.60050  0.67670  0.48168  Biso   1.000  C
  H128     1.0000 0.56470  0.69100  0.48990  Biso   1.000  H
  N33      1.0000 0.76693  0.91070  0.36190  Biso   1.000  N
  C193     1.0000 0.78450  0.87730  0.33297  Biso   1.000  C
  H129     1.0000 0.75670  0.85520  0.32000  Biso   1.000  H
  C194     1.0000 0.84120  0.87330  0.32106  Biso   1.000  C
  H130     1.0000 0.85090  0.84900  0.30050  Biso   1.000  H
  C195     1.0000 0.88435  0.90570  0.33973  Biso   1.000  C
  C196     1.0000 0.86570  0.93970  0.37059  Biso   1.000  C
  H131     1.0000 0.89220  0.96150  0.38480  Biso   1.000  H
  C197     1.0000 0.80740  0.94070  0.37982  Biso   1.000  C
  H132     1.0000 0.79580  0.96440  0.40030  Biso   1.000  H
  C198     1.0000 0.94583  0.90355  0.32781  Biso   1.000  C
  C199     1.0000 0.96881  0.89845  0.29138  Biso   1.000  C
  C200     1.0000 0.93485  0.89960  0.25469  Biso   1.000  C
  C201     1.0000 0.91200  0.94990  0.24046  Biso   1.000  C
  H133     1.0000 0.91540  0.98400  0.25480  Biso   1.000  H
  C202     1.0000 0.88440  0.95130  0.20585  Biso   1.000  C
  H134     1.0000 0.87000  0.98690  0.19730  Biso   1.000  H
  N34      1.0000 0.65465  0.87341  0.43299  Biso   1.000  N
  C203     1.0000 0.60460  0.85210  0.44688  Biso   1.000  C
  H135     1.0000 0.57090  0.85710  0.43230  Biso   1.000  H
  C204     1.0000 0.92670  0.85050  0.23168  Biso   1.000  C
  H136     1.0000 0.94100  0.81470  0.23990  Biso   1.000  H
  N35      1.0000 0.26693  0.41070  0.86190  Biso   1.000  N
  C205     1.0000 0.28450  0.37730  0.83297  Biso   1.000  C
  H137     1.0000 0.25670  0.35520  0.82000  Biso   1.000  H
  C206     1.0000 0.34120  0.37330  0.82106  Biso   1.000  C
  H138     1.0000 0.35090  0.34900  0.80050  Biso   1.000  H
  C207     1.0000 0.38435  0.40570  0.83973  Biso   1.000  C
  C208     1.0000 0.36570  0.43970  0.87059  Biso   1.000  C
  H139     1.0000 0.39220  0.46150  0.88480  Biso   1.000  H
  C209     1.0000 0.30740  0.44070  0.87982  Biso   1.000  C
  H140     1.0000 0.29580  0.46440  0.90030  Biso   1.000  H
  C210     1.0000 0.44583  0.40355  0.82781  Biso   1.000  C
  C211     1.0000 0.46881  0.39845  0.79138  Biso   1.000  C
  C212     1.0000 0.43485  0.39960  0.75469  Biso   1.000  C
  C213     1.0000 0.41200  0.44990  0.74046  Biso   1.000  C
  H141     1.0000 0.41540  0.48400  0.75480  Biso   1.000  H
  C214     1.0000 0.38440  0.45130  0.70585  Biso   1.000  C
  H142     1.0000 0.37000  0.48690  0.69730  Biso   1.000  H
  N36      1.0000 0.15465  0.37341  0.93299  Biso   1.000  N
  C215     1.0000 0.10460  0.35210  0.94688  Biso   1.000  C
  H143     1.0000 0.07090  0.35710  0.93230  Biso   1.000  H
  C216     1.0000 0.42670  0.35050  0.73168  Biso   1.000  C
  H144     1.0000 0.44100  0.31470  0.73990  Biso   1.000  H
  N37      1.0000 0.73307  0.08930  0.86190  Biso   1.000  N
  C217     1.0000 0.71550  0.12270  0.83297  Biso   1.000  C
  H145     1.0000 0.74330  0.14480  0.82000  Biso   1.000  H
  C218     1.0000 0.65880  0.12670  0.82106  Biso   1.000  C
  H146     1.0000 0.64910  0.15100  0.80050  Biso   1.000  H
  C219     1.0000 0.61565  0.09430  0.83973  Biso   1.000  C
  C220     1.0000 0.63430  0.06030  0.87059  Biso   1.000  C
  H147     1.0000 0.60780  0.03850  0.88480  Biso   1.000  H
  C221     1.0000 0.69260  0.05930  0.87982  Biso   1.000  C
  H148     1.0000 0.70420  0.03560  0.90030  Biso   1.000  H
  C222     1.0000 0.55417  0.09645  0.82781  Biso   1.000  C
  C223     1.0000 0.53119  0.10155  0.79138  Biso   1.000  C
  C224     1.0000 0.56515  0.10040  0.75469  Biso   1.000  C
  C225     1.0000 0.58800  0.05010  0.74046  Biso   1.000  C
  H149     1.0000 0.58460  0.01600  0.75480  Biso   1.000  H
  C226     1.0000 0.61560  0.04870  0.70585  Biso   1.000  C
  H150     1.0000 0.63000  0.01310  0.69730  Biso   1.000  H
  N38      1.0000 0.84535  0.12659  0.93299  Biso   1.000  N
  C227     1.0000 0.89540  0.14790  0.94688  Biso   1.000  C
  H151     1.0000 0.92910  0.14290  0.93230  Biso   1.000  H
  C228     1.0000 0.57330  0.14950  0.73168  Biso   1.000  C
  H152     1.0000 0.55900  0.18530  0.73990  Biso   1.000  H
  N39      1.0000 0.23307  0.58930  0.36190  Biso   1.000  N
  C229     1.0000 0.21550  0.62270  0.33297  Biso   1.000  C
  H153     1.0000 0.24330  0.64480  0.32000  Biso   1.000  H
  C230     1.0000 0.15880  0.62670  0.32106  Biso   1.000  C
  H154     1.0000 0.14910  0.65100  0.30050  Biso   1.000  H
  C231     1.0000 0.11565  0.59430  0.33973  Biso   1.000  C
  C232     1.0000 0.13430  0.56030  0.37059  Biso   1.000  C
  H155     1.0000 0.10780  0.53850  0.38480  Biso   1.000  H
  C233     1.0000 0.19260  0.55930  0.37982  Biso   1.000  C
  H156     1.0000 0.20420  0.53560  0.40030  Biso   1.000  H
  C234     1.0000 0.05417  0.59645  0.32781  Biso   1.000  C
  C235     1.0000 0.03119  0.60155  0.29138  Biso   1.000  C
  C236     1.0000 0.06515  0.60040  0.25469  Biso   1.000  C
  C237     1.0000 0.08800  0.55010  0.24046  Biso   1.000  C
  H157     1.0000 0.08460  0.51600  0.25480  Biso   1.000  H
  C238     1.0000 0.11560  0.54870  0.20585  Biso   1.000  C
  H158     1.0000 0.13000  0.51310  0.19730  Biso   1.000  H
  N40      1.0000 0.34535  0.62659  0.43299  Biso   1.000  N
  C239     1.0000 0.39540  0.64790  0.44688  Biso   1.000  C
  H159     1.0000 0.42910  0.64290  0.43230  Biso   1.000  H
  C240     1.0000 0.07330  0.64950  0.23168  Biso   1.000  C
  H160     1.0000 0.05900  0.68530  0.23990  Biso   1.000  H
  N41      1.0000 0.83930  0.01693  0.11190  Biso   1.000  N
  C241     1.0000 0.87270  0.03450  0.08297  Biso   1.000  C
  H161     1.0000 0.89480  0.00670  0.07000  Biso   1.000  H
  C242     1.0000 0.87670  0.09120  0.07106  Biso   1.000  C
  H162     1.0000 0.90100  0.10090  0.05050  Biso   1.000  H
  C243     1.0000 0.84430  0.13435  0.08973  Biso   1.000  C
  C244     1.0000 0.81030  0.11570  0.12059  Biso   1.000  C
  H163     1.0000 0.78850  0.14220  0.13480  Biso   1.000  H
  C245     1.0000 0.80930  0.05740  0.12982  Biso   1.000  C
  H164     1.0000 0.78560  0.04580  0.15030  Biso   1.000  H
  C246     1.0000 0.84645  0.19583  0.07781  Biso   1.000  C
  C247     1.0000 0.85155  0.21881  0.04138  Biso   1.000  C
  C248     1.0000 0.85040  0.18485  0.00469  Biso   1.000  C
  C249     1.0000 0.80010  0.16200  0.99046  Biso   1.000  C
  H165     1.0000 0.76600  0.16540  0.00480  Biso   1.000  H
  C250     1.0000 0.79870  0.13440  0.95585  Biso   1.000  C
  H166     1.0000 0.76310  0.12000  0.94730  Biso   1.000  H
  N42      1.0000 0.87659  0.90465  0.18299  Biso   1.000  N
  C251     1.0000 0.89790  0.85460  0.19688  Biso   1.000  C
  H167     1.0000 0.89290  0.82090  0.18230  Biso   1.000  H
  C252     1.0000 0.89950  0.17670  0.98168  Biso   1.000  C
  H168     1.0000 0.93530  0.19100  0.98990  Biso   1.000  H
  N43      1.0000 0.33930  0.51693  0.61190  Biso   1.000  N
  C253     1.0000 0.37270  0.53450  0.58297  Biso   1.000  C
  H169     1.0000 0.39480  0.50670  0.57000  Biso   1.000  H
  C254     1.0000 0.37670  0.59120  0.57106  Biso   1.000  C
  H170     1.0000 0.40100  0.60090  0.55050  Biso   1.000  H
  C255     1.0000 0.34430  0.63435  0.58973  Biso   1.000  C
  C256     1.0000 0.31030  0.61570  0.62059  Biso   1.000  C
  H171     1.0000 0.28850  0.64220  0.63480  Biso   1.000  H
  C257     1.0000 0.30930  0.55740  0.62982  Biso   1.000  C
  H172     1.0000 0.28560  0.54580  0.65030  Biso   1.000  H
  C258     1.0000 0.34645  0.69583  0.57781  Biso   1.000  C
  C259     1.0000 0.35155  0.71881  0.54138  Biso   1.000  C
  C260     1.0000 0.35040  0.68485  0.50469  Biso   1.000  C
  C261     1.0000 0.30010  0.66200  0.49046  Biso   1.000  C
  H173     1.0000 0.26600  0.66540  0.50480  Biso   1.000  H
  C262     1.0000 0.29870  0.63440  0.45585  Biso   1.000  C
  H174     1.0000 0.26310  0.62000  0.44730  Biso   1.000  H
  N44      1.0000 0.37659  0.40465  0.68299  Biso   1.000  N
  C263     1.0000 0.39790  0.35460  0.69688  Biso   1.000  C
  H175     1.0000 0.39290  0.32090  0.68230  Biso   1.000  H
  C264     1.0000 0.39950  0.67670  0.48168  Biso   1.000  C
  H176     1.0000 0.43530  0.69100  0.48990  Biso   1.000  H
  N45      1.0000 0.66070  0.98307  0.61190  Biso   1.000  N
  C265     1.0000 0.62730  0.96550  0.58297  Biso   1.000  C
  H177     1.0000 0.60520  0.99330  0.57000  Biso   1.000  H
  C266     1.0000 0.62330  0.90880  0.57106  Biso   1.000  C
  H178     1.0000 0.59900  0.89910  0.55050  Biso   1.000  H
  C267     1.0000 0.65570  0.86565  0.58973  Biso   1.000  C
  C268     1.0000 0.68970  0.88430  0.62059  Biso   1.000  C
  H179     1.0000 0.71150  0.85780  0.63480  Biso   1.000  H
  C269     1.0000 0.69070  0.94260  0.62982  Biso   1.000  C
  H180     1.0000 0.71440  0.95420  0.65030  Biso   1.000  H
  C270     1.0000 0.65355  0.80417  0.57781  Biso   1.000  C
  C271     1.0000 0.64845  0.78119  0.54138  Biso   1.000  C
  C272     1.0000 0.64960  0.81515  0.50469  Biso   1.000  C
  C273     1.0000 0.69990  0.83800  0.49046  Biso   1.000  C
  H181     1.0000 0.73400  0.83460  0.50480  Biso   1.000  H
  C274     1.0000 0.70130  0.86560  0.45585  Biso   1.000  C
  H182     1.0000 0.73690  0.88000  0.44730  Biso   1.000  H
  N46      1.0000 0.62341  0.09535  0.68299  Biso   1.000  N
  C275     1.0000 0.60210  0.14540  0.69688  Biso   1.000  C
  H183     1.0000 0.60710  0.17910  0.68230  Biso   1.000  H
  C276     1.0000 0.60050  0.82330  0.48168  Biso   1.000  C
  H184     1.0000 0.56470  0.80900  0.48990  Biso   1.000  H
  N47      1.0000 0.16070  0.48307  0.11190  Biso   1.000  N
  C277     1.0000 0.12730  0.46550  0.08297  Biso   1.000  C
  H185     1.0000 0.10520  0.49330  0.07000  Biso   1.000  H
  C278     1.0000 0.12330  0.40880  0.07106  Biso   1.000  C
  H186     1.0000 0.09900  0.39910  0.05050  Biso   1.000  H
  C279     1.0000 0.15570  0.36565  0.08973  Biso   1.000  C
  C280     1.0000 0.18970  0.38430  0.12059  Biso   1.000  C
  H187     1.0000 0.21150  0.35780  0.13480  Biso   1.000  H
  C281     1.0000 0.19070  0.44260  0.12982  Biso   1.000  C
  H188     1.0000 0.21440  0.45420  0.15030  Biso   1.000  H
  C282     1.0000 0.15355  0.30417  0.07781  Biso   1.000  C
  C283     1.0000 0.14845  0.28119  0.04138  Biso   1.000  C
  C284     1.0000 0.14960  0.31515  0.00469  Biso   1.000  C
  C285     1.0000 0.19990  0.33800  0.99046  Biso   1.000  C
  H189     1.0000 0.23400  0.33460  0.00480  Biso   1.000  H
  C286     1.0000 0.20130  0.36560  0.95585  Biso   1.000  C
  H190     1.0000 0.23690  0.38000  0.94730  Biso   1.000  H
  N48      1.0000 0.12341  0.59535  0.18299  Biso   1.000  N
  C287     1.0000 0.10210  0.64540  0.19688  Biso   1.000  C
  H191     1.0000 0.10710  0.67910  0.18230  Biso   1.000  H
  C288     1.0000 0.10050  0.32330  0.98168  Biso   1.000  C
  H192     1.0000 0.06470  0.30900  0.98990  Biso   1.000  H
  N49      1.0000 0.73307  0.91070  0.13810  Biso   1.000  N
  C289     1.0000 0.71550  0.87730  0.16703  Biso   1.000  C
  H193     1.0000 0.74330  0.85520  0.18000  Biso   1.000  H
  C290     1.0000 0.65880  0.87330  0.17894  Biso   1.000  C
  H194     1.0000 0.64910  0.84900  0.19950  Biso   1.000  H
  C291     1.0000 0.61565  0.90570  0.16027  Biso   1.000  C
  C292     1.0000 0.63430  0.93970  0.12941  Biso   1.000  C
  H195     1.0000 0.60780  0.96150  0.11520  Biso   1.000  H
  C293     1.0000 0.69260  0.94070  0.12018  Biso   1.000  C
  H196     1.0000 0.70420  0.96440  0.09970  Biso   1.000  H
  C294     1.0000 0.55417  0.90355  0.17219  Biso   1.000  C
  C295     1.0000 0.53119  0.89845  0.20862  Biso   1.000  C
  C296     1.0000 0.56515  0.89960  0.24531  Biso   1.000  C
  C297     1.0000 0.58800  0.94990  0.25954  Biso   1.000  C
  H197     1.0000 0.58460  0.98400  0.24520  Biso   1.000  H
  C298     1.0000 0.61560  0.95130  0.29415  Biso   1.000  C
  H198     1.0000 0.63000  0.98690  0.30270  Biso   1.000  H
  N50      1.0000 0.84535  0.87341  0.06701  Biso   1.000  N
  C299     1.0000 0.89540  0.85210  0.05312  Biso   1.000  C
  H199     1.0000 0.92910  0.85710  0.06770  Biso   1.000  H
  C300     1.0000 0.57330  0.85050  0.26832  Biso   1.000  C
  H200     1.0000 0.55900  0.81470  0.26010  Biso   1.000  H
  N51      1.0000 0.23307  0.41070  0.63810  Biso   1.000  N
  C301     1.0000 0.21550  0.37730  0.66703  Biso   1.000  C
  H201     1.0000 0.24330  0.35520  0.68000  Biso   1.000  H
  C302     1.0000 0.15880  0.37330  0.67894  Biso   1.000  C
  H202     1.0000 0.14910  0.34900  0.69950  Biso   1.000  H
  C303     1.0000 0.11565  0.40570  0.66027  Biso   1.000  C
  C304     1.0000 0.13430  0.43970  0.62941  Biso   1.000  C
  H203     1.0000 0.10780  0.46150  0.61520  Biso   1.000  H
  C305     1.0000 0.19260  0.44070  0.62018  Biso   1.000  C
  H204     1.0000 0.20420  0.46440  0.59970  Biso   1.000  H
  C306     1.0000 0.05417  0.40355  0.67219  Biso   1.000  C
  C307     1.0000 0.03119  0.39845  0.70862  Biso   1.000  C
  C308     1.0000 0.06515  0.39960  0.74531  Biso   1.000  C
  C309     1.0000 0.08800  0.44990  0.75954  Biso   1.000  C
  H205     1.0000 0.08460  0.48400  0.74520  Biso   1.000  H
  C310     1.0000 0.11560  0.45130  0.79415  Biso   1.000  C
  H206     1.0000 0.13000  0.48690  0.80270  Biso   1.000  H
  N52      1.0000 0.34535  0.37341  0.56701  Biso   1.000  N
  C311     1.0000 0.39540  0.35210  0.55312  Biso   1.000  C
  H207     1.0000 0.42910  0.35710  0.56770  Biso   1.000  H
  C312     1.0000 0.07330  0.35050  0.76832  Biso   1.000  C
  H208     1.0000 0.05900  0.31470  0.76010  Biso   1.000  H
  N53      1.0000 0.76693  0.08930  0.63810  Biso   1.000  N
  C313     1.0000 0.78450  0.12270  0.66703  Biso   1.000  C
  H209     1.0000 0.75670  0.14480  0.68000  Biso   1.000  H
  C314     1.0000 0.84120  0.12670  0.67894  Biso   1.000  C
  H210     1.0000 0.85090  0.15100  0.69950  Biso   1.000  H
  C315     1.0000 0.88435  0.09430  0.66027  Biso   1.000  C
  C316     1.0000 0.86570  0.06030  0.62941  Biso   1.000  C
  H211     1.0000 0.89220  0.03850  0.61520  Biso   1.000  H
  C317     1.0000 0.80740  0.05930  0.62018  Biso   1.000  C
  H212     1.0000 0.79580  0.03560  0.59970  Biso   1.000  H
  C318     1.0000 0.94583  0.09645  0.67219  Biso   1.000  C
  C319     1.0000 0.96881  0.10155  0.70862  Biso   1.000  C
  C320     1.0000 0.93485  0.10040  0.74531  Biso   1.000  C
  C321     1.0000 0.91200  0.05010  0.75954  Biso   1.000  C
  H213     1.0000 0.91540  0.01600  0.74520  Biso   1.000  H
  C322     1.0000 0.88440  0.04870  0.79415  Biso   1.000  C
  H214     1.0000 0.87000  0.01310  0.80270  Biso   1.000  H
  N54      1.0000 0.65465  0.12659  0.56701  Biso   1.000  N
  C323     1.0000 0.60460  0.14790  0.55312  Biso   1.000  C
  H215     1.0000 0.57090  0.14290  0.56770  Biso   1.000  H
  C324     1.0000 0.92670  0.14950  0.76832  Biso   1.000  C
  H216     1.0000 0.94100  0.18530  0.76010  Biso   1.000  H
  N55      1.0000 0.26693  0.58930  0.13810  Biso   1.000  N
  C325     1.0000 0.28450  0.62270  0.16703  Biso   1.000  C
  H217     1.0000 0.25670  0.64480  0.18000  Biso   1.000  H
  C326     1.0000 0.34120  0.62670  0.17894  Biso   1.000  C
  H218     1.0000 0.35090  0.65100  0.19950  Biso   1.000  H
  C327     1.0000 0.38435  0.59430  0.16027  Biso   1.000  C
  C328     1.0000 0.36570  0.56030  0.12941  Biso   1.000  C
  H219     1.0000 0.39220  0.53850  0.11520  Biso   1.000  H
  C329     1.0000 0.30740  0.55930  0.12018  Biso   1.000  C
  H220     1.0000 0.29580  0.53560  0.09970  Biso   1.000  H
  C330     1.0000 0.44583  0.59645  0.17219  Biso   1.000  C
  C331     1.0000 0.46881  0.60155  0.20862  Biso   1.000  C
  C332     1.0000 0.43485  0.60040  0.24531  Biso   1.000  C
  C333     1.0000 0.41200  0.55010  0.25954  Biso   1.000  C
  H221     1.0000 0.41540  0.51600  0.24520  Biso   1.000  H
  C334     1.0000 0.38440  0.54870  0.29415  Biso   1.000  C
  H222     1.0000 0.37000  0.51310  0.30270  Biso   1.000  H
  N56      1.0000 0.15465  0.62659  0.06701  Biso   1.000  N
  C335     1.0000 0.10460  0.64790  0.05312  Biso   1.000  C
  H223     1.0000 0.07090  0.64290  0.06770  Biso   1.000  H
  C336     1.0000 0.42670  0.64950  0.26832  Biso   1.000  C
  H224     1.0000 0.44100  0.68530  0.26010  Biso   1.000  H
  N57      1.0000 0.66070  0.01693  0.38810  Biso   1.000  N
  C337     1.0000 0.62730  0.03450  0.41703  Biso   1.000  C
  H225     1.0000 0.60520  0.00670  0.43000  Biso   1.000  H
  C338     1.0000 0.62330  0.09120  0.42894  Biso   1.000  C
  H226     1.0000 0.59900  0.10090  0.44950  Biso   1.000  H
  C339     1.0000 0.65570  0.13435  0.41027  Biso   1.000  C
  C340     1.0000 0.68970  0.11570  0.37941  Biso   1.000  C
  H227     1.0000 0.71150  0.14220  0.36520  Biso   1.000  H
  C341     1.0000 0.69070  0.05740  0.37018  Biso   1.000  C
  H228     1.0000 0.71440  0.04580  0.34970  Biso   1.000  H
  C342     1.0000 0.65355  0.19583  0.42219  Biso   1.000  C
  C343     1.0000 0.64845  0.21881  0.45862  Biso   1.000  C
  C344     1.0000 0.64960  0.18485  0.49531  Biso   1.000  C
  C345     1.0000 0.69990  0.16200  0.50954  Biso   1.000  C
  H229     1.0000 0.73400  0.16540  0.49520  Biso   1.000  H
  C346     1.0000 0.70130  0.13440  0.54415  Biso   1.000  C
  H230     1.0000 0.73690  0.12000  0.55270  Biso   1.000  H
  N58      1.0000 0.62341  0.90465  0.31701  Biso   1.000  N
  C347     1.0000 0.60210  0.85460  0.30312  Biso   1.000  C
  H231     1.0000 0.60710  0.82090  0.31770  Biso   1.000  H
  C348     1.0000 0.60050  0.17670  0.51832  Biso   1.000  C
  H232     1.0000 0.56470  0.19100  0.51010  Biso   1.000  H
  N59      1.0000 0.16070  0.51693  0.88810  Biso   1.000  N
  C349     1.0000 0.12730  0.53450  0.91703  Biso   1.000  C
  H233     1.0000 0.10520  0.50670  0.93000  Biso   1.000  H
  C350     1.0000 0.12330  0.59120  0.92894  Biso   1.000  C
  H234     1.0000 0.09900  0.60090  0.94950  Biso   1.000  H
  C351     1.0000 0.15570  0.63435  0.91027  Biso   1.000  C
  C352     1.0000 0.18970  0.61570  0.87941  Biso   1.000  C
  H235     1.0000 0.21150  0.64220  0.86520  Biso   1.000  H
  C353     1.0000 0.19070  0.55740  0.87018  Biso   1.000  C
  H236     1.0000 0.21440  0.54580  0.84970  Biso   1.000  H
  C354     1.0000 0.15355  0.69583  0.92219  Biso   1.000  C
  C355     1.0000 0.14845  0.71881  0.95862  Biso   1.000  C
  C356     1.0000 0.14960  0.68485  0.99531  Biso   1.000  C
  C357     1.0000 0.19990  0.66200  0.00954  Biso   1.000  C
  H237     1.0000 0.23400  0.66540  0.99520  Biso   1.000  H
  C358     1.0000 0.20130  0.63440  0.04415  Biso   1.000  C
  H238     1.0000 0.23690  0.62000  0.05270  Biso   1.000  H
  N60      1.0000 0.12341  0.40465  0.81701  Biso   1.000  N
  C359     1.0000 0.10210  0.35460  0.80312  Biso   1.000  C
  H239     1.0000 0.10710  0.32090  0.81770  Biso   1.000  H
  C360     1.0000 0.10050  0.67670  0.01832  Biso   1.000  C
  H240     1.0000 0.06470  0.69100  0.01010  Biso   1.000  H
  N61      1.0000 0.83930  0.98307  0.88810  Biso   1.000  N
  C361     1.0000 0.87270  0.96550  0.91703  Biso   1.000  C
  H241     1.0000 0.89480  0.99330  0.93000  Biso   1.000  H
  C362     1.0000 0.87670  0.90880  0.92894  Biso   1.000  C
  H242     1.0000 0.90100  0.89910  0.94950  Biso   1.000  H
  C363     1.0000 0.84430  0.86565  0.91027  Biso   1.000  C
  C364     1.0000 0.81030  0.88430  0.87941  Biso   1.000  C
  H243     1.0000 0.78850  0.85780  0.86520  Biso   1.000  H
  C365     1.0000 0.80930  0.94260  0.87018  Biso   1.000  C
  H244     1.0000 0.78560  0.95420  0.84970  Biso   1.000  H
  C366     1.0000 0.84645  0.80417  0.92219  Biso   1.000  C
  C367     1.0000 0.85155  0.78119  0.95862  Biso   1.000  C
  C368     1.0000 0.85040  0.81515  0.99531  Biso   1.000  C
  C369     1.0000 0.80010  0.83800  0.00954  Biso   1.000  C
  H245     1.0000 0.76600  0.83460  0.99520  Biso   1.000  H
  C370     1.0000 0.79870  0.86560  0.04415  Biso   1.000  C
  H246     1.0000 0.76310  0.88000  0.05270  Biso   1.000  H
  N62      1.0000 0.87659  0.09535  0.81701  Biso   1.000  N
  C371     1.0000 0.89790  0.14540  0.80312  Biso   1.000  C
  H247     1.0000 0.89290  0.17910  0.81770  Biso   1.000  H
  C372     1.0000 0.89950  0.82330  0.01832  Biso   1.000  C
  H248     1.0000 0.93530  0.80900  0.01010  Biso   1.000  H
  N63      1.0000 0.33930  0.48307  0.38810  Biso   1.000  N
  C373     1.0000 0.37270  0.46550  0.41703  Biso   1.000  C
  H249     1.0000 0.39480  0.49330  0.43000  Biso   1.000  H
  C374     1.0000 0.37670  0.40880  0.42894  Biso   1.000  C
  H250     1.0000 0.40100  0.39910  0.44950  Biso   1.000  H
  C375     1.0000 0.34430  0.36565  0.41027  Biso   1.000  C
  C376     1.0000 0.31030  0.38430  0.37941  Biso   1.000  C
  H251     1.0000 0.28850  0.35780  0.36520  Biso   1.000  H
  C377     1.0000 0.30930  0.44260  0.37018  Biso   1.000  C
  H252     1.0000 0.28560  0.45420  0.34970  Biso   1.000  H
  C378     1.0000 0.34645  0.30417  0.42219  Biso   1.000  C
  C379     1.0000 0.35155  0.28119  0.45862  Biso   1.000  C
  C380     1.0000 0.35040  0.31515  0.49531  Biso   1.000  C
  C381     1.0000 0.30010  0.33800  0.50954  Biso   1.000  C
  H253     1.0000 0.26600  0.33460  0.49520  Biso   1.000  H
  C382     1.0000 0.29870  0.36560  0.54415  Biso   1.000  C
  H254     1.0000 0.26310  0.38000  0.55270  Biso   1.000  H
  N64      1.0000 0.37659  0.59535  0.31701  Biso   1.000  N
  C383     1.0000 0.39790  0.64540  0.30312  Biso   1.000  C
  H255     1.0000 0.39290  0.67910  0.31770  Biso   1.000  H
  C384     1.0000 0.39950  0.32330  0.51832  Biso   1.000  C
  H256     1.0000 0.43530  0.30900  0.51010  Biso   1.000  H
  Ag1      1.0000 0.33398  0.08398  0.62500  Biso   1.000  Ag
  Ag2      1.0000 0.83398  0.58398  0.12500  Biso   1.000  Ag
  Ag3      1.0000 0.16602  0.91602  0.12500  Biso   1.000  Ag
  Ag4      1.0000 0.66602  0.41602  0.62500  Biso   1.000  Ag
  Ag5      1.0000 0.16602  0.08398  0.87500  Biso   1.000  Ag
  Ag6      1.0000 0.66602  0.58398  0.37500  Biso   1.000  Ag
  Ag7      1.0000 0.33398  0.91602  0.37500  Biso   1.000  Ag
  Ag8      1.0000 0.83398  0.41602  0.87500  Biso   1.000  Ag
  Ag9      1.0000 0.66602  0.91602  0.37500  Biso   1.000  Ag
  Ag10     1.0000 0.16602  0.41602  0.87500  Biso   1.000  Ag
  Ag11     1.0000 0.83398  0.08398  0.87500  Biso   1.000  Ag
  Ag12     1.0000 0.33398  0.58398  0.37500  Biso   1.000  Ag
  Ag13     1.0000 0.83398  0.91602  0.12500  Biso   1.000  Ag
  Ag14     1.0000 0.33398  0.41602  0.62500  Biso   1.000  Ag
  Ag15     1.0000 0.66602  0.08398  0.62500  Biso   1.000  Ag
  Ag16     1.0000 0.16602  0.58398  0.12500  Biso   1.000  Ag
  S1       1.0000 0.00000  0.09255  0.63801  Biso   1.000  S
  S2       1.0000 0.50000  0.59255  0.13801  Biso   1.000  S
  S3       1.0000 0.50000  0.90745  0.13801  Biso   1.000  S
  S4       1.0000 0.00000  0.40745  0.63801  Biso   1.000  S
  S5       1.0000 0.15745  0.75000  0.88801  Biso   1.000  S
  S6       1.0000 0.34255  0.25000  0.38801  Biso   1.000  S
  S7       1.0000 0.50000  0.09255  0.86199  Biso   1.000  S
  S8       1.0000 0.00000  0.59255  0.36199  Biso   1.000  S
  S9       1.0000 0.00000  0.90745  0.36199  Biso   1.000  S
  S10      1.0000 0.50000  0.40745  0.86199  Biso   1.000  S
  S11      1.0000 0.34255  0.75000  0.61199  Biso   1.000  S
  S12      1.0000 0.15745  0.25000  0.11199  Biso   1.000  S
  S13      1.0000 0.84255  0.25000  0.11199  Biso   1.000  S
  S14      1.0000 0.65745  0.75000  0.61199  Biso   1.000  S
  S15      1.0000 0.65745  0.25000  0.38801  Biso   1.000  S
  S16      1.0000 0.84255  0.75000  0.88801  Biso   1.000  S
