data_image0
_cell_length_a       22.975
_cell_length_b       22.975
_cell_length_c       34.298
_cell_angle_alpha    90
_cell_angle_beta     90
_cell_angle_gamma    90

_symmetry_space_group_name_H-M    "P 1"
_symmetry_int_tables_number       1

loop_
  _symmetry_equiv_pos_as_xyz
  'x, y, z'

loop_
  _atom_site_label
  _atom_site_occupancy
  _atom_site_fract_x
  _atom_site_fract_y
  _atom_site_fract_z
  _atom_site_thermal_displace_type
  _atom_site_B_iso_or_equiv
  _atom_site_type_symbol
  N1       1.0000 0.23260  0.08770  0.63622  Biso   1.000  N
  C1       1.0000 0.21430  0.12070  0.66530  Biso   1.000  C
  H1       1.0000 0.24250  0.14360  0.67850  Biso   1.000  H
  C2       1.0000 0.15850  0.12450  0.67790  Biso   1.000  C
  H2       1.0000 0.14860  0.14900  0.69920  Biso   1.000  H
  C3       1.0000 0.11580  0.09170  0.65890  Biso   1.000  C
  C4       1.0000 0.13470  0.05590  0.62890  Biso   1.000  C
  H3       1.0000 0.10770  0.03190  0.61550  Biso   1.000  H
  C5       1.0000 0.19270  0.05510  0.61870  Biso   1.000  C
  H4       1.0000 0.20480  0.03010  0.59820  Biso   1.000  H
  C6       1.0000 0.05480  0.09370  0.67088  Biso   1.000  C
  C7       1.0000 0.03210  0.09870  0.70768  Biso   1.000  C
  C8       1.0000 0.06580  0.09890  0.74514  Biso   1.000  C
  C9       1.0000 0.08880  0.04900  0.75860  Biso   1.000  C
  H5       1.0000 0.08480  0.01400  0.74420  Biso   1.000  H
  C10      1.0000 0.11770  0.04920  0.79310  Biso   1.000  C
  H6       1.0000 0.13380  0.01340  0.80180  Biso   1.000  H
  N2       1.0000 0.12540  0.09650  0.81602  Biso   1.000  N
  C11      1.0000 0.10360  0.14510  0.80152  Biso   1.000  C
  H7       1.0000 0.10870  0.18010  0.81590  Biso   1.000  H
  C12      1.0000 0.07380  0.14780  0.76680  Biso   1.000  C
  H8       1.0000 0.05890  0.18400  0.75780  Biso   1.000  H
  N3       1.0000 0.73260  0.58770  0.13622  Biso   1.000  N
  C13      1.0000 0.71430  0.62070  0.16530  Biso   1.000  C
  H9       1.0000 0.74250  0.64360  0.17850  Biso   1.000  H
  C14      1.0000 0.65850  0.62450  0.17790  Biso   1.000  C
  H10      1.0000 0.64860  0.64900  0.19920  Biso   1.000  H
  C15      1.0000 0.61580  0.59170  0.15890  Biso   1.000  C
  C16      1.0000 0.63470  0.55590  0.12890  Biso   1.000  C
  H11      1.0000 0.60770  0.53190  0.11550  Biso   1.000  H
  C17      1.0000 0.69270  0.55510  0.11870  Biso   1.000  C
  H12      1.0000 0.70480  0.53010  0.09820  Biso   1.000  H
  C18      1.0000 0.55480  0.59370  0.17088  Biso   1.000  C
  C19      1.0000 0.53210  0.59870  0.20768  Biso   1.000  C
  C20      1.0000 0.56580  0.59890  0.24514  Biso   1.000  C
  C21      1.0000 0.58880  0.54900  0.25860  Biso   1.000  C
  H13      1.0000 0.58480  0.51400  0.24420  Biso   1.000  H
  C22      1.0000 0.61770  0.54920  0.29310  Biso   1.000  C
  H14      1.0000 0.63380  0.51340  0.30180  Biso   1.000  H
  N4       1.0000 0.62540  0.59650  0.31602  Biso   1.000  N
  C23      1.0000 0.60360  0.64510  0.30152  Biso   1.000  C
  H15      1.0000 0.60870  0.68010  0.31590  Biso   1.000  H
  C24      1.0000 0.57380  0.64780  0.26680  Biso   1.000  C
  H16      1.0000 0.55890  0.68400  0.25780  Biso   1.000  H
  N5       1.0000 0.26740  0.91230  0.13622  Biso   1.000  N
  C25      1.0000 0.28570  0.87930  0.16530  Biso   1.000  C
  H17      1.0000 0.25750  0.85640  0.17850  Biso   1.000  H
  C26      1.0000 0.34150  0.87550  0.17790  Biso   1.000  C
  H18      1.0000 0.35140  0.85100  0.19920  Biso   1.000  H
  C27      1.0000 0.38420  0.90830  0.15890  Biso   1.000  C
  C28      1.0000 0.36530  0.94410  0.12890  Biso   1.000  C
  H19      1.0000 0.39230  0.96810  0.11550  Biso   1.000  H
  C29      1.0000 0.30730  0.94490  0.11870  Biso   1.000  C
  H20      1.0000 0.29520  0.96990  0.09820  Biso   1.000  H
  C30      1.0000 0.44520  0.90630  0.17088  Biso   1.000  C
  C31      1.0000 0.46790  0.90130  0.20768  Biso   1.000  C
  C32      1.0000 0.43420  0.90110  0.24514  Biso   1.000  C
  C33      1.0000 0.41120  0.95100  0.25860  Biso   1.000  C
  H21      1.0000 0.41520  0.98600  0.24420  Biso   1.000  H
  C34      1.0000 0.38230  0.95080  0.29310  Biso   1.000  C
  H22      1.0000 0.36620  0.98660  0.30180  Biso   1.000  H
  N6       1.0000 0.37460  0.90350  0.31602  Biso   1.000  N
  C35      1.0000 0.39640  0.85490  0.30152  Biso   1.000  C
  H23      1.0000 0.39130  0.81990  0.31590  Biso   1.000  H
  C36      1.0000 0.42620  0.85220  0.26680  Biso   1.000  C
  H24      1.0000 0.44110  0.81600  0.25780  Biso   1.000  H
  N7       1.0000 0.76740  0.41230  0.63622  Biso   1.000  N
  C37      1.0000 0.78570  0.37930  0.66530  Biso   1.000  C
  H25      1.0000 0.75750  0.35640  0.67850  Biso   1.000  H
  C38      1.0000 0.84150  0.37550  0.67790  Biso   1.000  C
  H26      1.0000 0.85140  0.35100  0.69920  Biso   1.000  H
  C39      1.0000 0.88420  0.40830  0.65890  Biso   1.000  C
  C40      1.0000 0.86530  0.44410  0.62890  Biso   1.000  C
  H27      1.0000 0.89230  0.46810  0.61550  Biso   1.000  H
  C41      1.0000 0.80730  0.44490  0.61870  Biso   1.000  C
  H28      1.0000 0.79520  0.46990  0.59820  Biso   1.000  H
  C42      1.0000 0.94520  0.40630  0.67088  Biso   1.000  C
  C43      1.0000 0.96790  0.40130  0.70768  Biso   1.000  C
  C44      1.0000 0.93420  0.40110  0.74514  Biso   1.000  C
  C45      1.0000 0.91120  0.45100  0.75860  Biso   1.000  C
  H29      1.0000 0.91520  0.48600  0.74420  Biso   1.000  H
  C46      1.0000 0.88230  0.45080  0.79310  Biso   1.000  C
  H30      1.0000 0.86620  0.48660  0.80180  Biso   1.000  H
  N8       1.0000 0.87460  0.40350  0.81602  Biso   1.000  N
  C47      1.0000 0.89640  0.35490  0.80152  Biso   1.000  C
  H31      1.0000 0.89130  0.31990  0.81590  Biso   1.000  H
  C48      1.0000 0.92620  0.35220  0.76680  Biso   1.000  C
  H32      1.0000 0.94110  0.31600  0.75780  Biso   1.000  H
  N9       1.0000 0.16230  0.98260  0.88622  Biso   1.000  N
  C49      1.0000 0.12930  0.96430  0.91530  Biso   1.000  C
  H33      1.0000 0.10640  0.99250  0.92850  Biso   1.000  H
  C50      1.0000 0.12550  0.90850  0.92790  Biso   1.000  C
  H34      1.0000 0.10100  0.89860  0.94920  Biso   1.000  H
  C51      1.0000 0.15830  0.86580  0.90890  Biso   1.000  C
  C52      1.0000 0.19410  0.88470  0.87890  Biso   1.000  C
  H35      1.0000 0.21810  0.85770  0.86550  Biso   1.000  H
  C53      1.0000 0.19490  0.94270  0.86870  Biso   1.000  C
  H36      1.0000 0.21990  0.95480  0.84820  Biso   1.000  H
  C54      1.0000 0.15630  0.80480  0.92088  Biso   1.000  C
  C55      1.0000 0.15130  0.78210  0.95768  Biso   1.000  C
  C56      1.0000 0.15110  0.81580  0.99514  Biso   1.000  C
  C57      1.0000 0.20100  0.83880  0.00860  Biso   1.000  C
  H37      1.0000 0.23600  0.83480  0.99420  Biso   1.000  H
  C58      1.0000 0.20080  0.86770  0.04310  Biso   1.000  C
  H38      1.0000 0.23660  0.88380  0.05180  Biso   1.000  H
  N10      1.0000 0.15350  0.87540  0.06602  Biso   1.000  N
  C59      1.0000 0.10490  0.85360  0.05152  Biso   1.000  C
  H39      1.0000 0.06990  0.85870  0.06590  Biso   1.000  H
  C60      1.0000 0.10220  0.82380  0.01680  Biso   1.000  C
  H40      1.0000 0.06600  0.80890  0.00780  Biso   1.000  H
  N11      1.0000 0.66230  0.48260  0.38622  Biso   1.000  N
  C61      1.0000 0.62930  0.46430  0.41530  Biso   1.000  C
  H41      1.0000 0.60640  0.49250  0.42850  Biso   1.000  H
  C62      1.0000 0.62550  0.40850  0.42790  Biso   1.000  C
  H42      1.0000 0.60100  0.39860  0.44920  Biso   1.000  H
  C63      1.0000 0.65830  0.36580  0.40890  Biso   1.000  C
  C64      1.0000 0.69410  0.38470  0.37890  Biso   1.000  C
  H43      1.0000 0.71810  0.35770  0.36550  Biso   1.000  H
  C65      1.0000 0.69490  0.44270  0.36870  Biso   1.000  C
  H44      1.0000 0.71990  0.45480  0.34820  Biso   1.000  H
  C66      1.0000 0.65630  0.30480  0.42088  Biso   1.000  C
  C67      1.0000 0.65130  0.28210  0.45768  Biso   1.000  C
  C68      1.0000 0.65110  0.31580  0.49514  Biso   1.000  C
  C69      1.0000 0.70100  0.33880  0.50860  Biso   1.000  C
  H45      1.0000 0.73600  0.33480  0.49420  Biso   1.000  H
  C70      1.0000 0.70080  0.36770  0.54310  Biso   1.000  C
  H46      1.0000 0.73660  0.38380  0.55180  Biso   1.000  H
  N12      1.0000 0.65350  0.37540  0.56602  Biso   1.000  N
  C71      1.0000 0.60490  0.35360  0.55152  Biso   1.000  C
  H47      1.0000 0.56990  0.35870  0.56590  Biso   1.000  H
  C72      1.0000 0.60220  0.32380  0.51680  Biso   1.000  C
  H48      1.0000 0.56600  0.30890  0.50780  Biso   1.000  H
  N13      1.0000 0.33770  0.01740  0.38622  Biso   1.000  N
  C73      1.0000 0.37070  0.03570  0.41530  Biso   1.000  C
  H49      1.0000 0.39360  0.00750  0.42850  Biso   1.000  H
  C74      1.0000 0.37450  0.09150  0.42790  Biso   1.000  C
  H50      1.0000 0.39900  0.10140  0.44920  Biso   1.000  H
  C75      1.0000 0.34170  0.13420  0.40890  Biso   1.000  C
  C76      1.0000 0.30590  0.11530  0.37890  Biso   1.000  C
  H51      1.0000 0.28190  0.14230  0.36550  Biso   1.000  H
  C77      1.0000 0.30510  0.05730  0.36870  Biso   1.000  C
  H52      1.0000 0.28010  0.04520  0.34820  Biso   1.000  H
  C78      1.0000 0.34370  0.19520  0.42088  Biso   1.000  C
  C79      1.0000 0.34870  0.21790  0.45768  Biso   1.000  C
  C80      1.0000 0.34890  0.18420  0.49514  Biso   1.000  C
  C81      1.0000 0.29900  0.16120  0.50860  Biso   1.000  C
  H53      1.0000 0.26400  0.16520  0.49420  Biso   1.000  H
  C82      1.0000 0.29920  0.13230  0.54310  Biso   1.000  C
  H54      1.0000 0.26340  0.11620  0.55180  Biso   1.000  H
  N14      1.0000 0.34650  0.12460  0.56602  Biso   1.000  N
  C83      1.0000 0.39510  0.14640  0.55152  Biso   1.000  C
  H55      1.0000 0.43010  0.14130  0.56590  Biso   1.000  H
  C84      1.0000 0.39780  0.17620  0.51680  Biso   1.000  C
  H56      1.0000 0.43400  0.19110  0.50780  Biso   1.000  H
  N15      1.0000 0.83770  0.51740  0.88622  Biso   1.000  N
  C85      1.0000 0.87070  0.53570  0.91530  Biso   1.000  C
  H57      1.0000 0.89360  0.50750  0.92850  Biso   1.000  H
  C86      1.0000 0.87450  0.59150  0.92790  Biso   1.000  C
  H58      1.0000 0.89900  0.60140  0.94920  Biso   1.000  H
  C87      1.0000 0.84170  0.63420  0.90890  Biso   1.000  C
  C88      1.0000 0.80590  0.61530  0.87890  Biso   1.000  C
  H59      1.0000 0.78190  0.64230  0.86550  Biso   1.000  H
  C89      1.0000 0.80510  0.55730  0.86870  Biso   1.000  C
  H60      1.0000 0.78010  0.54520  0.84820  Biso   1.000  H
  C90      1.0000 0.84370  0.69520  0.92088  Biso   1.000  C
  C91      1.0000 0.84870  0.71790  0.95768  Biso   1.000  C
  C92      1.0000 0.84890  0.68420  0.99514  Biso   1.000  C
  C93      1.0000 0.79900  0.66120  0.00860  Biso   1.000  C
  H61      1.0000 0.76400  0.66520  0.99420  Biso   1.000  H
  C94      1.0000 0.79920  0.63230  0.04310  Biso   1.000  C
  H62      1.0000 0.76340  0.61620  0.05180  Biso   1.000  H
  N16      1.0000 0.84650  0.62460  0.06602  Biso   1.000  N
  C95      1.0000 0.89510  0.64640  0.05152  Biso   1.000  C
  H63      1.0000 0.93010  0.64130  0.06590  Biso   1.000  H
  C96      1.0000 0.89780  0.67620  0.01680  Biso   1.000  C
  H64      1.0000 0.93400  0.69110  0.00780  Biso   1.000  H
  N17      1.0000 0.26740  0.08770  0.86378  Biso   1.000  N
  C97      1.0000 0.28570  0.12070  0.83470  Biso   1.000  C
  H65      1.0000 0.25750  0.14360  0.82150  Biso   1.000  H
  C98      1.0000 0.34150  0.12450  0.82210  Biso   1.000  C
  H66      1.0000 0.35140  0.14900  0.80080  Biso   1.000  H
  C99      1.0000 0.38420  0.09170  0.84110  Biso   1.000  C
  C100     1.0000 0.36530  0.05590  0.87110  Biso   1.000  C
  H67      1.0000 0.39230  0.03190  0.88450  Biso   1.000  H
  C101     1.0000 0.30730  0.05510  0.88130  Biso   1.000  C
  H68      1.0000 0.29520  0.03010  0.90180  Biso   1.000  H
  C102     1.0000 0.44520  0.09370  0.82912  Biso   1.000  C
  C103     1.0000 0.46790  0.09870  0.79232  Biso   1.000  C
  C104     1.0000 0.43420  0.09890  0.75486  Biso   1.000  C
  C105     1.0000 0.41120  0.04900  0.74140  Biso   1.000  C
  H69      1.0000 0.41520  0.01400  0.75580  Biso   1.000  H
  C106     1.0000 0.38230  0.04920  0.70690  Biso   1.000  C
  H70      1.0000 0.36620  0.01340  0.69820  Biso   1.000  H
  N18      1.0000 0.37460  0.09650  0.68398  Biso   1.000  N
  C107     1.0000 0.39640  0.14510  0.69848  Biso   1.000  C
  H71      1.0000 0.39130  0.18010  0.68410  Biso   1.000  H
  C108     1.0000 0.42620  0.14780  0.73320  Biso   1.000  C
  H72      1.0000 0.44110  0.18400  0.74220  Biso   1.000  H
  N19      1.0000 0.76740  0.58770  0.36378  Biso   1.000  N
  C109     1.0000 0.78570  0.62070  0.33470  Biso   1.000  C
  H73      1.0000 0.75750  0.64360  0.32150  Biso   1.000  H
  C110     1.0000 0.84150  0.62450  0.32210  Biso   1.000  C
  H74      1.0000 0.85140  0.64900  0.30080  Biso   1.000  H
  C111     1.0000 0.88420  0.59170  0.34110  Biso   1.000  C
  C112     1.0000 0.86530  0.55590  0.37110  Biso   1.000  C
  H75      1.0000 0.89230  0.53190  0.38450  Biso   1.000  H
  C113     1.0000 0.80730  0.55510  0.38130  Biso   1.000  C
  H76      1.0000 0.79520  0.53010  0.40180  Biso   1.000  H
  C114     1.0000 0.94520  0.59370  0.32912  Biso   1.000  C
  C115     1.0000 0.96790  0.59870  0.29232  Biso   1.000  C
  C116     1.0000 0.93420  0.59890  0.25486  Biso   1.000  C
  C117     1.0000 0.91120  0.54900  0.24140  Biso   1.000  C
  H77      1.0000 0.91520  0.51400  0.25580  Biso   1.000  H
  C118     1.0000 0.88230  0.54920  0.20690  Biso   1.000  C
  H78      1.0000 0.86620  0.51340  0.19820  Biso   1.000  H
  N20      1.0000 0.87460  0.59650  0.18398  Biso   1.000  N
  C119     1.0000 0.89640  0.64510  0.19848  Biso   1.000  C
  H79      1.0000 0.89130  0.68010  0.18410  Biso   1.000  H
  C120     1.0000 0.92620  0.64780  0.23320  Biso   1.000  C
  H80      1.0000 0.94110  0.68400  0.24220  Biso   1.000  H
  N21      1.0000 0.23260  0.91230  0.36378  Biso   1.000  N
  C121     1.0000 0.21430  0.87930  0.33470  Biso   1.000  C
  H81      1.0000 0.24250  0.85640  0.32150  Biso   1.000  H
  C122     1.0000 0.15850  0.87550  0.32210  Biso   1.000  C
  H82      1.0000 0.14860  0.85100  0.30080  Biso   1.000  H
  C123     1.0000 0.11580  0.90830  0.34110  Biso   1.000  C
  C124     1.0000 0.13470  0.94410  0.37110  Biso   1.000  C
  H83      1.0000 0.10770  0.96810  0.38450  Biso   1.000  H
  C125     1.0000 0.19270  0.94490  0.38130  Biso   1.000  C
  H84      1.0000 0.20480  0.96990  0.40180  Biso   1.000  H
  C126     1.0000 0.05480  0.90630  0.32912  Biso   1.000  C
  C127     1.0000 0.03210  0.90130  0.29232  Biso   1.000  C
  C128     1.0000 0.06580  0.90110  0.25486  Biso   1.000  C
  C129     1.0000 0.08880  0.95100  0.24140  Biso   1.000  C
  H85      1.0000 0.08480  0.98600  0.25580  Biso   1.000  H
  C130     1.0000 0.11770  0.95080  0.20690  Biso   1.000  C
  H86      1.0000 0.13380  0.98660  0.19820  Biso   1.000  H
  N22      1.0000 0.12540  0.90350  0.18398  Biso   1.000  N
  C131     1.0000 0.10360  0.85490  0.19848  Biso   1.000  C
  H87      1.0000 0.10870  0.81990  0.18410  Biso   1.000  H
  C132     1.0000 0.07380  0.85220  0.23320  Biso   1.000  C
  H88      1.0000 0.05890  0.81600  0.24220  Biso   1.000  H
  N23      1.0000 0.73260  0.41230  0.86378  Biso   1.000  N
  C133     1.0000 0.71430  0.37930  0.83470  Biso   1.000  C
  H89      1.0000 0.74250  0.35640  0.82150  Biso   1.000  H
  C134     1.0000 0.65850  0.37550  0.82210  Biso   1.000  C
  H90      1.0000 0.64860  0.35100  0.80080  Biso   1.000  H
  C135     1.0000 0.61580  0.40830  0.84110  Biso   1.000  C
  C136     1.0000 0.63470  0.44410  0.87110  Biso   1.000  C
  H91      1.0000 0.60770  0.46810  0.88450  Biso   1.000  H
  C137     1.0000 0.69270  0.44490  0.88130  Biso   1.000  C
  H92      1.0000 0.70480  0.46990  0.90180  Biso   1.000  H
  C138     1.0000 0.55480  0.40630  0.82912  Biso   1.000  C
  C139     1.0000 0.53210  0.40130  0.79232  Biso   1.000  C
  C140     1.0000 0.56580  0.40110  0.75486  Biso   1.000  C
  C141     1.0000 0.58880  0.45100  0.74140  Biso   1.000  C
  H93      1.0000 0.58480  0.48600  0.75580  Biso   1.000  H
  C142     1.0000 0.61770  0.45080  0.70690  Biso   1.000  C
  H94      1.0000 0.63380  0.48660  0.69820  Biso   1.000  H
  N24      1.0000 0.62540  0.40350  0.68398  Biso   1.000  N
  C143     1.0000 0.60360  0.35490  0.69848  Biso   1.000  C
  H95      1.0000 0.60870  0.31990  0.68410  Biso   1.000  H
  C144     1.0000 0.57380  0.35220  0.73320  Biso   1.000  C
  H96      1.0000 0.55890  0.31600  0.74220  Biso   1.000  H
  N25      1.0000 0.33770  0.98260  0.61378  Biso   1.000  N
  C145     1.0000 0.37070  0.96430  0.58470  Biso   1.000  C
  H97      1.0000 0.39360  0.99250  0.57150  Biso   1.000  H
  C146     1.0000 0.37450  0.90850  0.57210  Biso   1.000  C
  H98      1.0000 0.39900  0.89860  0.55080  Biso   1.000  H
  C147     1.0000 0.34170  0.86580  0.59110  Biso   1.000  C
  C148     1.0000 0.30590  0.88470  0.62110  Biso   1.000  C
  H99      1.0000 0.28190  0.85770  0.63450  Biso   1.000  H
  C149     1.0000 0.30510  0.94270  0.63130  Biso   1.000  C
  H100     1.0000 0.28010  0.95480  0.65180  Biso   1.000  H
  C150     1.0000 0.34370  0.80480  0.57912  Biso   1.000  C
  C151     1.0000 0.34870  0.78210  0.54232  Biso   1.000  C
  C152     1.0000 0.34890  0.81580  0.50486  Biso   1.000  C
  C153     1.0000 0.29900  0.83880  0.49140  Biso   1.000  C
  H101     1.0000 0.26400  0.83480  0.50580  Biso   1.000  H
  C154     1.0000 0.29920  0.86770  0.45690  Biso   1.000  C
  H102     1.0000 0.26340  0.88380  0.44820  Biso   1.000  H
  N26      1.0000 0.34650  0.87540  0.43398  Biso   1.000  N
  C155     1.0000 0.39510  0.85360  0.44848  Biso   1.000  C
  H103     1.0000 0.43010  0.85870  0.43410  Biso   1.000  H
  C156     1.0000 0.39780  0.82380  0.48320  Biso   1.000  C
  H104     1.0000 0.43400  0.80890  0.49220  Biso   1.000  H
  N27      1.0000 0.83770  0.48260  0.11378  Biso   1.000  N
  C157     1.0000 0.87070  0.46430  0.08470  Biso   1.000  C
  H105     1.0000 0.89360  0.49250  0.07150  Biso   1.000  H
  C158     1.0000 0.87450  0.40850  0.07210  Biso   1.000  C
  H106     1.0000 0.89900  0.39860  0.05080  Biso   1.000  H
  C159     1.0000 0.84170  0.36580  0.09110  Biso   1.000  C
  C160     1.0000 0.80590  0.38470  0.12110  Biso   1.000  C
  H107     1.0000 0.78190  0.35770  0.13450  Biso   1.000  H
  C161     1.0000 0.80510  0.44270  0.13130  Biso   1.000  C
  H108     1.0000 0.78010  0.45480  0.15180  Biso   1.000  H
  C162     1.0000 0.84370  0.30480  0.07912  Biso   1.000  C
  C163     1.0000 0.84870  0.28210  0.04232  Biso   1.000  C
  C164     1.0000 0.84890  0.31580  0.00486  Biso   1.000  C
  C165     1.0000 0.79900  0.33880  0.99140  Biso   1.000  C
  H109     1.0000 0.76400  0.33480  0.00580  Biso   1.000  H
  C166     1.0000 0.79920  0.36770  0.95690  Biso   1.000  C
  H110     1.0000 0.76340  0.38380  0.94820  Biso   1.000  H
  N28      1.0000 0.84650  0.37540  0.93398  Biso   1.000  N
  C167     1.0000 0.89510  0.35360  0.94848  Biso   1.000  C
  H111     1.0000 0.93010  0.35870  0.93410  Biso   1.000  H
  C168     1.0000 0.89780  0.32380  0.98320  Biso   1.000  C
  H112     1.0000 0.93400  0.30890  0.99220  Biso   1.000  H
  N29      1.0000 0.16230  0.01740  0.11378  Biso   1.000  N
  C169     1.0000 0.12930  0.03570  0.08470  Biso   1.000  C
  H113     1.0000 0.10640  0.00750  0.07150  Biso   1.000  H
  C170     1.0000 0.12550  0.09150  0.07210  Biso   1.000  C
  H114     1.0000 0.10100  0.10140  0.05080  Biso   1.000  H
  C171     1.0000 0.15830  0.13420  0.09110  Biso   1.000  C
  C172     1.0000 0.19410  0.11530  0.12110  Biso   1.000  C
  H115     1.0000 0.21810  0.14230  0.13450  Biso   1.000  H
  C173     1.0000 0.19490  0.05730  0.13130  Biso   1.000  C
  H116     1.0000 0.21990  0.04520  0.15180  Biso   1.000  H
  C174     1.0000 0.15630  0.19520  0.07912  Biso   1.000  C
  C175     1.0000 0.15130  0.21790  0.04232  Biso   1.000  C
  C176     1.0000 0.15110  0.18420  0.00486  Biso   1.000  C
  C177     1.0000 0.20100  0.16120  0.99140  Biso   1.000  C
  H117     1.0000 0.23600  0.16520  0.00580  Biso   1.000  H
  C178     1.0000 0.20080  0.13230  0.95690  Biso   1.000  C
  H118     1.0000 0.23660  0.11620  0.94820  Biso   1.000  H
  N30      1.0000 0.15350  0.12460  0.93398  Biso   1.000  N
  C179     1.0000 0.10490  0.14640  0.94848  Biso   1.000  C
  H119     1.0000 0.06990  0.14130  0.93410  Biso   1.000  H
  C180     1.0000 0.10220  0.17620  0.98320  Biso   1.000  C
  H120     1.0000 0.06600  0.19110  0.99220  Biso   1.000  H
  N31      1.0000 0.66230  0.51740  0.61378  Biso   1.000  N
  C181     1.0000 0.62930  0.53570  0.58470  Biso   1.000  C
  H121     1.0000 0.60640  0.50750  0.57150  Biso   1.000  H
  C182     1.0000 0.62550  0.59150  0.57210  Biso   1.000  C
  H122     1.0000 0.60100  0.60140  0.55080  Biso   1.000  H
  C183     1.0000 0.65830  0.63420  0.59110  Biso   1.000  C
  C184     1.0000 0.69410  0.61530  0.62110  Biso   1.000  C
  H123     1.0000 0.71810  0.64230  0.63450  Biso   1.000  H
  C185     1.0000 0.69490  0.55730  0.63130  Biso   1.000  C
  H124     1.0000 0.71990  0.54520  0.65180  Biso   1.000  H
  C186     1.0000 0.65630  0.69520  0.57912  Biso   1.000  C
  C187     1.0000 0.65130  0.71790  0.54232  Biso   1.000  C
  C188     1.0000 0.65110  0.68420  0.50486  Biso   1.000  C
  C189     1.0000 0.70100  0.66120  0.49140  Biso   1.000  C
  H125     1.0000 0.73600  0.66520  0.50580  Biso   1.000  H
  C190     1.0000 0.70080  0.63230  0.45690  Biso   1.000  C
  H126     1.0000 0.73660  0.61620  0.44820  Biso   1.000  H
  N32      1.0000 0.65350  0.62460  0.43398  Biso   1.000  N
  C191     1.0000 0.60490  0.64640  0.44848  Biso   1.000  C
  H127     1.0000 0.56990  0.64130  0.43410  Biso   1.000  H
  C192     1.0000 0.60220  0.67620  0.48320  Biso   1.000  C
  H128     1.0000 0.56600  0.69110  0.49220  Biso   1.000  H
  N33      1.0000 0.76740  0.91230  0.36378  Biso   1.000  N
  C193     1.0000 0.78570  0.87930  0.33470  Biso   1.000  C
  H129     1.0000 0.75750  0.85640  0.32150  Biso   1.000  H
  C194     1.0000 0.84150  0.87550  0.32210  Biso   1.000  C
  H130     1.0000 0.85140  0.85100  0.30080  Biso   1.000  H
  C195     1.0000 0.88420  0.90830  0.34110  Biso   1.000  C
  C196     1.0000 0.86530  0.94410  0.37110  Biso   1.000  C
  H131     1.0000 0.89230  0.96810  0.38450  Biso   1.000  H
  C197     1.0000 0.80730  0.94490  0.38130  Biso   1.000  C
  H132     1.0000 0.79520  0.96990  0.40180  Biso   1.000  H
  C198     1.0000 0.94520  0.90630  0.32912  Biso   1.000  C
  C199     1.0000 0.96790  0.90130  0.29232  Biso   1.000  C
  C200     1.0000 0.93420  0.90110  0.25486  Biso   1.000  C
  C201     1.0000 0.91120  0.95100  0.24140  Biso   1.000  C
  H133     1.0000 0.91520  0.98600  0.25580  Biso   1.000  H
  C202     1.0000 0.88230  0.95080  0.20690  Biso   1.000  C
  H134     1.0000 0.86620  0.98660  0.19820  Biso   1.000  H
  N34      1.0000 0.87460  0.90350  0.18398  Biso   1.000  N
  C203     1.0000 0.89640  0.85490  0.19848  Biso   1.000  C
  H135     1.0000 0.89130  0.81990  0.18410  Biso   1.000  H
  C204     1.0000 0.92620  0.85220  0.23320  Biso   1.000  C
  H136     1.0000 0.94110  0.81600  0.24220  Biso   1.000  H
  N35      1.0000 0.26740  0.41230  0.86378  Biso   1.000  N
  C205     1.0000 0.28570  0.37930  0.83470  Biso   1.000  C
  H137     1.0000 0.25750  0.35640  0.82150  Biso   1.000  H
  C206     1.0000 0.34150  0.37550  0.82210  Biso   1.000  C
  H138     1.0000 0.35140  0.35100  0.80080  Biso   1.000  H
  C207     1.0000 0.38420  0.40830  0.84110  Biso   1.000  C
  C208     1.0000 0.36530  0.44410  0.87110  Biso   1.000  C
  H139     1.0000 0.39230  0.46810  0.88450  Biso   1.000  H
  C209     1.0000 0.30730  0.44490  0.88130  Biso   1.000  C
  H140     1.0000 0.29520  0.46990  0.90180  Biso   1.000  H
  C210     1.0000 0.44520  0.40630  0.82912  Biso   1.000  C
  C211     1.0000 0.46790  0.40130  0.79232  Biso   1.000  C
  C212     1.0000 0.43420  0.40110  0.75486  Biso   1.000  C
  C213     1.0000 0.41120  0.45100  0.74140  Biso   1.000  C
  H141     1.0000 0.41520  0.48600  0.75580  Biso   1.000  H
  C214     1.0000 0.38230  0.45080  0.70690  Biso   1.000  C
  H142     1.0000 0.36620  0.48660  0.69820  Biso   1.000  H
  N36      1.0000 0.37460  0.40350  0.68398  Biso   1.000  N
  C215     1.0000 0.39640  0.35490  0.69848  Biso   1.000  C
  H143     1.0000 0.39130  0.31990  0.68410  Biso   1.000  H
  C216     1.0000 0.42620  0.35220  0.73320  Biso   1.000  C
  H144     1.0000 0.44110  0.31600  0.74220  Biso   1.000  H
  N37      1.0000 0.73260  0.08770  0.86378  Biso   1.000  N
  C217     1.0000 0.71430  0.12070  0.83470  Biso   1.000  C
  H145     1.0000 0.74250  0.14360  0.82150  Biso   1.000  H
  C218     1.0000 0.65850  0.12450  0.82210  Biso   1.000  C
  H146     1.0000 0.64860  0.14900  0.80080  Biso   1.000  H
  C219     1.0000 0.61580  0.09170  0.84110  Biso   1.000  C
  C220     1.0000 0.63470  0.05590  0.87110  Biso   1.000  C
  H147     1.0000 0.60770  0.03190  0.88450  Biso   1.000  H
  C221     1.0000 0.69270  0.05510  0.88130  Biso   1.000  C
  H148     1.0000 0.70480  0.03010  0.90180  Biso   1.000  H
  C222     1.0000 0.55480  0.09370  0.82912  Biso   1.000  C
  C223     1.0000 0.53210  0.09870  0.79232  Biso   1.000  C
  C224     1.0000 0.56580  0.09890  0.75486  Biso   1.000  C
  C225     1.0000 0.58880  0.04900  0.74140  Biso   1.000  C
  H149     1.0000 0.58480  0.01400  0.75580  Biso   1.000  H
  C226     1.0000 0.61770  0.04920  0.70690  Biso   1.000  C
  H150     1.0000 0.63380  0.01340  0.69820  Biso   1.000  H
  N38      1.0000 0.62540  0.09650  0.68398  Biso   1.000  N
  C227     1.0000 0.60360  0.14510  0.69848  Biso   1.000  C
  H151     1.0000 0.60870  0.18010  0.68410  Biso   1.000  H
  C228     1.0000 0.57380  0.14780  0.73320  Biso   1.000  C
  H152     1.0000 0.55890  0.18400  0.74220  Biso   1.000  H
  N39      1.0000 0.23260  0.58770  0.36378  Biso   1.000  N
  C229     1.0000 0.21430  0.62070  0.33470  Biso   1.000  C
  H153     1.0000 0.24250  0.64360  0.32150  Biso   1.000  H
  C230     1.0000 0.15850  0.62450  0.32210  Biso   1.000  C
  H154     1.0000 0.14860  0.64900  0.30080  Biso   1.000  H
  C231     1.0000 0.11580  0.59170  0.34110  Biso   1.000  C
  C232     1.0000 0.13470  0.55590  0.37110  Biso   1.000  C
  H155     1.0000 0.10770  0.53190  0.38450  Biso   1.000  H
  C233     1.0000 0.19270  0.55510  0.38130  Biso   1.000  C
  H156     1.0000 0.20480  0.53010  0.40180  Biso   1.000  H
  C234     1.0000 0.05480  0.59370  0.32912  Biso   1.000  C
  C235     1.0000 0.03210  0.59870  0.29232  Biso   1.000  C
  C236     1.0000 0.06580  0.59890  0.25486  Biso   1.000  C
  C237     1.0000 0.08880  0.54900  0.24140  Biso   1.000  C
  H157     1.0000 0.08480  0.51400  0.25580  Biso   1.000  H
  C238     1.0000 0.11770  0.54920  0.20690  Biso   1.000  C
  H158     1.0000 0.13380  0.51340  0.19820  Biso   1.000  H
  N40      1.0000 0.12540  0.59650  0.18398  Biso   1.000  N
  C239     1.0000 0.10360  0.64510  0.19848  Biso   1.000  C
  H159     1.0000 0.10870  0.68010  0.18410  Biso   1.000  H
  C240     1.0000 0.07380  0.64780  0.23320  Biso   1.000  C
  H160     1.0000 0.05890  0.68400  0.24220  Biso   1.000  H
  N41      1.0000 0.83770  0.01740  0.11378  Biso   1.000  N
  C241     1.0000 0.87070  0.03570  0.08470  Biso   1.000  C
  H161     1.0000 0.89360  0.00750  0.07150  Biso   1.000  H
  C242     1.0000 0.87450  0.09150  0.07210  Biso   1.000  C
  H162     1.0000 0.89900  0.10140  0.05080  Biso   1.000  H
  C243     1.0000 0.84170  0.13420  0.09110  Biso   1.000  C
  C244     1.0000 0.80590  0.11530  0.12110  Biso   1.000  C
  H163     1.0000 0.78190  0.14230  0.13450  Biso   1.000  H
  C245     1.0000 0.80510  0.05730  0.13130  Biso   1.000  C
  H164     1.0000 0.78010  0.04520  0.15180  Biso   1.000  H
  C246     1.0000 0.84370  0.19520  0.07912  Biso   1.000  C
  C247     1.0000 0.84870  0.21790  0.04232  Biso   1.000  C
  C248     1.0000 0.84890  0.18420  0.00486  Biso   1.000  C
  C249     1.0000 0.79900  0.16120  0.99140  Biso   1.000  C
  H165     1.0000 0.76400  0.16520  0.00580  Biso   1.000  H
  C250     1.0000 0.79920  0.13230  0.95690  Biso   1.000  C
  H166     1.0000 0.76340  0.11620  0.94820  Biso   1.000  H
  N42      1.0000 0.84650  0.12460  0.93398  Biso   1.000  N
  C251     1.0000 0.89510  0.14640  0.94848  Biso   1.000  C
  H167     1.0000 0.93010  0.14130  0.93410  Biso   1.000  H
  C252     1.0000 0.89780  0.17620  0.98320  Biso   1.000  C
  H168     1.0000 0.93400  0.19110  0.99220  Biso   1.000  H
  N43      1.0000 0.33770  0.51740  0.61378  Biso   1.000  N
  C253     1.0000 0.37070  0.53570  0.58470  Biso   1.000  C
  H169     1.0000 0.39360  0.50750  0.57150  Biso   1.000  H
  C254     1.0000 0.37450  0.59150  0.57210  Biso   1.000  C
  H170     1.0000 0.39900  0.60140  0.55080  Biso   1.000  H
  C255     1.0000 0.34170  0.63420  0.59110  Biso   1.000  C
  C256     1.0000 0.30590  0.61530  0.62110  Biso   1.000  C
  H171     1.0000 0.28190  0.64230  0.63450  Biso   1.000  H
  C257     1.0000 0.30510  0.55730  0.63130  Biso   1.000  C
  H172     1.0000 0.28010  0.54520  0.65180  Biso   1.000  H
  C258     1.0000 0.34370  0.69520  0.57912  Biso   1.000  C
  C259     1.0000 0.34870  0.71790  0.54232  Biso   1.000  C
  C260     1.0000 0.34890  0.68420  0.50486  Biso   1.000  C
  C261     1.0000 0.29900  0.66120  0.49140  Biso   1.000  C
  H173     1.0000 0.26400  0.66520  0.50580  Biso   1.000  H
  C262     1.0000 0.29920  0.63230  0.45690  Biso   1.000  C
  H174     1.0000 0.26340  0.61620  0.44820  Biso   1.000  H
  N44      1.0000 0.34650  0.62460  0.43398  Biso   1.000  N
  C263     1.0000 0.39510  0.64640  0.44848  Biso   1.000  C
  H175     1.0000 0.43010  0.64130  0.43410  Biso   1.000  H
  C264     1.0000 0.39780  0.67620  0.48320  Biso   1.000  C
  H176     1.0000 0.43400  0.69110  0.49220  Biso   1.000  H
  N45      1.0000 0.66230  0.98260  0.61378  Biso   1.000  N
  C265     1.0000 0.62930  0.96430  0.58470  Biso   1.000  C
  H177     1.0000 0.60640  0.99250  0.57150  Biso   1.000  H
  C266     1.0000 0.62550  0.90850  0.57210  Biso   1.000  C
  H178     1.0000 0.60100  0.89860  0.55080  Biso   1.000  H
  C267     1.0000 0.65830  0.86580  0.59110  Biso   1.000  C
  C268     1.0000 0.69410  0.88470  0.62110  Biso   1.000  C
  H179     1.0000 0.71810  0.85770  0.63450  Biso   1.000  H
  C269     1.0000 0.69490  0.94270  0.63130  Biso   1.000  C
  H180     1.0000 0.71990  0.95480  0.65180  Biso   1.000  H
  C270     1.0000 0.65630  0.80480  0.57912  Biso   1.000  C
  C271     1.0000 0.65130  0.78210  0.54232  Biso   1.000  C
  C272     1.0000 0.65110  0.81580  0.50486  Biso   1.000  C
  C273     1.0000 0.70100  0.83880  0.49140  Biso   1.000  C
  H181     1.0000 0.73600  0.83480  0.50580  Biso   1.000  H
  C274     1.0000 0.70080  0.86770  0.45690  Biso   1.000  C
  H182     1.0000 0.73660  0.88380  0.44820  Biso   1.000  H
  N46      1.0000 0.65350  0.87540  0.43398  Biso   1.000  N
  C275     1.0000 0.60490  0.85360  0.44848  Biso   1.000  C
  H183     1.0000 0.56990  0.85870  0.43410  Biso   1.000  H
  C276     1.0000 0.60220  0.82380  0.48320  Biso   1.000  C
  H184     1.0000 0.56600  0.80890  0.49220  Biso   1.000  H
  N47      1.0000 0.16230  0.48260  0.11378  Biso   1.000  N
  C277     1.0000 0.12930  0.46430  0.08470  Biso   1.000  C
  H185     1.0000 0.10640  0.49250  0.07150  Biso   1.000  H
  C278     1.0000 0.12550  0.40850  0.07210  Biso   1.000  C
  H186     1.0000 0.10100  0.39860  0.05080  Biso   1.000  H
  C279     1.0000 0.15830  0.36580  0.09110  Biso   1.000  C
  C280     1.0000 0.19410  0.38470  0.12110  Biso   1.000  C
  H187     1.0000 0.21810  0.35770  0.13450  Biso   1.000  H
  C281     1.0000 0.19490  0.44270  0.13130  Biso   1.000  C
  H188     1.0000 0.21990  0.45480  0.15180  Biso   1.000  H
  C282     1.0000 0.15630  0.30480  0.07912  Biso   1.000  C
  C283     1.0000 0.15130  0.28210  0.04232  Biso   1.000  C
  C284     1.0000 0.15110  0.31580  0.00486  Biso   1.000  C
  C285     1.0000 0.20100  0.33880  0.99140  Biso   1.000  C
  H189     1.0000 0.23600  0.33480  0.00580  Biso   1.000  H
  C286     1.0000 0.20080  0.36770  0.95690  Biso   1.000  C
  H190     1.0000 0.23660  0.38380  0.94820  Biso   1.000  H
  N48      1.0000 0.15350  0.37540  0.93398  Biso   1.000  N
  C287     1.0000 0.10490  0.35360  0.94848  Biso   1.000  C
  H191     1.0000 0.06990  0.35870  0.93410  Biso   1.000  H
  C288     1.0000 0.10220  0.32380  0.98320  Biso   1.000  C
  H192     1.0000 0.06600  0.30890  0.99220  Biso   1.000  H
  N49      1.0000 0.73260  0.91230  0.13622  Biso   1.000  N
  C289     1.0000 0.71430  0.87930  0.16530  Biso   1.000  C
  H193     1.0000 0.74250  0.85640  0.17850  Biso   1.000  H
  C290     1.0000 0.65850  0.87550  0.17790  Biso   1.000  C
  H194     1.0000 0.64860  0.85100  0.19920  Biso   1.000  H
  C291     1.0000 0.61580  0.90830  0.15890  Biso   1.000  C
  C292     1.0000 0.63470  0.94410  0.12890  Biso   1.000  C
  H195     1.0000 0.60770  0.96810  0.11550  Biso   1.000  H
  C293     1.0000 0.69270  0.94490  0.11870  Biso   1.000  C
  H196     1.0000 0.70480  0.96990  0.09820  Biso   1.000  H
  C294     1.0000 0.55480  0.90630  0.17088  Biso   1.000  C
  C295     1.0000 0.53210  0.90130  0.20768  Biso   1.000  C
  C296     1.0000 0.56580  0.90110  0.24514  Biso   1.000  C
  C297     1.0000 0.58880  0.95100  0.25860  Biso   1.000  C
  H197     1.0000 0.58480  0.98600  0.24420  Biso   1.000  H
  C298     1.0000 0.61770  0.95080  0.29310  Biso   1.000  C
  H198     1.0000 0.63380  0.98660  0.30180  Biso   1.000  H
  N50      1.0000 0.62540  0.90350  0.31602  Biso   1.000  N
  C299     1.0000 0.60360  0.85490  0.30152  Biso   1.000  C
  H199     1.0000 0.60870  0.81990  0.31590  Biso   1.000  H
  C300     1.0000 0.57380  0.85220  0.26680  Biso   1.000  C
  H200     1.0000 0.55890  0.81600  0.25780  Biso   1.000  H
  N51      1.0000 0.23260  0.41230  0.63622  Biso   1.000  N
  C301     1.0000 0.21430  0.37930  0.66530  Biso   1.000  C
  H201     1.0000 0.24250  0.35640  0.67850  Biso   1.000  H
  C302     1.0000 0.15850  0.37550  0.67790  Biso   1.000  C
  H202     1.0000 0.14860  0.35100  0.69920  Biso   1.000  H
  C303     1.0000 0.11580  0.40830  0.65890  Biso   1.000  C
  C304     1.0000 0.13470  0.44410  0.62890  Biso   1.000  C
  H203     1.0000 0.10770  0.46810  0.61550  Biso   1.000  H
  C305     1.0000 0.19270  0.44490  0.61870  Biso   1.000  C
  H204     1.0000 0.20480  0.46990  0.59820  Biso   1.000  H
  C306     1.0000 0.05480  0.40630  0.67088  Biso   1.000  C
  C307     1.0000 0.03210  0.40130  0.70768  Biso   1.000  C
  C308     1.0000 0.06580  0.40110  0.74514  Biso   1.000  C
  C309     1.0000 0.08880  0.45100  0.75860  Biso   1.000  C
  H205     1.0000 0.08480  0.48600  0.74420  Biso   1.000  H
  C310     1.0000 0.11770  0.45080  0.79310  Biso   1.000  C
  H206     1.0000 0.13380  0.48660  0.80180  Biso   1.000  H
  N52      1.0000 0.12540  0.40350  0.81602  Biso   1.000  N
  C311     1.0000 0.10360  0.35490  0.80152  Biso   1.000  C
  H207     1.0000 0.10870  0.31990  0.81590  Biso   1.000  H
  C312     1.0000 0.07380  0.35220  0.76680  Biso   1.000  C
  H208     1.0000 0.05890  0.31600  0.75780  Biso   1.000  H
  N53      1.0000 0.76740  0.08770  0.63622  Biso   1.000  N
  C313     1.0000 0.78570  0.12070  0.66530  Biso   1.000  C
  H209     1.0000 0.75750  0.14360  0.67850  Biso   1.000  H
  C314     1.0000 0.84150  0.12450  0.67790  Biso   1.000  C
  H210     1.0000 0.85140  0.14900  0.69920  Biso   1.000  H
  C315     1.0000 0.88420  0.09170  0.65890  Biso   1.000  C
  C316     1.0000 0.86530  0.05590  0.62890  Biso   1.000  C
  H211     1.0000 0.89230  0.03190  0.61550  Biso   1.000  H
  C317     1.0000 0.80730  0.05510  0.61870  Biso   1.000  C
  H212     1.0000 0.79520  0.03010  0.59820  Biso   1.000  H
  C318     1.0000 0.94520  0.09370  0.67088  Biso   1.000  C
  C319     1.0000 0.96790  0.09870  0.70768  Biso   1.000  C
  C320     1.0000 0.93420  0.09890  0.74514  Biso   1.000  C
  C321     1.0000 0.91120  0.04900  0.75860  Biso   1.000  C
  H213     1.0000 0.91520  0.01400  0.74420  Biso   1.000  H
  C322     1.0000 0.88230  0.04920  0.79310  Biso   1.000  C
  H214     1.0000 0.86620  0.01340  0.80180  Biso   1.000  H
  N54      1.0000 0.87460  0.09650  0.81602  Biso   1.000  N
  C323     1.0000 0.89640  0.14510  0.80152  Biso   1.000  C
  H215     1.0000 0.89130  0.18010  0.81590  Biso   1.000  H
  C324     1.0000 0.92620  0.14780  0.76680  Biso   1.000  C
  H216     1.0000 0.94110  0.18400  0.75780  Biso   1.000  H
  N55      1.0000 0.26740  0.58770  0.13622  Biso   1.000  N
  C325     1.0000 0.28570  0.62070  0.16530  Biso   1.000  C
  H217     1.0000 0.25750  0.64360  0.17850  Biso   1.000  H
  C326     1.0000 0.34150  0.62450  0.17790  Biso   1.000  C
  H218     1.0000 0.35140  0.64900  0.19920  Biso   1.000  H
  C327     1.0000 0.38420  0.59170  0.15890  Biso   1.000  C
  C328     1.0000 0.36530  0.55590  0.12890  Biso   1.000  C
  H219     1.0000 0.39230  0.53190  0.11550  Biso   1.000  H
  C329     1.0000 0.30730  0.55510  0.11870  Biso   1.000  C
  H220     1.0000 0.29520  0.53010  0.09820  Biso   1.000  H
  C330     1.0000 0.44520  0.59370  0.17088  Biso   1.000  C
  C331     1.0000 0.46790  0.59870  0.20768  Biso   1.000  C
  C332     1.0000 0.43420  0.59890  0.24514  Biso   1.000  C
  C333     1.0000 0.41120  0.54900  0.25860  Biso   1.000  C
  H221     1.0000 0.41520  0.51400  0.24420  Biso   1.000  H
  C334     1.0000 0.38230  0.54920  0.29310  Biso   1.000  C
  H222     1.0000 0.36620  0.51340  0.30180  Biso   1.000  H
  N56      1.0000 0.37460  0.59650  0.31602  Biso   1.000  N
  C335     1.0000 0.39640  0.64510  0.30152  Biso   1.000  C
  H223     1.0000 0.39130  0.68010  0.31590  Biso   1.000  H
  C336     1.0000 0.42620  0.64780  0.26680  Biso   1.000  C
  H224     1.0000 0.44110  0.68400  0.25780  Biso   1.000  H
  N57      1.0000 0.66230  0.01740  0.38622  Biso   1.000  N
  C337     1.0000 0.62930  0.03570  0.41530  Biso   1.000  C
  H225     1.0000 0.60640  0.00750  0.42850  Biso   1.000  H
  C338     1.0000 0.62550  0.09150  0.42790  Biso   1.000  C
  H226     1.0000 0.60100  0.10140  0.44920  Biso   1.000  H
  C339     1.0000 0.65830  0.13420  0.40890  Biso   1.000  C
  C340     1.0000 0.69410  0.11530  0.37890  Biso   1.000  C
  H227     1.0000 0.71810  0.14230  0.36550  Biso   1.000  H
  C341     1.0000 0.69490  0.05730  0.36870  Biso   1.000  C
  H228     1.0000 0.71990  0.04520  0.34820  Biso   1.000  H
  C342     1.0000 0.65630  0.19520  0.42088  Biso   1.000  C
  C343     1.0000 0.65130  0.21790  0.45768  Biso   1.000  C
  C344     1.0000 0.65110  0.18420  0.49514  Biso   1.000  C
  C345     1.0000 0.70100  0.16120  0.50860  Biso   1.000  C
  H229     1.0000 0.73600  0.16520  0.49420  Biso   1.000  H
  C346     1.0000 0.70080  0.13230  0.54310  Biso   1.000  C
  H230     1.0000 0.73660  0.11620  0.55180  Biso   1.000  H
  N58      1.0000 0.65350  0.12460  0.56602  Biso   1.000  N
  C347     1.0000 0.60490  0.14640  0.55152  Biso   1.000  C
  H231     1.0000 0.56990  0.14130  0.56590  Biso   1.000  H
  C348     1.0000 0.60220  0.17620  0.51680  Biso   1.000  C
  H232     1.0000 0.56600  0.19110  0.50780  Biso   1.000  H
  N59      1.0000 0.16230  0.51740  0.88622  Biso   1.000  N
  C349     1.0000 0.12930  0.53570  0.91530  Biso   1.000  C
  H233     1.0000 0.10640  0.50750  0.92850  Biso   1.000  H
  C350     1.0000 0.12550  0.59150  0.92790  Biso   1.000  C
  H234     1.0000 0.10100  0.60140  0.94920  Biso   1.000  H
  C351     1.0000 0.15830  0.63420  0.90890  Biso   1.000  C
  C352     1.0000 0.19410  0.61530  0.87890  Biso   1.000  C
  H235     1.0000 0.21810  0.64230  0.86550  Biso   1.000  H
  C353     1.0000 0.19490  0.55730  0.86870  Biso   1.000  C
  H236     1.0000 0.21990  0.54520  0.84820  Biso   1.000  H
  C354     1.0000 0.15630  0.69520  0.92088  Biso   1.000  C
  C355     1.0000 0.15130  0.71790  0.95768  Biso   1.000  C
  C356     1.0000 0.15110  0.68420  0.99514  Biso   1.000  C
  C357     1.0000 0.20100  0.66120  0.00860  Biso   1.000  C
  H237     1.0000 0.23600  0.66520  0.99420  Biso   1.000  H
  C358     1.0000 0.20080  0.63230  0.04310  Biso   1.000  C
  H238     1.0000 0.23660  0.61620  0.05180  Biso   1.000  H
  N60      1.0000 0.15350  0.62460  0.06602  Biso   1.000  N
  C359     1.0000 0.10490  0.64640  0.05152  Biso   1.000  C
  H239     1.0000 0.06990  0.64130  0.06590  Biso   1.000  H
  C360     1.0000 0.10220  0.67620  0.01680  Biso   1.000  C
  H240     1.0000 0.06600  0.69110  0.00780  Biso   1.000  H
  N61      1.0000 0.83770  0.98260  0.88622  Biso   1.000  N
  C361     1.0000 0.87070  0.96430  0.91530  Biso   1.000  C
  H241     1.0000 0.89360  0.99250  0.92850  Biso   1.000  H
  C362     1.0000 0.87450  0.90850  0.92790  Biso   1.000  C
  H242     1.0000 0.89900  0.89860  0.94920  Biso   1.000  H
  C363     1.0000 0.84170  0.86580  0.90890  Biso   1.000  C
  C364     1.0000 0.80590  0.88470  0.87890  Biso   1.000  C
  H243     1.0000 0.78190  0.85770  0.86550  Biso   1.000  H
  C365     1.0000 0.80510  0.94270  0.86870  Biso   1.000  C
  H244     1.0000 0.78010  0.95480  0.84820  Biso   1.000  H
  C366     1.0000 0.84370  0.80480  0.92088  Biso   1.000  C
  C367     1.0000 0.84870  0.78210  0.95768  Biso   1.000  C
  C368     1.0000 0.84890  0.81580  0.99514  Biso   1.000  C
  C369     1.0000 0.79900  0.83880  0.00860  Biso   1.000  C
  H245     1.0000 0.76400  0.83480  0.99420  Biso   1.000  H
  C370     1.0000 0.79920  0.86770  0.04310  Biso   1.000  C
  H246     1.0000 0.76340  0.88380  0.05180  Biso   1.000  H
  N62      1.0000 0.84650  0.87540  0.06602  Biso   1.000  N
  C371     1.0000 0.89510  0.85360  0.05152  Biso   1.000  C
  H247     1.0000 0.93010  0.85870  0.06590  Biso   1.000  H
  C372     1.0000 0.89780  0.82380  0.01680  Biso   1.000  C
  H248     1.0000 0.93400  0.80890  0.00780  Biso   1.000  H
  N63      1.0000 0.33770  0.48260  0.38622  Biso   1.000  N
  C373     1.0000 0.37070  0.46430  0.41530  Biso   1.000  C
  H249     1.0000 0.39360  0.49250  0.42850  Biso   1.000  H
  C374     1.0000 0.37450  0.40850  0.42790  Biso   1.000  C
  H250     1.0000 0.39900  0.39860  0.44920  Biso   1.000  H
  C375     1.0000 0.34170  0.36580  0.40890  Biso   1.000  C
  C376     1.0000 0.30590  0.38470  0.37890  Biso   1.000  C
  H251     1.0000 0.28190  0.35770  0.36550  Biso   1.000  H
  C377     1.0000 0.30510  0.44270  0.36870  Biso   1.000  C
  H252     1.0000 0.28010  0.45480  0.34820  Biso   1.000  H
  C378     1.0000 0.34370  0.30480  0.42088  Biso   1.000  C
  C379     1.0000 0.34870  0.28210  0.45768  Biso   1.000  C
  C380     1.0000 0.34890  0.31580  0.49514  Biso   1.000  C
  C381     1.0000 0.29900  0.33880  0.50860  Biso   1.000  C
  H253     1.0000 0.26400  0.33480  0.49420  Biso   1.000  H
  C382     1.0000 0.29920  0.36770  0.54310  Biso   1.000  C
  H254     1.0000 0.26340  0.38380  0.55180  Biso   1.000  H
  N64      1.0000 0.34650  0.37540  0.56602  Biso   1.000  N
  C383     1.0000 0.39510  0.35360  0.55152  Biso   1.000  C
  H255     1.0000 0.43010  0.35870  0.56590  Biso   1.000  H
  C384     1.0000 0.39780  0.32380  0.51680  Biso   1.000  C
  H256     1.0000 0.43400  0.30890  0.50780  Biso   1.000  H
  Ag1      1.0000 0.33474  0.08474  0.62500  Biso   1.000  Ag
  Ag2      1.0000 0.83474  0.58474  0.12500  Biso   1.000  Ag
  Ag3      1.0000 0.16526  0.91526  0.12500  Biso   1.000  Ag
  Ag4      1.0000 0.66526  0.41526  0.62500  Biso   1.000  Ag
  Ag5      1.0000 0.16526  0.08474  0.87500  Biso   1.000  Ag
  Ag6      1.0000 0.66526  0.58474  0.37500  Biso   1.000  Ag
  Ag7      1.0000 0.33474  0.91526  0.37500  Biso   1.000  Ag
  Ag8      1.0000 0.83474  0.41526  0.87500  Biso   1.000  Ag
  Ag9      1.0000 0.66526  0.91526  0.37500  Biso   1.000  Ag
  Ag10     1.0000 0.16526  0.41526  0.87500  Biso   1.000  Ag
  Ag11     1.0000 0.83474  0.08474  0.87500  Biso   1.000  Ag
  Ag12     1.0000 0.33474  0.58474  0.37500  Biso   1.000  Ag
  Ag13     1.0000 0.83474  0.91526  0.12500  Biso   1.000  Ag
  Ag14     1.0000 0.33474  0.41526  0.62500  Biso   1.000  Ag
  Ag15     1.0000 0.66526  0.08474  0.62500  Biso   1.000  Ag
  Ag16     1.0000 0.16526  0.58474  0.12500  Biso   1.000  Ag
  S1       1.0000 0.00000  0.08912  0.63623  Biso   1.000  S
  S2       1.0000 0.50000  0.58912  0.13623  Biso   1.000  S
  S3       1.0000 0.50000  0.91088  0.13623  Biso   1.000  S
  S4       1.0000 0.00000  0.41088  0.63623  Biso   1.000  S
  S5       1.0000 0.16088  0.75000  0.88623  Biso   1.000  S
  S6       1.0000 0.33912  0.25000  0.38623  Biso   1.000  S
  S7       1.0000 0.50000  0.08912  0.86377  Biso   1.000  S
  S8       1.0000 0.00000  0.58912  0.36377  Biso   1.000  S
  S9       1.0000 0.00000  0.91088  0.36377  Biso   1.000  S
  S10      1.0000 0.50000  0.41088  0.86377  Biso   1.000  S
  S11      1.0000 0.33912  0.75000  0.61377  Biso   1.000  S
  S12      1.0000 0.16088  0.25000  0.11377  Biso   1.000  S
  S13      1.0000 0.83912  0.25000  0.11377  Biso   1.000  S
  S14      1.0000 0.66088  0.75000  0.61377  Biso   1.000  S
  S15      1.0000 0.66088  0.25000  0.38623  Biso   1.000  S
  S16      1.0000 0.83912  0.75000  0.88623  Biso   1.000  S
