data_image0
_cell_length_a       32.8195
_cell_length_b       32.8195
_cell_length_c       19.0793
_cell_angle_alpha    90
_cell_angle_beta     90
_cell_angle_gamma    120

_symmetry_space_group_name_H-M    "P 1"
_symmetry_int_tables_number       1

loop_
  _symmetry_equiv_pos_as_xyz
  'x, y, z'

loop_
  _atom_site_label
  _atom_site_occupancy
  _atom_site_fract_x
  _atom_site_fract_y
  _atom_site_fract_z
  _atom_site_thermal_displace_type
  _atom_site_B_iso_or_equiv
  _atom_site_type_symbol
  Co1      1.0000 0.51848  0.04872  0.19288  Biso   1.000  Co
  Co2      1.0000 0.48262  0.02170  0.67425  Biso   1.000  Co
  O1       1.0000 0.51989  0.07242  0.09391  Biso   1.000  O
  O2       1.0000 0.54410  0.14782  0.11130  Biso   1.000  O
  O3       1.0000 0.51187  0.01809  0.84706  Biso   1.000  O
  O4       1.0000 0.49325  0.05620  0.76660  Biso   1.000  O
  O5       1.0000 0.59250  0.25651  0.91660  Biso   1.000  O
  O6       1.0000 0.57050  0.23037  0.80910  Biso   1.000  O
  O7       1.0000 0.58291  0.05366  0.19872  Biso   1.000  O
  O8       1.0000 0.58650  0.02792  0.30629  Biso   1.000  O
  O9       1.0000 0.79429  0.13876  0.10284  Biso   1.000  O
  O10      1.0000 0.72730  0.12047  0.05309  Biso   1.000  O
  O11      1.0000 0.54842  0.11914  0.23245  Biso   1.000  O
  O12      1.0000 0.55159  0.07171  0.64391  Biso   1.000  O
  C1       1.0000 0.53270  0.12075  0.99550  Biso   1.000  C
  C2       1.0000 0.51966  0.08399  0.94860  Biso   1.000  C
  C3       1.0000 0.52099  0.09190  0.87670  Biso   1.000  C
  C4       1.0000 0.53666  0.13729  0.85190  Biso   1.000  C
  C5       1.0000 0.55174  0.17495  0.89810  Biso   1.000  C
  C6       1.0000 0.54900  0.16630  0.96970  Biso   1.000  C
  C7       1.0000 0.53200  0.11314  0.07340  Biso   1.000  C
  C8       1.0000 0.57320  0.22474  0.87270  Biso   1.000  C
  C9       1.0000 0.50750  0.05207  0.82590  Biso   1.000  C
  C10      1.0000 0.65729  0.07728  0.24810  Biso   1.000  C
  C11      1.0000 0.67923  0.09110  0.18290  Biso   1.000  C
  C12      1.0000 0.72810  0.11330  0.17770  Biso   1.000  C
  C13      1.0000 0.75514  0.12596  0.23860  Biso   1.000  C
  C14      1.0000 0.73350  0.11440  0.30410  Biso   1.000  C
  C15      1.0000 0.68436  0.08820  0.30797  Biso   1.000  C
  C16      1.0000 0.60425  0.05087  0.25166  Biso   1.000  C
  C17      1.0000 0.75101  0.12488  0.10747  Biso   1.000  C
  C18      1.0000 0.59200  0.10570  0.68360  Biso   1.000  C
  H1       1.0000 0.58120  0.11560  0.72410  Biso   1.000  H
  H2       1.0000 0.61070  0.13320  0.65470  Biso   1.000  H
  C19      1.0000 0.62090  0.08680  0.70670  Biso   1.000  C
  H3       1.0000 0.64420  0.09260  0.67170  Biso   1.000  H
  H4       1.0000 0.63610  0.10160  0.74990  Biso   1.000  H
  H5       1.0000 0.60160  0.05350  0.71390  Biso   1.000  H
  C20      1.0000 0.58810  0.14550  0.27230  Biso   1.000  C
  H6       1.0000 0.61560  0.15330  0.24410  Biso   1.000  H
  H7       1.0000 0.58790  0.12660  0.31150  Biso   1.000  H
  C21      1.0000 0.59170  0.18830  0.29860  Biso   1.000  C
  H8       1.0000 0.60830  0.21320  0.26530  Biso   1.000  H
  H9       1.0000 0.60860  0.19660  0.34230  Biso   1.000  H
  H10      1.0000 0.56080  0.18380  0.30590  Biso   1.000  H
  H11      1.0000 0.50890  0.05150  0.97200  Biso   1.000  H
  H12      1.0000 0.53890  0.14180  0.80900  Biso   1.000  H
  H13      1.0000 0.55800  0.19100  0.00500  Biso   1.000  H
  H14      1.0000 0.66090  0.08470  0.14200  Biso   1.000  H
  H15      1.0000 0.78830  0.14280  0.23500  Biso   1.000  H
  H16      1.0000 0.66970  0.07980  0.35300  Biso   1.000  H
  C22      1.0000 0.76162  0.13270  0.36980  Biso   1.000  C
  O13      1.0000 0.74264  0.11965  0.42803  Biso   1.000  O
  O14      1.0000 0.80436  0.16559  0.36552  Biso   1.000  O
  Co3      1.0000 0.18514  0.38205  0.52621  Biso   1.000  Co
  Co4      1.0000 0.14929  0.35503  0.00758  Biso   1.000  Co
  O15      1.0000 0.18656  0.40575  0.42724  Biso   1.000  O
  O16      1.0000 0.21077  0.48115  0.44463  Biso   1.000  O
  O17      1.0000 0.17854  0.35142  0.18039  Biso   1.000  O
  O18      1.0000 0.15992  0.38953  0.09993  Biso   1.000  O
  O19      1.0000 0.25917  0.58984  0.24993  Biso   1.000  O
  O20      1.0000 0.23717  0.56370  0.14243  Biso   1.000  O
  O21      1.0000 0.24958  0.38699  0.53205  Biso   1.000  O
  O22      1.0000 0.25317  0.36125  0.63962  Biso   1.000  O
  O23      1.0000 0.46096  0.47209  0.43617  Biso   1.000  O
  O24      1.0000 0.39397  0.45380  0.38642  Biso   1.000  O
  O25      1.0000 0.21509  0.45247  0.56578  Biso   1.000  O
  O26      1.0000 0.21826  0.40504  0.97724  Biso   1.000  O
  C23      1.0000 0.19937  0.45408  0.32883  Biso   1.000  C
  C24      1.0000 0.18633  0.41732  0.28193  Biso   1.000  C
  C25      1.0000 0.18766  0.42523  0.21003  Biso   1.000  C
  C26      1.0000 0.20333  0.47062  0.18523  Biso   1.000  C
  C27      1.0000 0.21841  0.50828  0.23143  Biso   1.000  C
  C28      1.0000 0.21567  0.49963  0.30303  Biso   1.000  C
  C29      1.0000 0.19867  0.44647  0.40673  Biso   1.000  C
  C30      1.0000 0.23987  0.55807  0.20603  Biso   1.000  C
  C31      1.0000 0.17417  0.38540  0.15923  Biso   1.000  C
  C32      1.0000 0.32396  0.41061  0.58143  Biso   1.000  C
  C33      1.0000 0.34590  0.42443  0.51623  Biso   1.000  C
  C34      1.0000 0.39477  0.44663  0.51103  Biso   1.000  C
  C35      1.0000 0.42181  0.45929  0.57193  Biso   1.000  C
  C36      1.0000 0.40017  0.44773  0.63743  Biso   1.000  C
  C37      1.0000 0.35103  0.42153  0.64130  Biso   1.000  C
  C38      1.0000 0.27092  0.38420  0.58499  Biso   1.000  C
  C39      1.0000 0.41768  0.45821  0.44080  Biso   1.000  C
  C40      1.0000 0.25867  0.43903  0.01693  Biso   1.000  C
  H17      1.0000 0.24787  0.44893  0.05743  Biso   1.000  H
  H18      1.0000 0.27737  0.46653  0.98803  Biso   1.000  H
  C41      1.0000 0.28757  0.42013  0.04003  Biso   1.000  C
  H19      1.0000 0.31087  0.42593  0.00503  Biso   1.000  H
  H20      1.0000 0.30277  0.43493  0.08323  Biso   1.000  H
  H21      1.0000 0.26827  0.38683  0.04723  Biso   1.000  H
  C42      1.0000 0.25477  0.47883  0.60563  Biso   1.000  C
  H22      1.0000 0.28227  0.48663  0.57743  Biso   1.000  H
  H23      1.0000 0.25457  0.45993  0.64483  Biso   1.000  H
  C43      1.0000 0.25837  0.52163  0.63193  Biso   1.000  C
  H24      1.0000 0.27497  0.54653  0.59863  Biso   1.000  H
  H25      1.0000 0.27527  0.52993  0.67563  Biso   1.000  H
  H26      1.0000 0.22747  0.51713  0.63923  Biso   1.000  H
  H27      1.0000 0.17557  0.38483  0.30533  Biso   1.000  H
  H28      1.0000 0.20557  0.47513  0.14233  Biso   1.000  H
  H29      1.0000 0.22467  0.52433  0.33833  Biso   1.000  H
  H30      1.0000 0.32757  0.41803  0.47533  Biso   1.000  H
  H31      1.0000 0.45497  0.47613  0.56833  Biso   1.000  H
  H32      1.0000 0.33637  0.41313  0.68633  Biso   1.000  H
  C44      1.0000 0.42829  0.46603  0.70313  Biso   1.000  C
  O27      1.0000 0.40931  0.45298  0.76136  Biso   1.000  O
  O28      1.0000 0.47103  0.49892  0.69885  Biso   1.000  O
  Co5      1.0000 0.85181  0.71539  0.85955  Biso   1.000  Co
  Co6      1.0000 0.81595  0.68837  0.34092  Biso   1.000  Co
  O29      1.0000 0.85322  0.73909  0.76058  Biso   1.000  O
  O30      1.0000 0.87743  0.81449  0.77797  Biso   1.000  O
  O31      1.0000 0.84520  0.68476  0.51373  Biso   1.000  O
  O32      1.0000 0.82658  0.72287  0.43327  Biso   1.000  O
  O33      1.0000 0.92583  0.92318  0.58327  Biso   1.000  O
  O34      1.0000 0.90383  0.89704  0.47577  Biso   1.000  O
  O35      1.0000 0.91624  0.72033  0.86539  Biso   1.000  O
  O36      1.0000 0.91983  0.69459  0.97296  Biso   1.000  O
  O37      1.0000 0.12762  0.80543  0.76951  Biso   1.000  O
  O38      1.0000 0.06063  0.78714  0.71976  Biso   1.000  O
  O39      1.0000 0.88175  0.78581  0.89912  Biso   1.000  O
  O40      1.0000 0.88492  0.73838  0.31058  Biso   1.000  O
  C45      1.0000 0.86603  0.78742  0.66217  Biso   1.000  C
  C46      1.0000 0.85299  0.75066  0.61527  Biso   1.000  C
  C47      1.0000 0.85432  0.75857  0.54337  Biso   1.000  C
  C48      1.0000 0.86999  0.80396  0.51857  Biso   1.000  C
  C49      1.0000 0.88507  0.84162  0.56477  Biso   1.000  C
  C50      1.0000 0.88233  0.83297  0.63637  Biso   1.000  C
  C51      1.0000 0.86533  0.77981  0.74007  Biso   1.000  C
  C52      1.0000 0.90653  0.89141  0.53937  Biso   1.000  C
  C53      1.0000 0.84083  0.71874  0.49257  Biso   1.000  C
  C54      1.0000 0.99062  0.74395  0.91477  Biso   1.000  C
  C55      1.0000 0.01256  0.75777  0.84957  Biso   1.000  C
  C56      1.0000 0.06143  0.77997  0.84437  Biso   1.000  C
  C57      1.0000 0.08847  0.79263  0.90527  Biso   1.000  C
  C58      1.0000 0.06683  0.78107  0.97077  Biso   1.000  C
  C59      1.0000 0.01769  0.75487  0.97464  Biso   1.000  C
  C60      1.0000 0.93758  0.71754  0.91833  Biso   1.000  C
  C61      1.0000 0.08434  0.79155  0.77414  Biso   1.000  C
  C62      1.0000 0.92533  0.77237  0.35027  Biso   1.000  C
  H33      1.0000 0.91453  0.78227  0.39077  Biso   1.000  H
  H34      1.0000 0.94403  0.79987  0.32137  Biso   1.000  H
  C63      1.0000 0.95423  0.75347  0.37337  Biso   1.000  C
  H35      1.0000 0.97753  0.75927  0.33837  Biso   1.000  H
  H36      1.0000 0.96943  0.76827  0.41657  Biso   1.000  H
  H37      1.0000 0.93493  0.72017  0.38057  Biso   1.000  H
  C64      1.0000 0.92143  0.81217  0.93897  Biso   1.000  C
  H38      1.0000 0.94893  0.81997  0.91077  Biso   1.000  H
  H39      1.0000 0.92123  0.79327  0.97817  Biso   1.000  H
  C65      1.0000 0.92503  0.85497  0.96527  Biso   1.000  C
  H40      1.0000 0.94163  0.87987  0.93197  Biso   1.000  H
  H41      1.0000 0.94193  0.86327  0.00897  Biso   1.000  H
  H42      1.0000 0.89413  0.85047  0.97257  Biso   1.000  H
  H43      1.0000 0.84223  0.71817  0.63867  Biso   1.000  H
  H44      1.0000 0.87223  0.80847  0.47567  Biso   1.000  H
  H45      1.0000 0.89133  0.85767  0.67167  Biso   1.000  H
  H46      1.0000 0.99423  0.75137  0.80867  Biso   1.000  H
  H47      1.0000 0.12163  0.80947  0.90167  Biso   1.000  H
  H48      1.0000 0.00303  0.74647  0.01967  Biso   1.000  H
  C66      1.0000 0.09495  0.79937  0.03647  Biso   1.000  C
  O41      1.0000 0.07597  0.78632  0.09470  Biso   1.000  O
  O42      1.0000 0.13769  0.83226  0.03219  Biso   1.000  O
  Co7      1.0000 0.95128  0.46976  0.19288  Biso   1.000  Co
  Co8      1.0000 0.97830  0.46092  0.67425  Biso   1.000  Co
  O43      1.0000 0.92758  0.44747  0.09391  Biso   1.000  O
  O44      1.0000 0.85218  0.39628  0.11130  Biso   1.000  O
  O45      1.0000 0.98191  0.49378  0.84706  Biso   1.000  O
  O46      1.0000 0.94380  0.43705  0.76660  Biso   1.000  O
  O47      1.0000 0.74349  0.33599  0.91660  Biso   1.000  O
  O48      1.0000 0.76963  0.34013  0.80910  Biso   1.000  O
  O49      1.0000 0.94634  0.52925  0.19872  Biso   1.000  O
  O50      1.0000 0.97208  0.55858  0.30629  Biso   1.000  O
  O51      1.0000 0.86124  0.65553  0.10284  Biso   1.000  O
  O52      1.0000 0.87953  0.60683  0.05309  Biso   1.000  O
  O53      1.0000 0.88086  0.42928  0.23245  Biso   1.000  O
  O54      1.0000 0.92829  0.47988  0.64391  Biso   1.000  O
  C67      1.0000 0.87925  0.41195  0.99550  Biso   1.000  C
  C68      1.0000 0.91601  0.43567  0.94860  Biso   1.000  C
  C69      1.0000 0.90810  0.42909  0.87670  Biso   1.000  C
  C70      1.0000 0.86271  0.39937  0.85190  Biso   1.000  C
  C71      1.0000 0.82505  0.37679  0.89810  Biso   1.000  C
  C72      1.0000 0.83370  0.38270  0.96970  Biso   1.000  C
  C73      1.0000 0.88686  0.41886  0.07340  Biso   1.000  C
  C74      1.0000 0.77526  0.34846  0.87270  Biso   1.000  C
  C75      1.0000 0.94793  0.45543  0.82590  Biso   1.000  C
  C76      1.0000 0.92272  0.58001  0.24810  Biso   1.000  C
  C77      1.0000 0.90890  0.58813  0.18290  Biso   1.000  C
  C78      1.0000 0.88670  0.61480  0.17770  Biso   1.000  C
  C79      1.0000 0.87404  0.62918  0.23860  Biso   1.000  C
  C80      1.0000 0.88560  0.61910  0.30410  Biso   1.000  C
  C81      1.0000 0.91180  0.59616  0.30797  Biso   1.000  C
  C82      1.0000 0.94913  0.55338  0.25166  Biso   1.000  C
  C83      1.0000 0.87512  0.62613  0.10747  Biso   1.000  C
  C84      1.0000 0.89430  0.48630  0.68360  Biso   1.000  C
  H49      1.0000 0.88440  0.46560  0.72410  Biso   1.000  H
  H50      1.0000 0.86680  0.47750  0.65470  Biso   1.000  H
  C85      1.0000 0.91320  0.53410  0.70670  Biso   1.000  C
  H51      1.0000 0.90740  0.55160  0.67170  Biso   1.000  H
  H52      1.0000 0.89840  0.53450  0.74990  Biso   1.000  H
  H53      1.0000 0.94650  0.54810  0.71390  Biso   1.000  H
  C86      1.0000 0.85450  0.44260  0.27230  Biso   1.000  C
  H54      1.0000 0.84670  0.46230  0.24410  Biso   1.000  H
  H55      1.0000 0.87340  0.46130  0.31150  Biso   1.000  H
  C87      1.0000 0.81170  0.40340  0.29860  Biso   1.000  C
  H56      1.0000 0.78680  0.39510  0.26530  Biso   1.000  H
  H57      1.0000 0.80340  0.41200  0.34230  Biso   1.000  H
  H58      1.0000 0.81620  0.37700  0.30590  Biso   1.000  H
  H59      1.0000 0.94850  0.45740  0.97200  Biso   1.000  H
  H60      1.0000 0.85820  0.39710  0.80900  Biso   1.000  H
  H61      1.0000 0.80900  0.36700  0.00500  Biso   1.000  H
  H62      1.0000 0.91530  0.57620  0.14200  Biso   1.000  H
  H63      1.0000 0.85720  0.64550  0.23500  Biso   1.000  H
  H64      1.0000 0.92020  0.58990  0.35300  Biso   1.000  H
  C88      1.0000 0.86730  0.62892  0.36980  Biso   1.000  C
  O55      1.0000 0.88035  0.62299  0.42803  Biso   1.000  O
  O56      1.0000 0.83441  0.63877  0.36552  Biso   1.000  O
  Co9      1.0000 0.61795  0.80309  0.52621  Biso   1.000  Co
  Co10     1.0000 0.64497  0.79425  0.00758  Biso   1.000  Co
  O57      1.0000 0.59425  0.78080  0.42724  Biso   1.000  O
  O58      1.0000 0.51885  0.72961  0.44463  Biso   1.000  O
  O59      1.0000 0.64858  0.82711  0.18039  Biso   1.000  O
  O60      1.0000 0.61047  0.77038  0.09993  Biso   1.000  O
  O61      1.0000 0.41016  0.66932  0.24993  Biso   1.000  O
  O62      1.0000 0.43630  0.67346  0.14243  Biso   1.000  O
  O63      1.0000 0.61301  0.86258  0.53205  Biso   1.000  O
  O64      1.0000 0.63875  0.89191  0.63962  Biso   1.000  O
  O65      1.0000 0.52791  0.98886  0.43617  Biso   1.000  O
  O66      1.0000 0.54620  0.94016  0.38642  Biso   1.000  O
  O67      1.0000 0.54753  0.76261  0.56578  Biso   1.000  O
  O68      1.0000 0.59496  0.81321  0.97724  Biso   1.000  O
  C89      1.0000 0.54592  0.74528  0.32883  Biso   1.000  C
  C90      1.0000 0.58268  0.76900  0.28193  Biso   1.000  C
  C91      1.0000 0.57477  0.76242  0.21003  Biso   1.000  C
  C92      1.0000 0.52938  0.73270  0.18523  Biso   1.000  C
  C93      1.0000 0.49172  0.71012  0.23143  Biso   1.000  C
  C94      1.0000 0.50037  0.71603  0.30303  Biso   1.000  C
  C95      1.0000 0.55353  0.75219  0.40673  Biso   1.000  C
  C96      1.0000 0.44193  0.68179  0.20603  Biso   1.000  C
  C97      1.0000 0.61460  0.78876  0.15923  Biso   1.000  C
  C98      1.0000 0.58939  0.91334  0.58143  Biso   1.000  C
  C99      1.0000 0.57557  0.92146  0.51623  Biso   1.000  C
  C100     1.0000 0.55337  0.94813  0.51103  Biso   1.000  C
  C101     1.0000 0.54071  0.96251  0.57193  Biso   1.000  C
  C102     1.0000 0.55227  0.95243  0.63743  Biso   1.000  C
  C103     1.0000 0.57847  0.92949  0.64130  Biso   1.000  C
  C104     1.0000 0.61580  0.88671  0.58499  Biso   1.000  C
  C105     1.0000 0.54179  0.95946  0.44080  Biso   1.000  C
  C106     1.0000 0.56097  0.81963  0.01693  Biso   1.000  C
  H65      1.0000 0.55107  0.79893  0.05743  Biso   1.000  H
  H66      1.0000 0.53347  0.81083  0.98803  Biso   1.000  H
  C107     1.0000 0.57987  0.86743  0.04003  Biso   1.000  C
  H67      1.0000 0.57407  0.88493  0.00503  Biso   1.000  H
  H68      1.0000 0.56507  0.86783  0.08323  Biso   1.000  H
  H69      1.0000 0.61317  0.88143  0.04723  Biso   1.000  H
  C108     1.0000 0.52117  0.77593  0.60563  Biso   1.000  C
  H70      1.0000 0.51337  0.79563  0.57743  Biso   1.000  H
  H71      1.0000 0.54007  0.79463  0.64483  Biso   1.000  H
  C109     1.0000 0.47837  0.73673  0.63193  Biso   1.000  C
  H72      1.0000 0.45347  0.72843  0.59863  Biso   1.000  H
  H73      1.0000 0.47007  0.74533  0.67563  Biso   1.000  H
  H74      1.0000 0.48287  0.71033  0.63923  Biso   1.000  H
  H75      1.0000 0.61517  0.79073  0.30533  Biso   1.000  H
  H76      1.0000 0.52487  0.73043  0.14233  Biso   1.000  H
  H77      1.0000 0.47567  0.70033  0.33833  Biso   1.000  H
  H78      1.0000 0.58197  0.90953  0.47533  Biso   1.000  H
  H79      1.0000 0.52387  0.97883  0.56833  Biso   1.000  H
  H80      1.0000 0.58687  0.92323  0.68633  Biso   1.000  H
  C110     1.0000 0.53397  0.96225  0.70313  Biso   1.000  C
  O69      1.0000 0.54702  0.95632  0.76136  Biso   1.000  O
  O70      1.0000 0.50108  0.97210  0.69885  Biso   1.000  O
  Co11     1.0000 0.28461  0.13642  0.85955  Biso   1.000  Co
  Co12     1.0000 0.31163  0.12759  0.34092  Biso   1.000  Co
  O71      1.0000 0.26091  0.11414  0.76058  Biso   1.000  O
  O72      1.0000 0.18551  0.06295  0.77797  Biso   1.000  O
  O73      1.0000 0.31524  0.16045  0.51373  Biso   1.000  O
  O74      1.0000 0.27713  0.10372  0.43327  Biso   1.000  O
  O75      1.0000 0.07682  0.00266  0.58327  Biso   1.000  O
  O76      1.0000 0.10296  0.00680  0.47577  Biso   1.000  O
  O77      1.0000 0.27967  0.19592  0.86539  Biso   1.000  O
  O78      1.0000 0.30541  0.22525  0.97296  Biso   1.000  O
  O79      1.0000 0.19457  0.32220  0.76951  Biso   1.000  O
  O80      1.0000 0.21286  0.27350  0.71976  Biso   1.000  O
  O81      1.0000 0.21419  0.09595  0.89912  Biso   1.000  O
  O82      1.0000 0.26162  0.14655  0.31058  Biso   1.000  O
  C111     1.0000 0.21258  0.07862  0.66217  Biso   1.000  C
  C112     1.0000 0.24934  0.10234  0.61527  Biso   1.000  C
  C113     1.0000 0.24143  0.09576  0.54337  Biso   1.000  C
  C114     1.0000 0.19604  0.06604  0.51857  Biso   1.000  C
  C115     1.0000 0.15838  0.04346  0.56477  Biso   1.000  C
  C116     1.0000 0.16703  0.04937  0.63637  Biso   1.000  C
  C117     1.0000 0.22019  0.08553  0.74007  Biso   1.000  C
  C118     1.0000 0.10859  0.01513  0.53937  Biso   1.000  C
  C119     1.0000 0.28126  0.12210  0.49257  Biso   1.000  C
  C120     1.0000 0.25605  0.24668  0.91477  Biso   1.000  C
  C121     1.0000 0.24223  0.25480  0.84957  Biso   1.000  C
  C122     1.0000 0.22003  0.28147  0.84437  Biso   1.000  C
  C123     1.0000 0.20737  0.29585  0.90527  Biso   1.000  C
  C124     1.0000 0.21893  0.28577  0.97077  Biso   1.000  C
  C125     1.0000 0.24513  0.26283  0.97464  Biso   1.000  C
  C126     1.0000 0.28246  0.22005  0.91833  Biso   1.000  C
  C127     1.0000 0.20845  0.29280  0.77414  Biso   1.000  C
  C128     1.0000 0.22763  0.15297  0.35027  Biso   1.000  C
  H81      1.0000 0.21773  0.13227  0.39077  Biso   1.000  H
  H82      1.0000 0.20013  0.14417  0.32137  Biso   1.000  H
  C129     1.0000 0.24653  0.20077  0.37337  Biso   1.000  C
  H83      1.0000 0.24073  0.21827  0.33837  Biso   1.000  H
  H84      1.0000 0.23173  0.20117  0.41657  Biso   1.000  H
  H85      1.0000 0.27983  0.21477  0.38057  Biso   1.000  H
  C130     1.0000 0.18783  0.10927  0.93897  Biso   1.000  C
  H86      1.0000 0.18003  0.12897  0.91077  Biso   1.000  H
  H87      1.0000 0.20673  0.12797  0.97817  Biso   1.000  H
  C131     1.0000 0.14503  0.07007  0.96527  Biso   1.000  C
  H88      1.0000 0.12013  0.06177  0.93197  Biso   1.000  H
  H89      1.0000 0.13673  0.07867  0.00897  Biso   1.000  H
  H90      1.0000 0.14953  0.04367  0.97257  Biso   1.000  H
  H91      1.0000 0.28183  0.12407  0.63867  Biso   1.000  H
  H92      1.0000 0.19153  0.06377  0.47567  Biso   1.000  H
  H93      1.0000 0.14233  0.03367  0.67167  Biso   1.000  H
  H94      1.0000 0.24863  0.24287  0.80867  Biso   1.000  H
  H95      1.0000 0.19053  0.31217  0.90167  Biso   1.000  H
  H96      1.0000 0.25353  0.25657  0.01967  Biso   1.000  H
  C132     1.0000 0.20063  0.29559  0.03647  Biso   1.000  C
  O83      1.0000 0.21368  0.28966  0.09470  Biso   1.000  O
  O84      1.0000 0.16774  0.30544  0.03219  Biso   1.000  O
  Co13     1.0000 0.53024  0.48152  0.19288  Biso   1.000  Co
  Co14     1.0000 0.53908  0.51738  0.67425  Biso   1.000  Co
  O85      1.0000 0.55253  0.48011  0.09391  Biso   1.000  O
  O86      1.0000 0.60372  0.45590  0.11130  Biso   1.000  O
  O87      1.0000 0.50622  0.48813  0.84706  Biso   1.000  O
  O88      1.0000 0.56295  0.50675  0.76660  Biso   1.000  O
  O89      1.0000 0.66401  0.40750  0.91660  Biso   1.000  O
  O90      1.0000 0.65987  0.42950  0.80910  Biso   1.000  O
  O91      1.0000 0.47075  0.41709  0.19872  Biso   1.000  O
  O92      1.0000 0.44142  0.41350  0.30629  Biso   1.000  O
  O93      1.0000 0.34447  0.20571  0.10284  Biso   1.000  O
  O94      1.0000 0.39317  0.27270  0.05309  Biso   1.000  O
  O95      1.0000 0.57072  0.45158  0.23245  Biso   1.000  O
  O96      1.0000 0.52012  0.44841  0.64391  Biso   1.000  O
  C133     1.0000 0.58805  0.46730  0.99550  Biso   1.000  C
  C134     1.0000 0.56433  0.48034  0.94860  Biso   1.000  C
  C135     1.0000 0.57091  0.47901  0.87670  Biso   1.000  C
  C136     1.0000 0.60063  0.46334  0.85190  Biso   1.000  C
  C137     1.0000 0.62321  0.44826  0.89810  Biso   1.000  C
  C138     1.0000 0.61730  0.45100  0.96970  Biso   1.000  C
  C139     1.0000 0.58114  0.46800  0.07340  Biso   1.000  C
  C140     1.0000 0.65154  0.42680  0.87270  Biso   1.000  C
  C141     1.0000 0.54457  0.49250  0.82590  Biso   1.000  C
  C142     1.0000 0.41999  0.34271  0.24810  Biso   1.000  C
  C143     1.0000 0.41187  0.32077  0.18290  Biso   1.000  C
  C144     1.0000 0.38520  0.27190  0.17770  Biso   1.000  C
  C145     1.0000 0.37082  0.24486  0.23860  Biso   1.000  C
  C146     1.0000 0.38090  0.26650  0.30410  Biso   1.000  C
  C147     1.0000 0.40384  0.31564  0.30797  Biso   1.000  C
  C148     1.0000 0.44662  0.39575  0.25166  Biso   1.000  C
  C149     1.0000 0.37387  0.24899  0.10747  Biso   1.000  C
  C150     1.0000 0.51370  0.40800  0.68360  Biso   1.000  C
  H97      1.0000 0.53440  0.41880  0.72410  Biso   1.000  H
  H98      1.0000 0.52250  0.38930  0.65470  Biso   1.000  H
  C151     1.0000 0.46590  0.37910  0.70670  Biso   1.000  C
  H99      1.0000 0.44840  0.35580  0.67170  Biso   1.000  H
  H100     1.0000 0.46550  0.36390  0.74990  Biso   1.000  H
  H101     1.0000 0.45190  0.39840  0.71390  Biso   1.000  H
  C152     1.0000 0.55740  0.41190  0.27230  Biso   1.000  C
  H102     1.0000 0.53770  0.38440  0.24410  Biso   1.000  H
  H103     1.0000 0.53870  0.41210  0.31150  Biso   1.000  H
  C153     1.0000 0.59660  0.40830  0.29860  Biso   1.000  C
  H104     1.0000 0.60490  0.39170  0.26530  Biso   1.000  H
  H105     1.0000 0.58800  0.39140  0.34230  Biso   1.000  H
  H106     1.0000 0.62300  0.43920  0.30590  Biso   1.000  H
  H107     1.0000 0.54260  0.49110  0.97200  Biso   1.000  H
  H108     1.0000 0.60290  0.46110  0.80900  Biso   1.000  H
  H109     1.0000 0.63300  0.44200  0.00500  Biso   1.000  H
  H110     1.0000 0.42380  0.33910  0.14200  Biso   1.000  H
  H111     1.0000 0.35450  0.21170  0.23500  Biso   1.000  H
  H112     1.0000 0.41010  0.33030  0.35300  Biso   1.000  H
  C154     1.0000 0.37108  0.23838  0.36980  Biso   1.000  C
  O97      1.0000 0.37701  0.25736  0.42803  Biso   1.000  O
  O98      1.0000 0.36123  0.19564  0.36552  Biso   1.000  O
  Co15     1.0000 0.19691  0.81486  0.52621  Biso   1.000  Co
  Co16     1.0000 0.20575  0.85071  0.00758  Biso   1.000  Co
  O99      1.0000 0.21920  0.81344  0.42724  Biso   1.000  O
  O100     1.0000 0.27039  0.78923  0.44463  Biso   1.000  O
  O101     1.0000 0.17289  0.82146  0.18039  Biso   1.000  O
  O102     1.0000 0.22962  0.84008  0.09993  Biso   1.000  O
  O103     1.0000 0.33068  0.74083  0.24993  Biso   1.000  O
  O104     1.0000 0.32654  0.76283  0.14243  Biso   1.000  O
  O105     1.0000 0.13742  0.75042  0.53205  Biso   1.000  O
  O106     1.0000 0.10809  0.74683  0.63962  Biso   1.000  O
  O107     1.0000 0.01114  0.53904  0.43617  Biso   1.000  O
  O108     1.0000 0.05984  0.60603  0.38642  Biso   1.000  O
  O109     1.0000 0.23739  0.78491  0.56578  Biso   1.000  O
  O110     1.0000 0.18679  0.78174  0.97724  Biso   1.000  O
  C155     1.0000 0.25472  0.80063  0.32883  Biso   1.000  C
  C156     1.0000 0.23100  0.81367  0.28193  Biso   1.000  C
  C157     1.0000 0.23758  0.81234  0.21003  Biso   1.000  C
  C158     1.0000 0.26730  0.79667  0.18523  Biso   1.000  C
  C159     1.0000 0.28988  0.78159  0.23143  Biso   1.000  C
  C160     1.0000 0.28397  0.78433  0.30303  Biso   1.000  C
  C161     1.0000 0.24781  0.80133  0.40673  Biso   1.000  C
  C162     1.0000 0.31821  0.76013  0.20603  Biso   1.000  C
  C163     1.0000 0.21124  0.82583  0.15923  Biso   1.000  C
  C164     1.0000 0.08666  0.67604  0.58143  Biso   1.000  C
  C165     1.0000 0.07854  0.65410  0.51623  Biso   1.000  C
  C166     1.0000 0.05187  0.60523  0.51103  Biso   1.000  C
  C167     1.0000 0.03749  0.57819  0.57193  Biso   1.000  C
  C168     1.0000 0.04757  0.59983  0.63743  Biso   1.000  C
  C169     1.0000 0.07051  0.64897  0.64130  Biso   1.000  C
  C170     1.0000 0.11329  0.72908  0.58499  Biso   1.000  C
  C171     1.0000 0.04054  0.58232  0.44080  Biso   1.000  C
  C172     1.0000 0.18037  0.74133  0.01693  Biso   1.000  C
  H113     1.0000 0.20107  0.75213  0.05743  Biso   1.000  H
  H114     1.0000 0.18917  0.72263  0.98803  Biso   1.000  H
  C173     1.0000 0.13257  0.71243  0.04003  Biso   1.000  C
  H115     1.0000 0.11507  0.68913  0.00503  Biso   1.000  H
  H116     1.0000 0.13217  0.69723  0.08323  Biso   1.000  H
  H117     1.0000 0.11857  0.73173  0.04723  Biso   1.000  H
  C174     1.0000 0.22407  0.74523  0.60563  Biso   1.000  C
  H118     1.0000 0.20437  0.71773  0.57743  Biso   1.000  H
  H119     1.0000 0.20537  0.74543  0.64483  Biso   1.000  H
  C175     1.0000 0.26327  0.74163  0.63193  Biso   1.000  C
  H120     1.0000 0.27157  0.72503  0.59863  Biso   1.000  H
  H121     1.0000 0.25467  0.72473  0.67563  Biso   1.000  H
  H122     1.0000 0.28967  0.77253  0.63923  Biso   1.000  H
  H123     1.0000 0.20927  0.82443  0.30533  Biso   1.000  H
  H124     1.0000 0.26957  0.79443  0.14233  Biso   1.000  H
  H125     1.0000 0.29967  0.77533  0.33833  Biso   1.000  H
  H126     1.0000 0.09047  0.67243  0.47533  Biso   1.000  H
  H127     1.0000 0.02117  0.54503  0.56833  Biso   1.000  H
  H128     1.0000 0.07677  0.66363  0.68633  Biso   1.000  H
  C176     1.0000 0.03775  0.57171  0.70313  Biso   1.000  C
  O111     1.0000 0.04368  0.59069  0.76136  Biso   1.000  O
  O112     1.0000 0.02790  0.52897  0.69885  Biso   1.000  O
  Co17     1.0000 0.86358  0.14819  0.85955  Biso   1.000  Co
  Co18     1.0000 0.87241  0.18405  0.34092  Biso   1.000  Co
  O113     1.0000 0.88586  0.14678  0.76058  Biso   1.000  O
  O114     1.0000 0.93705  0.12257  0.77797  Biso   1.000  O
  O115     1.0000 0.83955  0.15480  0.51373  Biso   1.000  O
  O116     1.0000 0.89628  0.17342  0.43327  Biso   1.000  O
  O117     1.0000 0.99734  0.07417  0.58327  Biso   1.000  O
  O118     1.0000 0.99320  0.09617  0.47577  Biso   1.000  O
  O119     1.0000 0.80408  0.08376  0.86539  Biso   1.000  O
  O120     1.0000 0.77475  0.08017  0.97296  Biso   1.000  O
  O121     1.0000 0.67780  0.87238  0.76951  Biso   1.000  O
  O122     1.0000 0.72650  0.93937  0.71976  Biso   1.000  O
  O123     1.0000 0.90405  0.11825  0.89912  Biso   1.000  O
  O124     1.0000 0.85345  0.11508  0.31058  Biso   1.000  O
  C177     1.0000 0.92138  0.13397  0.66217  Biso   1.000  C
  C178     1.0000 0.89766  0.14701  0.61527  Biso   1.000  C
  C179     1.0000 0.90424  0.14568  0.54337  Biso   1.000  C
  C180     1.0000 0.93396  0.13001  0.51857  Biso   1.000  C
  C181     1.0000 0.95654  0.11493  0.56477  Biso   1.000  C
  C182     1.0000 0.95063  0.11767  0.63637  Biso   1.000  C
  C183     1.0000 0.91447  0.13467  0.74007  Biso   1.000  C
  C184     1.0000 0.98487  0.09347  0.53937  Biso   1.000  C
  C185     1.0000 0.87790  0.15917  0.49257  Biso   1.000  C
  C186     1.0000 0.75332  0.00938  0.91477  Biso   1.000  C
  C187     1.0000 0.74520  0.98744  0.84957  Biso   1.000  C
  C188     1.0000 0.71853  0.93857  0.84437  Biso   1.000  C
  C189     1.0000 0.70415  0.91153  0.90527  Biso   1.000  C
  C190     1.0000 0.71423  0.93317  0.97077  Biso   1.000  C
  C191     1.0000 0.73717  0.98231  0.97464  Biso   1.000  C
  C192     1.0000 0.77995  0.06242  0.91833  Biso   1.000  C
  C193     1.0000 0.70720  0.91566  0.77414  Biso   1.000  C
  C194     1.0000 0.84703  0.07467  0.35027  Biso   1.000  C
  H129     1.0000 0.86773  0.08547  0.39077  Biso   1.000  H
  H130     1.0000 0.85583  0.05597  0.32137  Biso   1.000  H
  C195     1.0000 0.79923  0.04577  0.37337  Biso   1.000  C
  H131     1.0000 0.78173  0.02247  0.33837  Biso   1.000  H
  H132     1.0000 0.79883  0.03057  0.41657  Biso   1.000  H
  H133     1.0000 0.78523  0.06507  0.38057  Biso   1.000  H
  C196     1.0000 0.89073  0.07857  0.93897  Biso   1.000  C
  H134     1.0000 0.87103  0.05107  0.91077  Biso   1.000  H
  H135     1.0000 0.87203  0.07877  0.97817  Biso   1.000  H
  C197     1.0000 0.92993  0.07497  0.96527  Biso   1.000  C
  H136     1.0000 0.93823  0.05837  0.93197  Biso   1.000  H
  H137     1.0000 0.92133  0.05807  0.00897  Biso   1.000  H
  H138     1.0000 0.95633  0.10587  0.97257  Biso   1.000  H
  H139     1.0000 0.87593  0.15777  0.63867  Biso   1.000  H
  H140     1.0000 0.93623  0.12777  0.47567  Biso   1.000  H
  H141     1.0000 0.96633  0.10867  0.67167  Biso   1.000  H
  H142     1.0000 0.75713  0.00577  0.80867  Biso   1.000  H
  H143     1.0000 0.68783  0.87837  0.90167  Biso   1.000  H
  H144     1.0000 0.74343  0.99697  0.01967  Biso   1.000  H
  C198     1.0000 0.70441  0.90505  0.03647  Biso   1.000  C
  O125     1.0000 0.71034  0.92403  0.09470  Biso   1.000  O
  O126     1.0000 0.69456  0.86231  0.03219  Biso   1.000  O
  Co19     1.0000 0.48152  0.95128  0.80712  Biso   1.000  Co
  Co20     1.0000 0.51738  0.97830  0.32575  Biso   1.000  Co
  O127     1.0000 0.48011  0.92758  0.90609  Biso   1.000  O
  O128     1.0000 0.45590  0.85218  0.88870  Biso   1.000  O
  O129     1.0000 0.48813  0.98191  0.15294  Biso   1.000  O
  O130     1.0000 0.50675  0.94380  0.23340  Biso   1.000  O
  O131     1.0000 0.40750  0.74349  0.08340  Biso   1.000  O
  O132     1.0000 0.42950  0.76963  0.19090  Biso   1.000  O
  O133     1.0000 0.41709  0.94634  0.80128  Biso   1.000  O
  O134     1.0000 0.41350  0.97208  0.69371  Biso   1.000  O
  O135     1.0000 0.20571  0.86124  0.89716  Biso   1.000  O
  O136     1.0000 0.27270  0.87953  0.94691  Biso   1.000  O
  O137     1.0000 0.45158  0.88086  0.76755  Biso   1.000  O
  O138     1.0000 0.44841  0.92829  0.35609  Biso   1.000  O
  C199     1.0000 0.46730  0.87925  0.00450  Biso   1.000  C
  C200     1.0000 0.48034  0.91601  0.05140  Biso   1.000  C
  C201     1.0000 0.47901  0.90810  0.12330  Biso   1.000  C
  C202     1.0000 0.46334  0.86271  0.14810  Biso   1.000  C
  C203     1.0000 0.44826  0.82505  0.10190  Biso   1.000  C
  C204     1.0000 0.45100  0.83370  0.03030  Biso   1.000  C
  C205     1.0000 0.46800  0.88686  0.92660  Biso   1.000  C
  C206     1.0000 0.42680  0.77526  0.12730  Biso   1.000  C
  C207     1.0000 0.49250  0.94793  0.17410  Biso   1.000  C
  C208     1.0000 0.34271  0.92272  0.75190  Biso   1.000  C
  C209     1.0000 0.32077  0.90890  0.81710  Biso   1.000  C
  C210     1.0000 0.27190  0.88670  0.82230  Biso   1.000  C
  C211     1.0000 0.24486  0.87404  0.76140  Biso   1.000  C
  C212     1.0000 0.26650  0.88560  0.69590  Biso   1.000  C
  C213     1.0000 0.31564  0.91180  0.69203  Biso   1.000  C
  C214     1.0000 0.39575  0.94913  0.74834  Biso   1.000  C
  C215     1.0000 0.24899  0.87512  0.89253  Biso   1.000  C
  C216     1.0000 0.40800  0.89430  0.31640  Biso   1.000  C
  H145     1.0000 0.41880  0.88440  0.27590  Biso   1.000  H
  H146     1.0000 0.38930  0.86680  0.34530  Biso   1.000  H
  C217     1.0000 0.37910  0.91320  0.29330  Biso   1.000  C
  H147     1.0000 0.35580  0.90740  0.32830  Biso   1.000  H
  H148     1.0000 0.36390  0.89840  0.25010  Biso   1.000  H
  H149     1.0000 0.39840  0.94650  0.28610  Biso   1.000  H
  C218     1.0000 0.41190  0.85450  0.72770  Biso   1.000  C
  H150     1.0000 0.38440  0.84670  0.75590  Biso   1.000  H
  H151     1.0000 0.41210  0.87340  0.68850  Biso   1.000  H
  C219     1.0000 0.40830  0.81170  0.70140  Biso   1.000  C
  H152     1.0000 0.39170  0.78680  0.73470  Biso   1.000  H
  H153     1.0000 0.39140  0.80340  0.65770  Biso   1.000  H
  H154     1.0000 0.43920  0.81620  0.69410  Biso   1.000  H
  H155     1.0000 0.49110  0.94850  0.02800  Biso   1.000  H
  H156     1.0000 0.46110  0.85820  0.19100  Biso   1.000  H
  H157     1.0000 0.44200  0.80900  0.99500  Biso   1.000  H
  H158     1.0000 0.33910  0.91530  0.85800  Biso   1.000  H
  H159     1.0000 0.21170  0.85720  0.76500  Biso   1.000  H
  H160     1.0000 0.33030  0.92020  0.64700  Biso   1.000  H
  C220     1.0000 0.23838  0.86730  0.63020  Biso   1.000  C
  O139     1.0000 0.25736  0.88035  0.57197  Biso   1.000  O
  O140     1.0000 0.19564  0.83441  0.63448  Biso   1.000  O
  Co21     1.0000 0.14819  0.28461  0.14045  Biso   1.000  Co
  Co22     1.0000 0.18405  0.31163  0.65908  Biso   1.000  Co
  O141     1.0000 0.14678  0.26091  0.23942  Biso   1.000  O
  O142     1.0000 0.12257  0.18551  0.22203  Biso   1.000  O
  O143     1.0000 0.15480  0.31524  0.48627  Biso   1.000  O
  O144     1.0000 0.17342  0.27713  0.56673  Biso   1.000  O
  O145     1.0000 0.07417  0.07682  0.41673  Biso   1.000  O
  O146     1.0000 0.09617  0.10296  0.52423  Biso   1.000  O
  O147     1.0000 0.08376  0.27967  0.13461  Biso   1.000  O
  O148     1.0000 0.08017  0.30541  0.02704  Biso   1.000  O
  O149     1.0000 0.87238  0.19457  0.23049  Biso   1.000  O
  O150     1.0000 0.93937  0.21286  0.28024  Biso   1.000  O
  O151     1.0000 0.11825  0.21419  0.10088  Biso   1.000  O
  O152     1.0000 0.11508  0.26162  0.68942  Biso   1.000  O
  C221     1.0000 0.13397  0.21258  0.33783  Biso   1.000  C
  C222     1.0000 0.14701  0.24934  0.38473  Biso   1.000  C
  C223     1.0000 0.14568  0.24143  0.45663  Biso   1.000  C
  C224     1.0000 0.13001  0.19604  0.48143  Biso   1.000  C
  C225     1.0000 0.11493  0.15838  0.43523  Biso   1.000  C
  C226     1.0000 0.11767  0.16703  0.36363  Biso   1.000  C
  C227     1.0000 0.13467  0.22019  0.25993  Biso   1.000  C
  C228     1.0000 0.09347  0.10859  0.46063  Biso   1.000  C
  C229     1.0000 0.15917  0.28126  0.50743  Biso   1.000  C
  C230     1.0000 0.00938  0.25605  0.08523  Biso   1.000  C
  C231     1.0000 0.98744  0.24223  0.15043  Biso   1.000  C
  C232     1.0000 0.93857  0.22003  0.15563  Biso   1.000  C
  C233     1.0000 0.91153  0.20737  0.09473  Biso   1.000  C
  C234     1.0000 0.93317  0.21893  0.02923  Biso   1.000  C
  C235     1.0000 0.98231  0.24513  0.02536  Biso   1.000  C
  C236     1.0000 0.06242  0.28246  0.08167  Biso   1.000  C
  C237     1.0000 0.91566  0.20845  0.22586  Biso   1.000  C
  C238     1.0000 0.07467  0.22763  0.64973  Biso   1.000  C
  H161     1.0000 0.08547  0.21773  0.60923  Biso   1.000  H
  H162     1.0000 0.05597  0.20013  0.67863  Biso   1.000  H
  C239     1.0000 0.04577  0.24653  0.62663  Biso   1.000  C
  H163     1.0000 0.02247  0.24073  0.66163  Biso   1.000  H
  H164     1.0000 0.03057  0.23173  0.58343  Biso   1.000  H
  H165     1.0000 0.06507  0.27983  0.61943  Biso   1.000  H
  C240     1.0000 0.07857  0.18783  0.06103  Biso   1.000  C
  H166     1.0000 0.05107  0.18003  0.08923  Biso   1.000  H
  H167     1.0000 0.07877  0.20673  0.02183  Biso   1.000  H
  C241     1.0000 0.07497  0.14503  0.03473  Biso   1.000  C
  H168     1.0000 0.05837  0.12013  0.06803  Biso   1.000  H
  H169     1.0000 0.05807  0.13673  0.99103  Biso   1.000  H
  H170     1.0000 0.10587  0.14953  0.02743  Biso   1.000  H
  H171     1.0000 0.15777  0.28183  0.36133  Biso   1.000  H
  H172     1.0000 0.12777  0.19153  0.52433  Biso   1.000  H
  H173     1.0000 0.10867  0.14233  0.32833  Biso   1.000  H
  H174     1.0000 0.00577  0.24863  0.19133  Biso   1.000  H
  H175     1.0000 0.87837  0.19053  0.09833  Biso   1.000  H
  H176     1.0000 0.99697  0.25353  0.98033  Biso   1.000  H
  C242     1.0000 0.90505  0.20063  0.96353  Biso   1.000  C
  O153     1.0000 0.92403  0.21368  0.90530  Biso   1.000  O
  O154     1.0000 0.86231  0.16774  0.96781  Biso   1.000  O
  Co23     1.0000 0.81486  0.61795  0.47379  Biso   1.000  Co
  Co24     1.0000 0.85071  0.64497  0.99242  Biso   1.000  Co
  O155     1.0000 0.81344  0.59425  0.57276  Biso   1.000  O
  O156     1.0000 0.78923  0.51885  0.55537  Biso   1.000  O
  O157     1.0000 0.82146  0.64858  0.81961  Biso   1.000  O
  O158     1.0000 0.84008  0.61047  0.90007  Biso   1.000  O
  O159     1.0000 0.74083  0.41016  0.75007  Biso   1.000  O
  O160     1.0000 0.76283  0.43630  0.85757  Biso   1.000  O
  O161     1.0000 0.75042  0.61301  0.46795  Biso   1.000  O
  O162     1.0000 0.74683  0.63875  0.36038  Biso   1.000  O
  O163     1.0000 0.53904  0.52791  0.56383  Biso   1.000  O
  O164     1.0000 0.60603  0.54620  0.61358  Biso   1.000  O
  O165     1.0000 0.78491  0.54753  0.43422  Biso   1.000  O
  O166     1.0000 0.78174  0.59496  0.02276  Biso   1.000  O
  C243     1.0000 0.80063  0.54592  0.67117  Biso   1.000  C
  C244     1.0000 0.81367  0.58268  0.71807  Biso   1.000  C
  C245     1.0000 0.81234  0.57477  0.78997  Biso   1.000  C
  C246     1.0000 0.79667  0.52938  0.81477  Biso   1.000  C
  C247     1.0000 0.78159  0.49172  0.76857  Biso   1.000  C
  C248     1.0000 0.78433  0.50037  0.69697  Biso   1.000  C
  C249     1.0000 0.80133  0.55353  0.59327  Biso   1.000  C
  C250     1.0000 0.76013  0.44193  0.79397  Biso   1.000  C
  C251     1.0000 0.82583  0.61460  0.84077  Biso   1.000  C
  C252     1.0000 0.67604  0.58939  0.41857  Biso   1.000  C
  C253     1.0000 0.65410  0.57557  0.48377  Biso   1.000  C
  C254     1.0000 0.60523  0.55337  0.48897  Biso   1.000  C
  C255     1.0000 0.57819  0.54071  0.42807  Biso   1.000  C
  C256     1.0000 0.59983  0.55227  0.36257  Biso   1.000  C
  C257     1.0000 0.64897  0.57847  0.35870  Biso   1.000  C
  C258     1.0000 0.72908  0.61580  0.41501  Biso   1.000  C
  C259     1.0000 0.58232  0.54179  0.55920  Biso   1.000  C
  C260     1.0000 0.74133  0.56097  0.98307  Biso   1.000  C
  H177     1.0000 0.75213  0.55107  0.94257  Biso   1.000  H
  H178     1.0000 0.72263  0.53347  0.01197  Biso   1.000  H
  C261     1.0000 0.71243  0.57987  0.95997  Biso   1.000  C
  H179     1.0000 0.68913  0.57407  0.99497  Biso   1.000  H
  H180     1.0000 0.69723  0.56507  0.91677  Biso   1.000  H
  H181     1.0000 0.73173  0.61317  0.95277  Biso   1.000  H
  C262     1.0000 0.74523  0.52117  0.39437  Biso   1.000  C
  H182     1.0000 0.71773  0.51337  0.42257  Biso   1.000  H
  H183     1.0000 0.74543  0.54007  0.35517  Biso   1.000  H
  C263     1.0000 0.74163  0.47837  0.36807  Biso   1.000  C
  H184     1.0000 0.72503  0.45347  0.40137  Biso   1.000  H
  H185     1.0000 0.72473  0.47007  0.32437  Biso   1.000  H
  H186     1.0000 0.77253  0.48287  0.36077  Biso   1.000  H
  H187     1.0000 0.82443  0.61517  0.69467  Biso   1.000  H
  H188     1.0000 0.79443  0.52487  0.85767  Biso   1.000  H
  H189     1.0000 0.77533  0.47567  0.66167  Biso   1.000  H
  H190     1.0000 0.67243  0.58197  0.52467  Biso   1.000  H
  H191     1.0000 0.54503  0.52387  0.43167  Biso   1.000  H
  H192     1.0000 0.66363  0.58687  0.31367  Biso   1.000  H
  C264     1.0000 0.57171  0.53397  0.29687  Biso   1.000  C
  O167     1.0000 0.59069  0.54702  0.23864  Biso   1.000  O
  O168     1.0000 0.52897  0.50108  0.30115  Biso   1.000  O
  Co25     1.0000 0.04872  0.53024  0.80712  Biso   1.000  Co
  Co26     1.0000 0.02170  0.53908  0.32575  Biso   1.000  Co
  O169     1.0000 0.07242  0.55253  0.90609  Biso   1.000  O
  O170     1.0000 0.14782  0.60372  0.88870  Biso   1.000  O
  O171     1.0000 0.01809  0.50622  0.15294  Biso   1.000  O
  O172     1.0000 0.05620  0.56295  0.23340  Biso   1.000  O
  O173     1.0000 0.25651  0.66401  0.08340  Biso   1.000  O
  O174     1.0000 0.23037  0.65987  0.19090  Biso   1.000  O
  O175     1.0000 0.05366  0.47075  0.80128  Biso   1.000  O
  O176     1.0000 0.02792  0.44142  0.69371  Biso   1.000  O
  O177     1.0000 0.13876  0.34447  0.89716  Biso   1.000  O
  O178     1.0000 0.12047  0.39317  0.94691  Biso   1.000  O
  O179     1.0000 0.11914  0.57072  0.76755  Biso   1.000  O
  O180     1.0000 0.07171  0.52012  0.35609  Biso   1.000  O
  C265     1.0000 0.12075  0.58805  0.00450  Biso   1.000  C
  C266     1.0000 0.08399  0.56433  0.05140  Biso   1.000  C
  C267     1.0000 0.09190  0.57091  0.12330  Biso   1.000  C
  C268     1.0000 0.13729  0.60063  0.14810  Biso   1.000  C
  C269     1.0000 0.17495  0.62321  0.10190  Biso   1.000  C
  C270     1.0000 0.16630  0.61730  0.03030  Biso   1.000  C
  C271     1.0000 0.11314  0.58114  0.92660  Biso   1.000  C
  C272     1.0000 0.22474  0.65154  0.12730  Biso   1.000  C
  C273     1.0000 0.05207  0.54457  0.17410  Biso   1.000  C
  C274     1.0000 0.07728  0.41999  0.75190  Biso   1.000  C
  C275     1.0000 0.09110  0.41187  0.81710  Biso   1.000  C
  C276     1.0000 0.11330  0.38520  0.82230  Biso   1.000  C
  C277     1.0000 0.12596  0.37082  0.76140  Biso   1.000  C
  C278     1.0000 0.11440  0.38090  0.69590  Biso   1.000  C
  C279     1.0000 0.08820  0.40384  0.69203  Biso   1.000  C
  C280     1.0000 0.05087  0.44662  0.74834  Biso   1.000  C
  C281     1.0000 0.12488  0.37387  0.89253  Biso   1.000  C
  C282     1.0000 0.10570  0.51370  0.31640  Biso   1.000  C
  H193     1.0000 0.11560  0.53440  0.27590  Biso   1.000  H
  H194     1.0000 0.13320  0.52250  0.34530  Biso   1.000  H
  C283     1.0000 0.08680  0.46590  0.29330  Biso   1.000  C
  H195     1.0000 0.09260  0.44840  0.32830  Biso   1.000  H
  H196     1.0000 0.10160  0.46550  0.25010  Biso   1.000  H
  H197     1.0000 0.05350  0.45190  0.28610  Biso   1.000  H
  C284     1.0000 0.14550  0.55740  0.72770  Biso   1.000  C
  H198     1.0000 0.15330  0.53770  0.75590  Biso   1.000  H
  H199     1.0000 0.12660  0.53870  0.68850  Biso   1.000  H
  C285     1.0000 0.18830  0.59660  0.70140  Biso   1.000  C
  H200     1.0000 0.21320  0.60490  0.73470  Biso   1.000  H
  H201     1.0000 0.19660  0.58800  0.65770  Biso   1.000  H
  H202     1.0000 0.18380  0.62300  0.69410  Biso   1.000  H
  H203     1.0000 0.05150  0.54260  0.02800  Biso   1.000  H
  H204     1.0000 0.14180  0.60290  0.19100  Biso   1.000  H
  H205     1.0000 0.19100  0.63300  0.99500  Biso   1.000  H
  H206     1.0000 0.08470  0.42380  0.85800  Biso   1.000  H
  H207     1.0000 0.14280  0.35450  0.76500  Biso   1.000  H
  H208     1.0000 0.07980  0.41010  0.64700  Biso   1.000  H
  C286     1.0000 0.13270  0.37108  0.63020  Biso   1.000  C
  O181     1.0000 0.11965  0.37701  0.57197  Biso   1.000  O
  O182     1.0000 0.16559  0.36123  0.63448  Biso   1.000  O
  Co27     1.0000 0.71539  0.86358  0.14045  Biso   1.000  Co
  Co28     1.0000 0.68837  0.87241  0.65908  Biso   1.000  Co
  O183     1.0000 0.73909  0.88586  0.23942  Biso   1.000  O
  O184     1.0000 0.81449  0.93705  0.22203  Biso   1.000  O
  O185     1.0000 0.68476  0.83955  0.48627  Biso   1.000  O
  O186     1.0000 0.72287  0.89628  0.56673  Biso   1.000  O
  O187     1.0000 0.92318  0.99734  0.41673  Biso   1.000  O
  O188     1.0000 0.89704  0.99320  0.52423  Biso   1.000  O
  O189     1.0000 0.72033  0.80408  0.13461  Biso   1.000  O
  O190     1.0000 0.69459  0.77475  0.02704  Biso   1.000  O
  O191     1.0000 0.80543  0.67780  0.23049  Biso   1.000  O
  O192     1.0000 0.78714  0.72650  0.28024  Biso   1.000  O
  O193     1.0000 0.78581  0.90405  0.10088  Biso   1.000  O
  O194     1.0000 0.73838  0.85345  0.68942  Biso   1.000  O
  C287     1.0000 0.78742  0.92138  0.33783  Biso   1.000  C
  C288     1.0000 0.75066  0.89766  0.38473  Biso   1.000  C
  C289     1.0000 0.75857  0.90424  0.45663  Biso   1.000  C
  C290     1.0000 0.80396  0.93396  0.48143  Biso   1.000  C
  C291     1.0000 0.84162  0.95654  0.43523  Biso   1.000  C
  C292     1.0000 0.83297  0.95063  0.36363  Biso   1.000  C
  C293     1.0000 0.77981  0.91447  0.25993  Biso   1.000  C
  C294     1.0000 0.89141  0.98487  0.46063  Biso   1.000  C
  C295     1.0000 0.71874  0.87790  0.50743  Biso   1.000  C
  C296     1.0000 0.74395  0.75332  0.08523  Biso   1.000  C
  C297     1.0000 0.75777  0.74520  0.15043  Biso   1.000  C
  C298     1.0000 0.77997  0.71853  0.15563  Biso   1.000  C
  C299     1.0000 0.79263  0.70415  0.09473  Biso   1.000  C
  C300     1.0000 0.78107  0.71423  0.02923  Biso   1.000  C
  C301     1.0000 0.75487  0.73717  0.02536  Biso   1.000  C
  C302     1.0000 0.71754  0.77995  0.08167  Biso   1.000  C
  C303     1.0000 0.79155  0.70720  0.22586  Biso   1.000  C
  C304     1.0000 0.77237  0.84703  0.64973  Biso   1.000  C
  H209     1.0000 0.78227  0.86773  0.60923  Biso   1.000  H
  H210     1.0000 0.79987  0.85583  0.67863  Biso   1.000  H
  C305     1.0000 0.75347  0.79923  0.62663  Biso   1.000  C
  H211     1.0000 0.75927  0.78173  0.66163  Biso   1.000  H
  H212     1.0000 0.76827  0.79883  0.58343  Biso   1.000  H
  H213     1.0000 0.72017  0.78523  0.61943  Biso   1.000  H
  C306     1.0000 0.81217  0.89073  0.06103  Biso   1.000  C
  H214     1.0000 0.81997  0.87103  0.08923  Biso   1.000  H
  H215     1.0000 0.79327  0.87203  0.02183  Biso   1.000  H
  C307     1.0000 0.85497  0.92993  0.03473  Biso   1.000  C
  H216     1.0000 0.87987  0.93823  0.06803  Biso   1.000  H
  H217     1.0000 0.86327  0.92133  0.99103  Biso   1.000  H
  H218     1.0000 0.85047  0.95633  0.02743  Biso   1.000  H
  H219     1.0000 0.71817  0.87593  0.36133  Biso   1.000  H
  H220     1.0000 0.80847  0.93623  0.52433  Biso   1.000  H
  H221     1.0000 0.85767  0.96633  0.32833  Biso   1.000  H
  H222     1.0000 0.75137  0.75713  0.19133  Biso   1.000  H
  H223     1.0000 0.80947  0.68783  0.09833  Biso   1.000  H
  H224     1.0000 0.74647  0.74343  0.98033  Biso   1.000  H
  C308     1.0000 0.79937  0.70441  0.96353  Biso   1.000  C
  O195     1.0000 0.78632  0.71034  0.90530  Biso   1.000  O
  O196     1.0000 0.83226  0.69456  0.96781  Biso   1.000  O
  Co29     1.0000 0.38205  0.19691  0.47379  Biso   1.000  Co
  Co30     1.0000 0.35503  0.20575  0.99242  Biso   1.000  Co
  O197     1.0000 0.40575  0.21920  0.57276  Biso   1.000  O
  O198     1.0000 0.48115  0.27039  0.55537  Biso   1.000  O
  O199     1.0000 0.35142  0.17289  0.81961  Biso   1.000  O
  O200     1.0000 0.38953  0.22962  0.90007  Biso   1.000  O
  O201     1.0000 0.58984  0.33068  0.75007  Biso   1.000  O
  O202     1.0000 0.56370  0.32654  0.85757  Biso   1.000  O
  O203     1.0000 0.38699  0.13742  0.46795  Biso   1.000  O
  O204     1.0000 0.36125  0.10809  0.36038  Biso   1.000  O
  O205     1.0000 0.47209  0.01114  0.56383  Biso   1.000  O
  O206     1.0000 0.45380  0.05984  0.61358  Biso   1.000  O
  O207     1.0000 0.45247  0.23739  0.43422  Biso   1.000  O
  O208     1.0000 0.40504  0.18679  0.02276  Biso   1.000  O
  C309     1.0000 0.45408  0.25472  0.67117  Biso   1.000  C
  C310     1.0000 0.41732  0.23100  0.71807  Biso   1.000  C
  C311     1.0000 0.42523  0.23758  0.78997  Biso   1.000  C
  C312     1.0000 0.47062  0.26730  0.81477  Biso   1.000  C
  C313     1.0000 0.50828  0.28988  0.76857  Biso   1.000  C
  C314     1.0000 0.49963  0.28397  0.69697  Biso   1.000  C
  C315     1.0000 0.44647  0.24781  0.59327  Biso   1.000  C
  C316     1.0000 0.55807  0.31821  0.79397  Biso   1.000  C
  C317     1.0000 0.38540  0.21124  0.84077  Biso   1.000  C
  C318     1.0000 0.41061  0.08666  0.41857  Biso   1.000  C
  C319     1.0000 0.42443  0.07854  0.48377  Biso   1.000  C
  C320     1.0000 0.44663  0.05187  0.48897  Biso   1.000  C
  C321     1.0000 0.45929  0.03749  0.42807  Biso   1.000  C
  C322     1.0000 0.44773  0.04757  0.36257  Biso   1.000  C
  C323     1.0000 0.42153  0.07051  0.35870  Biso   1.000  C
  C324     1.0000 0.38420  0.11329  0.41501  Biso   1.000  C
  C325     1.0000 0.45821  0.04054  0.55920  Biso   1.000  C
  C326     1.0000 0.43903  0.18037  0.98307  Biso   1.000  C
  H225     1.0000 0.44893  0.20107  0.94257  Biso   1.000  H
  H226     1.0000 0.46653  0.18917  0.01197  Biso   1.000  H
  C327     1.0000 0.42013  0.13257  0.95997  Biso   1.000  C
  H227     1.0000 0.42593  0.11507  0.99497  Biso   1.000  H
  H228     1.0000 0.43493  0.13217  0.91677  Biso   1.000  H
  H229     1.0000 0.38683  0.11857  0.95277  Biso   1.000  H
  C328     1.0000 0.47883  0.22407  0.39437  Biso   1.000  C
  H230     1.0000 0.48663  0.20437  0.42257  Biso   1.000  H
  H231     1.0000 0.45993  0.20537  0.35517  Biso   1.000  H
  C329     1.0000 0.52163  0.26327  0.36807  Biso   1.000  C
  H232     1.0000 0.54653  0.27157  0.40137  Biso   1.000  H
  H233     1.0000 0.52993  0.25467  0.32437  Biso   1.000  H
  H234     1.0000 0.51713  0.28967  0.36077  Biso   1.000  H
  H235     1.0000 0.38483  0.20927  0.69467  Biso   1.000  H
  H236     1.0000 0.47513  0.26957  0.85767  Biso   1.000  H
  H237     1.0000 0.52433  0.29967  0.66167  Biso   1.000  H
  H238     1.0000 0.41803  0.09047  0.52467  Biso   1.000  H
  H239     1.0000 0.47613  0.02117  0.43167  Biso   1.000  H
  H240     1.0000 0.41313  0.07677  0.31367  Biso   1.000  H
  C330     1.0000 0.46603  0.03775  0.29687  Biso   1.000  C
  O209     1.0000 0.45298  0.04368  0.23864  Biso   1.000  O
  O210     1.0000 0.49892  0.02790  0.30115  Biso   1.000  O
  Co31     1.0000 0.46976  0.51848  0.80712  Biso   1.000  Co
  Co32     1.0000 0.46092  0.48262  0.32575  Biso   1.000  Co
  O211     1.0000 0.44747  0.51989  0.90609  Biso   1.000  O
  O212     1.0000 0.39628  0.54410  0.88870  Biso   1.000  O
  O213     1.0000 0.49378  0.51187  0.15294  Biso   1.000  O
  O214     1.0000 0.43705  0.49325  0.23340  Biso   1.000  O
  O215     1.0000 0.33599  0.59250  0.08340  Biso   1.000  O
  O216     1.0000 0.34013  0.57050  0.19090  Biso   1.000  O
  O217     1.0000 0.52925  0.58291  0.80128  Biso   1.000  O
  O218     1.0000 0.55858  0.58650  0.69371  Biso   1.000  O
  O219     1.0000 0.65553  0.79429  0.89716  Biso   1.000  O
  O220     1.0000 0.60683  0.72730  0.94691  Biso   1.000  O
  O221     1.0000 0.42928  0.54842  0.76755  Biso   1.000  O
  O222     1.0000 0.47988  0.55159  0.35609  Biso   1.000  O
  C331     1.0000 0.41195  0.53270  0.00450  Biso   1.000  C
  C332     1.0000 0.43567  0.51966  0.05140  Biso   1.000  C
  C333     1.0000 0.42909  0.52099  0.12330  Biso   1.000  C
  C334     1.0000 0.39937  0.53666  0.14810  Biso   1.000  C
  C335     1.0000 0.37679  0.55174  0.10190  Biso   1.000  C
  C336     1.0000 0.38270  0.54900  0.03030  Biso   1.000  C
  C337     1.0000 0.41886  0.53200  0.92660  Biso   1.000  C
  C338     1.0000 0.34846  0.57320  0.12730  Biso   1.000  C
  C339     1.0000 0.45543  0.50750  0.17410  Biso   1.000  C
  C340     1.0000 0.58001  0.65729  0.75190  Biso   1.000  C
  C341     1.0000 0.58813  0.67923  0.81710  Biso   1.000  C
  C342     1.0000 0.61480  0.72810  0.82230  Biso   1.000  C
  C343     1.0000 0.62918  0.75514  0.76140  Biso   1.000  C
  C344     1.0000 0.61910  0.73350  0.69590  Biso   1.000  C
  C345     1.0000 0.59616  0.68436  0.69203  Biso   1.000  C
  C346     1.0000 0.55338  0.60425  0.74834  Biso   1.000  C
  C347     1.0000 0.62613  0.75101  0.89253  Biso   1.000  C
  C348     1.0000 0.48630  0.59200  0.31640  Biso   1.000  C
  H241     1.0000 0.46560  0.58120  0.27590  Biso   1.000  H
  H242     1.0000 0.47750  0.61070  0.34530  Biso   1.000  H
  C349     1.0000 0.53410  0.62090  0.29330  Biso   1.000  C
  H243     1.0000 0.55160  0.64420  0.32830  Biso   1.000  H
  H244     1.0000 0.53450  0.63610  0.25010  Biso   1.000  H
  H245     1.0000 0.54810  0.60160  0.28610  Biso   1.000  H
  C350     1.0000 0.44260  0.58810  0.72770  Biso   1.000  C
  H246     1.0000 0.46230  0.61560  0.75590  Biso   1.000  H
  H247     1.0000 0.46130  0.58790  0.68850  Biso   1.000  H
  C351     1.0000 0.40340  0.59170  0.70140  Biso   1.000  C
  H248     1.0000 0.39510  0.60830  0.73470  Biso   1.000  H
  H249     1.0000 0.41200  0.60860  0.65770  Biso   1.000  H
  H250     1.0000 0.37700  0.56080  0.69410  Biso   1.000  H
  H251     1.0000 0.45740  0.50890  0.02800  Biso   1.000  H
  H252     1.0000 0.39710  0.53890  0.19100  Biso   1.000  H
  H253     1.0000 0.36700  0.55800  0.99500  Biso   1.000  H
  H254     1.0000 0.57620  0.66090  0.85800  Biso   1.000  H
  H255     1.0000 0.64550  0.78830  0.76500  Biso   1.000  H
  H256     1.0000 0.58990  0.66970  0.64700  Biso   1.000  H
  C352     1.0000 0.62892  0.76162  0.63020  Biso   1.000  C
  O223     1.0000 0.62299  0.74264  0.57197  Biso   1.000  O
  O224     1.0000 0.63877  0.80436  0.63448  Biso   1.000  O
  Co33     1.0000 0.13642  0.85181  0.14045  Biso   1.000  Co
  Co34     1.0000 0.12759  0.81595  0.65908  Biso   1.000  Co
  O225     1.0000 0.11414  0.85322  0.23942  Biso   1.000  O
  O226     1.0000 0.06295  0.87743  0.22203  Biso   1.000  O
  O227     1.0000 0.16045  0.84520  0.48627  Biso   1.000  O
  O228     1.0000 0.10372  0.82658  0.56673  Biso   1.000  O
  O229     1.0000 0.00266  0.92583  0.41673  Biso   1.000  O
  O230     1.0000 0.00680  0.90383  0.52423  Biso   1.000  O
  O231     1.0000 0.19592  0.91624  0.13461  Biso   1.000  O
  O232     1.0000 0.22525  0.91983  0.02704  Biso   1.000  O
  O233     1.0000 0.32220  0.12762  0.23049  Biso   1.000  O
  O234     1.0000 0.27350  0.06063  0.28024  Biso   1.000  O
  O235     1.0000 0.09595  0.88175  0.10088  Biso   1.000  O
  O236     1.0000 0.14655  0.88492  0.68942  Biso   1.000  O
  C353     1.0000 0.07862  0.86603  0.33783  Biso   1.000  C
  C354     1.0000 0.10234  0.85299  0.38473  Biso   1.000  C
  C355     1.0000 0.09576  0.85432  0.45663  Biso   1.000  C
  C356     1.0000 0.06604  0.86999  0.48143  Biso   1.000  C
  C357     1.0000 0.04346  0.88507  0.43523  Biso   1.000  C
  C358     1.0000 0.04937  0.88233  0.36363  Biso   1.000  C
  C359     1.0000 0.08553  0.86533  0.25993  Biso   1.000  C
  C360     1.0000 0.01513  0.90653  0.46063  Biso   1.000  C
  C361     1.0000 0.12210  0.84083  0.50743  Biso   1.000  C
  C362     1.0000 0.24668  0.99062  0.08523  Biso   1.000  C
  C363     1.0000 0.25480  0.01256  0.15043  Biso   1.000  C
  C364     1.0000 0.28147  0.06143  0.15563  Biso   1.000  C
  C365     1.0000 0.29585  0.08847  0.09473  Biso   1.000  C
  C366     1.0000 0.28577  0.06683  0.02923  Biso   1.000  C
  C367     1.0000 0.26283  0.01769  0.02536  Biso   1.000  C
  C368     1.0000 0.22005  0.93758  0.08167  Biso   1.000  C
  C369     1.0000 0.29280  0.08434  0.22586  Biso   1.000  C
  C370     1.0000 0.15297  0.92533  0.64973  Biso   1.000  C
  H257     1.0000 0.13227  0.91453  0.60923  Biso   1.000  H
  H258     1.0000 0.14417  0.94403  0.67863  Biso   1.000  H
  C371     1.0000 0.20077  0.95423  0.62663  Biso   1.000  C
  H259     1.0000 0.21827  0.97753  0.66163  Biso   1.000  H
  H260     1.0000 0.20117  0.96943  0.58343  Biso   1.000  H
  H261     1.0000 0.21477  0.93493  0.61943  Biso   1.000  H
  C372     1.0000 0.10927  0.92143  0.06103  Biso   1.000  C
  H262     1.0000 0.12897  0.94893  0.08923  Biso   1.000  H
  H263     1.0000 0.12797  0.92123  0.02183  Biso   1.000  H
  C373     1.0000 0.07007  0.92503  0.03473  Biso   1.000  C
  H264     1.0000 0.06177  0.94163  0.06803  Biso   1.000  H
  H265     1.0000 0.07867  0.94193  0.99103  Biso   1.000  H
  H266     1.0000 0.04367  0.89413  0.02743  Biso   1.000  H
  H267     1.0000 0.12407  0.84223  0.36133  Biso   1.000  H
  H268     1.0000 0.06377  0.87223  0.52433  Biso   1.000  H
  H269     1.0000 0.03367  0.89133  0.32833  Biso   1.000  H
  H270     1.0000 0.24287  0.99423  0.19133  Biso   1.000  H
  H271     1.0000 0.31217  0.12163  0.09833  Biso   1.000  H
  H272     1.0000 0.25657  0.00303  0.98033  Biso   1.000  H
  C374     1.0000 0.29559  0.09495  0.96353  Biso   1.000  C
  O237     1.0000 0.28966  0.07597  0.90530  Biso   1.000  O
  O238     1.0000 0.30544  0.13769  0.96781  Biso   1.000  O
  Co35     1.0000 0.80309  0.18514  0.47379  Biso   1.000  Co
  Co36     1.0000 0.79425  0.14929  0.99242  Biso   1.000  Co
  O239     1.0000 0.78080  0.18656  0.57276  Biso   1.000  O
  O240     1.0000 0.72961  0.21077  0.55537  Biso   1.000  O
  O241     1.0000 0.82711  0.17854  0.81961  Biso   1.000  O
  O242     1.0000 0.77038  0.15992  0.90007  Biso   1.000  O
  O243     1.0000 0.66932  0.25917  0.75007  Biso   1.000  O
  O244     1.0000 0.67346  0.23717  0.85757  Biso   1.000  O
  O245     1.0000 0.86258  0.24958  0.46795  Biso   1.000  O
  O246     1.0000 0.89191  0.25317  0.36038  Biso   1.000  O
  O247     1.0000 0.98886  0.46096  0.56383  Biso   1.000  O
  O248     1.0000 0.94016  0.39397  0.61358  Biso   1.000  O
  O249     1.0000 0.76261  0.21509  0.43422  Biso   1.000  O
  O250     1.0000 0.81321  0.21826  0.02276  Biso   1.000  O
  C375     1.0000 0.74528  0.19937  0.67117  Biso   1.000  C
  C376     1.0000 0.76900  0.18633  0.71807  Biso   1.000  C
  C377     1.0000 0.76242  0.18766  0.78997  Biso   1.000  C
  C378     1.0000 0.73270  0.20333  0.81477  Biso   1.000  C
  C379     1.0000 0.71012  0.21841  0.76857  Biso   1.000  C
  C380     1.0000 0.71603  0.21567  0.69697  Biso   1.000  C
  C381     1.0000 0.75219  0.19867  0.59327  Biso   1.000  C
  C382     1.0000 0.68179  0.23987  0.79397  Biso   1.000  C
  C383     1.0000 0.78876  0.17417  0.84077  Biso   1.000  C
  C384     1.0000 0.91334  0.32396  0.41857  Biso   1.000  C
  C385     1.0000 0.92146  0.34590  0.48377  Biso   1.000  C
  C386     1.0000 0.94813  0.39477  0.48897  Biso   1.000  C
  C387     1.0000 0.96251  0.42181  0.42807  Biso   1.000  C
  C388     1.0000 0.95243  0.40017  0.36257  Biso   1.000  C
  C389     1.0000 0.92949  0.35103  0.35870  Biso   1.000  C
  C390     1.0000 0.88671  0.27092  0.41501  Biso   1.000  C
  C391     1.0000 0.95946  0.41768  0.55920  Biso   1.000  C
  C392     1.0000 0.81963  0.25867  0.98307  Biso   1.000  C
  H273     1.0000 0.79893  0.24787  0.94257  Biso   1.000  H
  H274     1.0000 0.81083  0.27737  0.01197  Biso   1.000  H
  C393     1.0000 0.86743  0.28757  0.95997  Biso   1.000  C
  H275     1.0000 0.88493  0.31087  0.99497  Biso   1.000  H
  H276     1.0000 0.86783  0.30277  0.91677  Biso   1.000  H
  H277     1.0000 0.88143  0.26827  0.95277  Biso   1.000  H
  C394     1.0000 0.77593  0.25477  0.39437  Biso   1.000  C
  H278     1.0000 0.79563  0.28227  0.42257  Biso   1.000  H
  H279     1.0000 0.79463  0.25457  0.35517  Biso   1.000  H
  C395     1.0000 0.73673  0.25837  0.36807  Biso   1.000  C
  H280     1.0000 0.72843  0.27497  0.40137  Biso   1.000  H
  H281     1.0000 0.74533  0.27527  0.32437  Biso   1.000  H
  H282     1.0000 0.71033  0.22747  0.36077  Biso   1.000  H
  H283     1.0000 0.79073  0.17557  0.69467  Biso   1.000  H
  H284     1.0000 0.73043  0.20557  0.85767  Biso   1.000  H
  H285     1.0000 0.70033  0.22467  0.66167  Biso   1.000  H
  H286     1.0000 0.90953  0.32757  0.52467  Biso   1.000  H
  H287     1.0000 0.97883  0.45497  0.43167  Biso   1.000  H
  H288     1.0000 0.92323  0.33637  0.31367  Biso   1.000  H
  C396     1.0000 0.96225  0.42829  0.29687  Biso   1.000  C
  O251     1.0000 0.95632  0.40931  0.23864  Biso   1.000  O
  O252     1.0000 0.97210  0.47103  0.30115  Biso   1.000  O
