data_image0
_cell_length_a       20.014
_cell_length_b       37.956
_cell_length_c       25.085
_cell_angle_alpha    90
_cell_angle_beta     109.384
_cell_angle_gamma    90

_symmetry_space_group_name_H-M    "P 1"
_symmetry_int_tables_number       1

loop_
  _symmetry_equiv_pos_as_xyz
  'x, y, z'

loop_
  _atom_site_label
  _atom_site_occupancy
  _atom_site_fract_x
  _atom_site_fract_y
  _atom_site_fract_z
  _atom_site_thermal_displace_type
  _atom_site_B_iso_or_equiv
  _atom_site_type_symbol
  Cu1      1.0000 0.53865  0.12826  0.33196  Biso   1.000  Cu
  Cu2      1.0000 0.55307  0.97457  0.36768  Biso   1.000  Cu
  Cu3      1.0000 0.09300  0.25492  0.49668  Biso   1.000  Cu
  Cu4      1.0000 0.79502  0.21825  0.38115  Biso   1.000  Cu
  Cu5      1.0000 0.00634  0.32893  0.43232  Biso   1.000  Cu
  Cu6      1.0000 0.31690  0.20605  0.38771  Biso   1.000  Cu
  Cu7      1.0000 0.15240  0.33112  0.41289  Biso   1.000  Cu
  Cu8      1.0000 0.60893  0.09461  0.24641  Biso   1.000  Cu
  Cl1      1.0000 0.12511  0.31878  0.50799  Biso   1.000  Cl
  N1       1.0000 0.55012  0.07755  0.32777  Biso   1.000  N
  N2       1.0000 0.55340  0.01956  0.33808  Biso   1.000  N
  N3       1.0000 0.59146  0.06399  0.29842  Biso   1.000  N
  N4       1.0000 0.27897  0.20438  0.58386  Biso   1.000  N
  N5       1.0000 0.22367  0.25427  0.58871  Biso   1.000  N
  N6       1.0000 0.18237  0.23589  0.54165  Biso   1.000  N
  N7       1.0000 0.99482  0.25465  0.45217  Biso   1.000  N
  N8       1.0000 0.95906  0.28523  0.42782  Biso   1.000  N
  N9       1.0000 0.88142  0.24169  0.41105  Biso   1.000  N
  N10      1.0000 0.53355  0.87367  0.41139  Biso   1.000  N
  N11      1.0000 0.59514  0.87236  0.39774  Biso   1.000  N
  N12      1.0000 0.56071  0.92786  0.39313  Biso   1.000  N
  N13      1.0000 0.38568  0.13066  0.30225  Biso   1.000  N
  N14      1.0000 0.44753  0.14824  0.33091  Biso   1.000  N
  N15      1.0000 0.35886  0.17459  0.34936  Biso   1.000  N
  N16      1.0000 0.70591  0.19760  0.35084  Biso   1.000  N
  N17      1.0000 0.61398  0.16198  0.33571  Biso   1.000  N
  N18      1.0000 0.59319  0.19055  0.29998  Biso   1.000  N
  N19      1.0000 0.67560  0.37580  0.30510  Biso   1.000  N
  H1       1.0000 0.68170  0.39230  0.28360  Biso   1.000  H
  H2       1.0000 0.63690  0.37480  0.31290  Biso   1.000  H
  N20      1.0000 0.63170  0.33283  0.17660  Biso   1.000  N
  H3       1.0000 0.59630  0.34690  0.17050  Biso   1.000  H
  H4       1.0000 0.66290  0.33660  0.16060  Biso   1.000  H
  N21      1.0000 0.32480  0.08512  0.45380  Biso   1.000  N
  H5       1.0000 0.33330  0.10210  0.47780  Biso   1.000  H
  H6       1.0000 0.28550  0.07380  0.44530  Biso   1.000  H
  N22      1.0000 0.74150  0.94861  0.19170  Biso   1.000  N
  H7       1.0000 0.72400  0.92910  0.17560  Biso   1.000  H
  H8       1.0000 0.78100  0.95620  0.18960  Biso   1.000  H
  N23      1.0000 0.64550  0.27249  0.46150  Biso   1.000  N
  H9       1.0000 0.68450  0.26570  0.48630  Biso   1.000  H
  H10      1.0000 0.64030  0.29410  0.45070  Biso   1.000  H
  N24      1.0000 0.07660  0.09369  0.39890  Biso   1.000  N
  H11      1.0000 0.08290  0.07250  0.41190  Biso   1.000  H
  H12      1.0000 0.04670  0.09770  0.36590  Biso   1.000  H
  N25      1.0000 0.00910  0.08704  0.50960  Biso   1.000  N
  H13      1.0000 0.04140  0.08240  0.54120  Biso   1.000  H
  H14      1.0000 0.98720  0.07020  0.48780  Biso   1.000  H
  N26      1.0000 0.47820  0.27397  0.82545  Biso   1.000  N
  H15      1.0000 0.48360  0.29570  0.83550  Biso   1.000  H
  H16      1.0000 0.50270  0.25790  0.84770  Biso   1.000  H
  N27      1.0000 0.85190  0.07688  0.53890  Biso   1.000  N
  H17      1.0000 0.87220  0.08520  0.57230  Biso   1.000  H
  H18      1.0000 0.85680  0.05500  0.53210  Biso   1.000  H
  N28      1.0000 0.86660  0.94291  0.35560  Biso   1.000  N
  H19      1.0000 0.88410  0.92990  0.33550  Biso   1.000  H
  H20      1.0000 0.88940  0.96110  0.37270  Biso   1.000  H
  N29      1.0000 0.29470  0.96467  0.47630  Biso   1.000  N
  H21      1.0000 0.29570  0.98670  0.48460  Biso   1.000  H
  H22      1.0000 0.25970  0.95180  0.47700  Biso   1.000  H
  N30      1.0000 0.06790  0.08070  0.21880  Biso   1.000  N
  H23      1.0000 0.05370  0.07470  0.18380  Biso   1.000  H
  H24      1.0000 0.04240  0.07580  0.23950  Biso   1.000  H
  C1       1.0000 0.21649  0.20606  0.54039  Biso   1.000  C
  C2       1.0000 0.14220  0.18353  0.44551  Biso   1.000  C
  H25      1.0000 0.13590  0.20640  0.43140  Biso   1.000  H
  C3       1.0000 0.11470  0.12147  0.43160  Biso   1.000  C
  C4       1.0000 0.16220  0.11498  0.48430  Biso   1.000  C
  H26      1.0000 0.17140  0.09190  0.49710  Biso   1.000  H
  C5       1.0000 0.18673  0.17743  0.50038  Biso   1.000  C
  C6       1.0000 0.19710  0.14267  0.51906  Biso   1.000  C
  H27      1.0000 0.22770  0.13780  0.55530  Biso   1.000  H
  C7       1.0000 0.10690  0.15587  0.41130  Biso   1.000  C
  H28      1.0000 0.07780  0.16040  0.37450  Biso   1.000  H
  C8       1.0000 0.28098  0.23462  0.61307  Biso   1.000  C
  C9       1.0000 0.33520  0.24498  0.66641  Biso   1.000  C
  C10      1.0000 0.37570  0.21980  0.70420  Biso   1.000  C
  H29      1.0000 0.37120  0.19610  0.69410  Biso   1.000  H
  C11      1.0000 0.42240  0.22975  0.75630  Biso   1.000  C
  H30      1.0000 0.44930  0.21260  0.78050  Biso   1.000  H
  C12      1.0000 0.34320  0.28015  0.68390  Biso   1.000  C
  H31      1.0000 0.31680  0.29750  0.65980  Biso   1.000  H
  C13      1.0000 0.42980  0.26468  0.77310  Biso   1.000  C
  C14      1.0000 0.38960  0.28976  0.73640  Biso   1.000  C
  H32      1.0000 0.39380  0.31330  0.74700  Biso   1.000  H
  C15      1.0000 0.60996  0.90500  0.38748  Biso   1.000  C
  C16      1.0000 0.67400  0.91539  0.37586  Biso   1.000  C
  C17      1.0000 0.70140  0.89592  0.34180  Biso   1.000  C
  H33      1.0000 0.67750  0.87590  0.32380  Biso   1.000  H
  C18      1.0000 0.76450  0.90564  0.33390  Biso   1.000  C
  H34      1.0000 0.78170  0.89240  0.31020  Biso   1.000  H
  C19      1.0000 0.71130  0.94517  0.40210  Biso   1.000  C
  H35      1.0000 0.69350  0.95900  0.42490  Biso   1.000  H
  C20      1.0000 0.80140  0.93445  0.36070  Biso   1.000  C
  C21      1.0000 0.77410  0.95454  0.39480  Biso   1.000  C
  H36      1.0000 0.79840  0.97440  0.41290  Biso   1.000  H
  C22      1.0000 0.51493  0.90737  0.40922  Biso   1.000  C
  C23      1.0000 0.45740  0.95670  0.44260  Biso   1.000  C
  H37      1.0000 0.49440  0.97130  0.44190  Biso   1.000  H
  C24      1.0000 0.40480  0.97014  0.46020  Biso   1.000  C
  H38      1.0000 0.40720  0.99360  0.47140  Biso   1.000  H
  C25      1.0000 0.45660  0.92145  0.42574  Biso   1.000  C
  C26      1.0000 0.40190  0.90080  0.43020  Biso   1.000  C
  H39      1.0000 0.40100  0.87700  0.42120  Biso   1.000  H
  C27      1.0000 0.34920  0.91423  0.44740  Biso   1.000  C
  H40      1.0000 0.31310  0.89960  0.44980  Biso   1.000  H
  C28      1.0000 0.34900  0.95009  0.46160  Biso   1.000  C
  C29      1.0000 0.72524  0.14306  0.41061  Biso   1.000  C
  C30      1.0000 0.76120  0.15571  0.46400  Biso   1.000  C
  H41      1.0000 0.75710  0.17940  0.47200  Biso   1.000  H
  C31      1.0000 0.73170  0.10786  0.40080  Biso   1.000  C
  H42      1.0000 0.70690  0.09840  0.36560  Biso   1.000  H
  C32      1.0000 0.68172  0.16685  0.36582  Biso   1.000  C
  C33      1.0000 0.80330  0.13379  0.50620  Biso   1.000  C
  H43      1.0000 0.82640  0.14290  0.54200  Biso   1.000  H
  C34      1.0000 0.77490  0.08608  0.44290  Biso   1.000  C
  H44      1.0000 0.77930  0.06240  0.43510  Biso   1.000  H
  C35      1.0000 0.81110  0.09902  0.49550  Biso   1.000  C
  C36      1.0000 0.64844  0.24420  0.27895  Biso   1.000  C
  C37      1.0000 0.69940  0.25122  0.25416  Biso   1.000  C
  H45      1.0000 0.73710  0.23570  0.25960  Biso   1.000  H
  C38      1.0000 0.69480  0.28078  0.22170  Biso   1.000  C
  H46      1.0000 0.73000  0.28530  0.20600  Biso   1.000  H
  C39      1.0000 0.59340  0.26824  0.27086  Biso   1.000  C
  H47      1.0000 0.55940  0.26430  0.28800  Biso   1.000  H
  C40      1.0000 0.64922  0.21131  0.30991  Biso   1.000  C
  C41      1.0000 0.63830  0.30409  0.21197  Biso   1.000  C
  C42      1.0000 0.58870  0.29744  0.23819  Biso   1.000  C
  H48      1.0000 0.55160  0.31320  0.23340  Biso   1.000  H
  C43      1.0000 0.59299  0.02938  0.30547  Biso   1.000  C
  C44      1.0000 0.63330  0.00662  0.27999  Biso   1.000  C
  C45      1.0000 0.60640  0.97464  0.25413  Biso   1.000  C
  H49      1.0000 0.56410  0.96600  0.25660  Biso   1.000  H
  C46      1.0000 0.70570  0.96788  0.22140  Biso   1.000  C
  C47      1.0000 0.69790  0.01808  0.27710  Biso   1.000  C
  H50      1.0000 0.71700  0.03910  0.29460  Biso   1.000  H
  C48      1.0000 0.64200  0.95575  0.22500  Biso   1.000  C
  H51      1.0000 0.62310  0.93470  0.20760  Biso   1.000  H
  C49      1.0000 0.73410  0.99926  0.24920  Biso   1.000  C
  H52      1.0000 0.77770  0.00730  0.24860  Biso   1.000  H
  C50      1.0000 0.41440  0.03805  0.36800  Biso   1.000  C
  H53      1.0000 0.40610  0.01900  0.34320  Biso   1.000  H
  C51      1.0000 0.43800  0.09405  0.44198  Biso   1.000  C
  H54      1.0000 0.44630  0.11310  0.46650  Biso   1.000  H
  C52      1.0000 0.47790  0.05615  0.38114  Biso   1.000  C
  C53      1.0000 0.52742  0.05063  0.35043  Biso   1.000  C
  C54      1.0000 0.48900  0.08429  0.41957  Biso   1.000  C
  H55      1.0000 0.53180  0.09650  0.42990  Biso   1.000  H
  C55      1.0000 0.37450  0.07608  0.42880  Biso   1.000  C
  C56      1.0000 0.36320  0.04766  0.39080  Biso   1.000  C
  H56      1.0000 0.32080  0.03520  0.38100  Biso   1.000  H
  C57      1.0000 0.96180  0.19244  0.45944  Biso   1.000  C
  C58      1.0000 0.01250  0.18391  0.51115  Biso   1.000  C
  H57      1.0000 0.03720  0.20190  0.53470  Biso   1.000  H
  C59      1.0000 0.92630  0.16467  0.42510  Biso   1.000  C
  H58      1.0000 0.89200  0.16950  0.39040  Biso   1.000  H
  C60      1.0000 0.94170  0.13011  0.44190  Biso   1.000  C
  H59      1.0000 0.91770  0.11200  0.41830  Biso   1.000  H
  C61      1.0000 0.94680  0.22912  0.44171  Biso   1.000  C
  C62      1.0000 0.02700  0.14928  0.52814  Biso   1.000  C
  H60      1.0000 0.06050  0.14430  0.56320  Biso   1.000  H
  C63      1.0000 0.99220  0.12186  0.49350  Biso   1.000  C
  C64      1.0000 0.89180  0.27642  0.40382  Biso   1.000  C
  C65      1.0000 0.77050  0.30004  0.38537  Biso   1.000  C
  H61      1.0000 0.76270  0.28240  0.40840  Biso   1.000  H
  C66      1.0000 0.71800  0.32441  0.36170  Biso   1.000  C
  H62      1.0000 0.67550  0.32310  0.36900  Biso   1.000  H
  C67      1.0000 0.72800  0.35090  0.32710  Biso   1.000  C
  C68      1.0000 0.79060  0.35173  0.31560  Biso   1.000  C
  H63      1.0000 0.79730  0.36890  0.29150  Biso   1.000  H
  C69      1.0000 0.84360  0.32746  0.33912  Biso   1.000  C
  H64      1.0000 0.88550  0.32850  0.33070  Biso   1.000  H
  C70      1.0000 0.83489  0.30130  0.37546  Biso   1.000  C
  C71      1.0000 0.33383  0.14706  0.31374  Biso   1.000  C
  C72      1.0000 0.26076  0.13408  0.28937  Biso   1.000  C
  C73      1.0000 0.23680  0.12445  0.23360  Biso   1.000  C
  H65      1.0000 0.26370  0.13010  0.21090  Biso   1.000  H
  C74      1.0000 0.21950  0.12705  0.32260  Biso   1.000  C
  H66      1.0000 0.23440  0.13400  0.36020  Biso   1.000  H
  C75      1.0000 0.17360  0.10645  0.21000  Biso   1.000  C
  H67      1.0000 0.15900  0.09980  0.17220  Biso   1.000  H
  C76      1.0000 0.13310  0.09860  0.24250  Biso   1.000  C
  C77      1.0000 0.15560  0.10940  0.29920  Biso   1.000  C
  H68      1.0000 0.12740  0.10480  0.32130  Biso   1.000  H
  C78      1.0000 0.48230  0.20002  0.39056  Biso   1.000  C
  C79      1.0000 0.47440  0.23541  0.37543  Biso   1.000  C
  H69      1.0000 0.43220  0.24310  0.34900  Biso   1.000  H
  C80      1.0000 0.52790  0.25933  0.39890  Biso   1.000  C
  H70      1.0000 0.52200  0.28290  0.38800  Biso   1.000  H
  C81      1.0000 0.59800  0.21359  0.45580  Biso   1.000  C
  H71      1.0000 0.63930  0.20630  0.48370  Biso   1.000  H
  C82      1.0000 0.59020  0.24829  0.43880  Biso   1.000  C
  C83      1.0000 0.42948  0.17422  0.35828  Biso   1.000  C
  C84      1.0000 0.54450  0.18936  0.43160  Biso   1.000  C
  H72      1.0000 0.55040  0.16590  0.44300  Biso   1.000  H
  Cu9      1.0000 0.03865  0.62826  0.33196  Biso   1.000  Cu
  Cu10     1.0000 0.05307  0.47457  0.36768  Biso   1.000  Cu
  Cu11     1.0000 0.59300  0.75492  0.49668  Biso   1.000  Cu
  Cu12     1.0000 0.29502  0.71825  0.38115  Biso   1.000  Cu
  Cu13     1.0000 0.50634  0.82893  0.43232  Biso   1.000  Cu
  Cu14     1.0000 0.81690  0.70605  0.38771  Biso   1.000  Cu
  Cu15     1.0000 0.65240  0.83112  0.41289  Biso   1.000  Cu
  Cu16     1.0000 0.10893  0.59461  0.24641  Biso   1.000  Cu
  Cl2      1.0000 0.62511  0.81878  0.50799  Biso   1.000  Cl
  N31      1.0000 0.05012  0.57755  0.32777  Biso   1.000  N
  N32      1.0000 0.05340  0.51956  0.33808  Biso   1.000  N
  N33      1.0000 0.09146  0.56399  0.29842  Biso   1.000  N
  N34      1.0000 0.77897  0.70438  0.58386  Biso   1.000  N
  N35      1.0000 0.72367  0.75427  0.58871  Biso   1.000  N
  N36      1.0000 0.68237  0.73589  0.54165  Biso   1.000  N
  N37      1.0000 0.49482  0.75465  0.45217  Biso   1.000  N
  N38      1.0000 0.45906  0.78523  0.42782  Biso   1.000  N
  N39      1.0000 0.38142  0.74169  0.41105  Biso   1.000  N
  N40      1.0000 0.03355  0.37367  0.41139  Biso   1.000  N
  N41      1.0000 0.09514  0.37236  0.39774  Biso   1.000  N
  N42      1.0000 0.06071  0.42786  0.39313  Biso   1.000  N
  N43      1.0000 0.88568  0.63066  0.30225  Biso   1.000  N
  N44      1.0000 0.94753  0.64824  0.33091  Biso   1.000  N
  N45      1.0000 0.85886  0.67459  0.34936  Biso   1.000  N
  N46      1.0000 0.20591  0.69760  0.35084  Biso   1.000  N
  N47      1.0000 0.11398  0.66198  0.33571  Biso   1.000  N
  N48      1.0000 0.09319  0.69055  0.29998  Biso   1.000  N
  N49      1.0000 0.17560  0.87580  0.30510  Biso   1.000  N
  H73      1.0000 0.18170  0.89230  0.28360  Biso   1.000  H
  H74      1.0000 0.13690  0.87480  0.31290  Biso   1.000  H
  N50      1.0000 0.13170  0.83283  0.17660  Biso   1.000  N
  H75      1.0000 0.09630  0.84690  0.17050  Biso   1.000  H
  H76      1.0000 0.16290  0.83660  0.16060  Biso   1.000  H
  N51      1.0000 0.82480  0.58512  0.45380  Biso   1.000  N
  H77      1.0000 0.83330  0.60210  0.47780  Biso   1.000  H
  H78      1.0000 0.78550  0.57380  0.44530  Biso   1.000  H
  N52      1.0000 0.24150  0.44861  0.19170  Biso   1.000  N
  H79      1.0000 0.22400  0.42910  0.17560  Biso   1.000  H
  H80      1.0000 0.28100  0.45620  0.18960  Biso   1.000  H
  N53      1.0000 0.14550  0.77249  0.46150  Biso   1.000  N
  H81      1.0000 0.18450  0.76570  0.48630  Biso   1.000  H
  H82      1.0000 0.14030  0.79410  0.45070  Biso   1.000  H
  N54      1.0000 0.57660  0.59369  0.39890  Biso   1.000  N
  H83      1.0000 0.58290  0.57250  0.41190  Biso   1.000  H
  H84      1.0000 0.54670  0.59770  0.36590  Biso   1.000  H
  N55      1.0000 0.50910  0.58704  0.50960  Biso   1.000  N
  H85      1.0000 0.54140  0.58240  0.54120  Biso   1.000  H
  H86      1.0000 0.48720  0.57020  0.48780  Biso   1.000  H
  N56      1.0000 0.97820  0.77397  0.82545  Biso   1.000  N
  H87      1.0000 0.98360  0.79570  0.83550  Biso   1.000  H
  H88      1.0000 0.00270  0.75790  0.84770  Biso   1.000  H
  N57      1.0000 0.35190  0.57688  0.53890  Biso   1.000  N
  H89      1.0000 0.37220  0.58520  0.57230  Biso   1.000  H
  H90      1.0000 0.35680  0.55500  0.53210  Biso   1.000  H
  N58      1.0000 0.36660  0.44291  0.35560  Biso   1.000  N
  H91      1.0000 0.38410  0.42990  0.33550  Biso   1.000  H
  H92      1.0000 0.38940  0.46110  0.37270  Biso   1.000  H
  N59      1.0000 0.79470  0.46467  0.47630  Biso   1.000  N
  H93      1.0000 0.79570  0.48670  0.48460  Biso   1.000  H
  H94      1.0000 0.75970  0.45180  0.47700  Biso   1.000  H
  N60      1.0000 0.56790  0.58070  0.21880  Biso   1.000  N
  H95      1.0000 0.55370  0.57470  0.18380  Biso   1.000  H
  H96      1.0000 0.54240  0.57580  0.23950  Biso   1.000  H
  C85      1.0000 0.71649  0.70606  0.54039  Biso   1.000  C
  C86      1.0000 0.64220  0.68353  0.44551  Biso   1.000  C
  H97      1.0000 0.63590  0.70640  0.43140  Biso   1.000  H
  C87      1.0000 0.61470  0.62147  0.43160  Biso   1.000  C
  C88      1.0000 0.66220  0.61498  0.48430  Biso   1.000  C
  H98      1.0000 0.67140  0.59190  0.49710  Biso   1.000  H
  C89      1.0000 0.68673  0.67743  0.50038  Biso   1.000  C
  C90      1.0000 0.69710  0.64267  0.51906  Biso   1.000  C
  H99      1.0000 0.72770  0.63780  0.55530  Biso   1.000  H
  C91      1.0000 0.60690  0.65587  0.41130  Biso   1.000  C
  H100     1.0000 0.57780  0.66040  0.37450  Biso   1.000  H
  C92      1.0000 0.78098  0.73462  0.61307  Biso   1.000  C
  C93      1.0000 0.83520  0.74498  0.66641  Biso   1.000  C
  C94      1.0000 0.87570  0.71980  0.70420  Biso   1.000  C
  H101     1.0000 0.87120  0.69610  0.69410  Biso   1.000  H
  C95      1.0000 0.92240  0.72975  0.75630  Biso   1.000  C
  H102     1.0000 0.94930  0.71260  0.78050  Biso   1.000  H
  C96      1.0000 0.84320  0.78015  0.68390  Biso   1.000  C
  H103     1.0000 0.81680  0.79750  0.65980  Biso   1.000  H
  C97      1.0000 0.92980  0.76468  0.77310  Biso   1.000  C
  C98      1.0000 0.88960  0.78976  0.73640  Biso   1.000  C
  H104     1.0000 0.89380  0.81330  0.74700  Biso   1.000  H
  C99      1.0000 0.10996  0.40500  0.38748  Biso   1.000  C
  C100     1.0000 0.17400  0.41539  0.37586  Biso   1.000  C
  C101     1.0000 0.20140  0.39592  0.34180  Biso   1.000  C
  H105     1.0000 0.17750  0.37590  0.32380  Biso   1.000  H
  C102     1.0000 0.26450  0.40564  0.33390  Biso   1.000  C
  H106     1.0000 0.28170  0.39240  0.31020  Biso   1.000  H
  C103     1.0000 0.21130  0.44517  0.40210  Biso   1.000  C
  H107     1.0000 0.19350  0.45900  0.42490  Biso   1.000  H
  C104     1.0000 0.30140  0.43445  0.36070  Biso   1.000  C
  C105     1.0000 0.27410  0.45454  0.39480  Biso   1.000  C
  H108     1.0000 0.29840  0.47440  0.41290  Biso   1.000  H
  C106     1.0000 0.01493  0.40737  0.40922  Biso   1.000  C
  C107     1.0000 0.95740  0.45670  0.44260  Biso   1.000  C
  H109     1.0000 0.99440  0.47130  0.44190  Biso   1.000  H
  C108     1.0000 0.90480  0.47014  0.46020  Biso   1.000  C
  H110     1.0000 0.90720  0.49360  0.47140  Biso   1.000  H
  C109     1.0000 0.95660  0.42145  0.42574  Biso   1.000  C
  C110     1.0000 0.90190  0.40080  0.43020  Biso   1.000  C
  H111     1.0000 0.90100  0.37700  0.42120  Biso   1.000  H
  C111     1.0000 0.84920  0.41423  0.44740  Biso   1.000  C
  H112     1.0000 0.81310  0.39960  0.44980  Biso   1.000  H
  C112     1.0000 0.84900  0.45009  0.46160  Biso   1.000  C
  C113     1.0000 0.22524  0.64306  0.41061  Biso   1.000  C
  C114     1.0000 0.26120  0.65571  0.46400  Biso   1.000  C
  H113     1.0000 0.25710  0.67940  0.47200  Biso   1.000  H
  C115     1.0000 0.23170  0.60786  0.40080  Biso   1.000  C
  H114     1.0000 0.20690  0.59840  0.36560  Biso   1.000  H
  C116     1.0000 0.18172  0.66685  0.36582  Biso   1.000  C
  C117     1.0000 0.30330  0.63379  0.50620  Biso   1.000  C
  H115     1.0000 0.32640  0.64290  0.54200  Biso   1.000  H
  C118     1.0000 0.27490  0.58608  0.44290  Biso   1.000  C
  H116     1.0000 0.27930  0.56240  0.43510  Biso   1.000  H
  C119     1.0000 0.31110  0.59902  0.49550  Biso   1.000  C
  C120     1.0000 0.14844  0.74420  0.27895  Biso   1.000  C
  C121     1.0000 0.19940  0.75122  0.25416  Biso   1.000  C
  H117     1.0000 0.23710  0.73570  0.25960  Biso   1.000  H
  C122     1.0000 0.19480  0.78078  0.22170  Biso   1.000  C
  H118     1.0000 0.23000  0.78530  0.20600  Biso   1.000  H
  C123     1.0000 0.09340  0.76824  0.27086  Biso   1.000  C
  H119     1.0000 0.05940  0.76430  0.28800  Biso   1.000  H
  C124     1.0000 0.14922  0.71131  0.30991  Biso   1.000  C
  C125     1.0000 0.13830  0.80409  0.21197  Biso   1.000  C
  C126     1.0000 0.08870  0.79744  0.23819  Biso   1.000  C
  H120     1.0000 0.05160  0.81320  0.23340  Biso   1.000  H
  C127     1.0000 0.09299  0.52938  0.30547  Biso   1.000  C
  C128     1.0000 0.13330  0.50662  0.27999  Biso   1.000  C
  C129     1.0000 0.10640  0.47464  0.25413  Biso   1.000  C
  H121     1.0000 0.06410  0.46600  0.25660  Biso   1.000  H
  C130     1.0000 0.20570  0.46788  0.22140  Biso   1.000  C
  C131     1.0000 0.19790  0.51808  0.27710  Biso   1.000  C
  H122     1.0000 0.21700  0.53910  0.29460  Biso   1.000  H
  C132     1.0000 0.14200  0.45575  0.22500  Biso   1.000  C
  H123     1.0000 0.12310  0.43470  0.20760  Biso   1.000  H
  C133     1.0000 0.23410  0.49926  0.24920  Biso   1.000  C
  H124     1.0000 0.27770  0.50730  0.24860  Biso   1.000  H
  C134     1.0000 0.91440  0.53805  0.36800  Biso   1.000  C
  H125     1.0000 0.90610  0.51900  0.34320  Biso   1.000  H
  C135     1.0000 0.93800  0.59405  0.44198  Biso   1.000  C
  H126     1.0000 0.94630  0.61310  0.46650  Biso   1.000  H
  C136     1.0000 0.97790  0.55615  0.38114  Biso   1.000  C
  C137     1.0000 0.02742  0.55063  0.35043  Biso   1.000  C
  C138     1.0000 0.98900  0.58429  0.41957  Biso   1.000  C
  H127     1.0000 0.03180  0.59650  0.42990  Biso   1.000  H
  C139     1.0000 0.87450  0.57608  0.42880  Biso   1.000  C
  C140     1.0000 0.86320  0.54766  0.39080  Biso   1.000  C
  H128     1.0000 0.82080  0.53520  0.38100  Biso   1.000  H
  C141     1.0000 0.46180  0.69244  0.45944  Biso   1.000  C
  C142     1.0000 0.51250  0.68391  0.51115  Biso   1.000  C
  H129     1.0000 0.53720  0.70190  0.53470  Biso   1.000  H
  C143     1.0000 0.42630  0.66467  0.42510  Biso   1.000  C
  H130     1.0000 0.39200  0.66950  0.39040  Biso   1.000  H
  C144     1.0000 0.44170  0.63011  0.44190  Biso   1.000  C
  H131     1.0000 0.41770  0.61200  0.41830  Biso   1.000  H
  C145     1.0000 0.44680  0.72912  0.44171  Biso   1.000  C
  C146     1.0000 0.52700  0.64928  0.52814  Biso   1.000  C
  H132     1.0000 0.56050  0.64430  0.56320  Biso   1.000  H
  C147     1.0000 0.49220  0.62186  0.49350  Biso   1.000  C
  C148     1.0000 0.39180  0.77642  0.40382  Biso   1.000  C
  C149     1.0000 0.27050  0.80004  0.38537  Biso   1.000  C
  H133     1.0000 0.26270  0.78240  0.40840  Biso   1.000  H
  C150     1.0000 0.21800  0.82441  0.36170  Biso   1.000  C
  H134     1.0000 0.17550  0.82310  0.36900  Biso   1.000  H
  C151     1.0000 0.22800  0.85090  0.32710  Biso   1.000  C
  C152     1.0000 0.29060  0.85173  0.31560  Biso   1.000  C
  H135     1.0000 0.29730  0.86890  0.29150  Biso   1.000  H
  C153     1.0000 0.34360  0.82746  0.33912  Biso   1.000  C
  H136     1.0000 0.38550  0.82850  0.33070  Biso   1.000  H
  C154     1.0000 0.33489  0.80130  0.37546  Biso   1.000  C
  C155     1.0000 0.83383  0.64706  0.31374  Biso   1.000  C
  C156     1.0000 0.76076  0.63408  0.28937  Biso   1.000  C
  C157     1.0000 0.73680  0.62445  0.23360  Biso   1.000  C
  H137     1.0000 0.76370  0.63010  0.21090  Biso   1.000  H
  C158     1.0000 0.71950  0.62705  0.32260  Biso   1.000  C
  H138     1.0000 0.73440  0.63400  0.36020  Biso   1.000  H
  C159     1.0000 0.67360  0.60645  0.21000  Biso   1.000  C
  H139     1.0000 0.65900  0.59980  0.17220  Biso   1.000  H
  C160     1.0000 0.63310  0.59860  0.24250  Biso   1.000  C
  C161     1.0000 0.65560  0.60940  0.29920  Biso   1.000  C
  H140     1.0000 0.62740  0.60480  0.32130  Biso   1.000  H
  C162     1.0000 0.98230  0.70002  0.39056  Biso   1.000  C
  C163     1.0000 0.97440  0.73541  0.37543  Biso   1.000  C
  H141     1.0000 0.93220  0.74310  0.34900  Biso   1.000  H
  C164     1.0000 0.02790  0.75933  0.39890  Biso   1.000  C
  H142     1.0000 0.02200  0.78290  0.38800  Biso   1.000  H
  C165     1.0000 0.09800  0.71359  0.45580  Biso   1.000  C
  H143     1.0000 0.13930  0.70630  0.48370  Biso   1.000  H
  C166     1.0000 0.09020  0.74829  0.43880  Biso   1.000  C
  C167     1.0000 0.92948  0.67422  0.35828  Biso   1.000  C
  C168     1.0000 0.04450  0.68936  0.43160  Biso   1.000  C
  H144     1.0000 0.05040  0.66590  0.44300  Biso   1.000  H
  Cu17     1.0000 0.46135  0.12826  0.16804  Biso   1.000  Cu
  Cu18     1.0000 0.44693  0.97457  0.13232  Biso   1.000  Cu
  Cu19     1.0000 0.90700  0.25492  0.00332  Biso   1.000  Cu
  Cu20     1.0000 0.20498  0.21825  0.11885  Biso   1.000  Cu
  Cu21     1.0000 0.99366  0.32893  0.06768  Biso   1.000  Cu
  Cu22     1.0000 0.68310  0.20605  0.11229  Biso   1.000  Cu
  Cu23     1.0000 0.84760  0.33112  0.08711  Biso   1.000  Cu
  Cu24     1.0000 0.39107  0.09461  0.25359  Biso   1.000  Cu
  Cl3      1.0000 0.87489  0.31878  0.99201  Biso   1.000  Cl
  N61      1.0000 0.44988  0.07755  0.17223  Biso   1.000  N
  N62      1.0000 0.44660  0.01956  0.16192  Biso   1.000  N
  N63      1.0000 0.40854  0.06399  0.20158  Biso   1.000  N
  N64      1.0000 0.72103  0.20438  0.91614  Biso   1.000  N
  N65      1.0000 0.77633  0.25427  0.91129  Biso   1.000  N
  N66      1.0000 0.81763  0.23589  0.95835  Biso   1.000  N
  N67      1.0000 0.00518  0.25465  0.04783  Biso   1.000  N
  N68      1.0000 0.04094  0.28523  0.07218  Biso   1.000  N
  N69      1.0000 0.11858  0.24169  0.08895  Biso   1.000  N
  N70      1.0000 0.46645  0.87367  0.08861  Biso   1.000  N
  N71      1.0000 0.40486  0.87236  0.10226  Biso   1.000  N
  N72      1.0000 0.43929  0.92786  0.10687  Biso   1.000  N
  N73      1.0000 0.61432  0.13066  0.19775  Biso   1.000  N
  N74      1.0000 0.55247  0.14824  0.16909  Biso   1.000  N
  N75      1.0000 0.64114  0.17459  0.15064  Biso   1.000  N
  N76      1.0000 0.29409  0.19760  0.14916  Biso   1.000  N
  N77      1.0000 0.38602  0.16198  0.16429  Biso   1.000  N
  N78      1.0000 0.40681  0.19055  0.20002  Biso   1.000  N
  N79      1.0000 0.32440  0.37580  0.19490  Biso   1.000  N
  H145     1.0000 0.31830  0.39230  0.21640  Biso   1.000  H
  H146     1.0000 0.36310  0.37480  0.18710  Biso   1.000  H
  N80      1.0000 0.36830  0.33283  0.32340  Biso   1.000  N
  H147     1.0000 0.40370  0.34690  0.32950  Biso   1.000  H
  H148     1.0000 0.33710  0.33660  0.33940  Biso   1.000  H
  N81      1.0000 0.67520  0.08512  0.04620  Biso   1.000  N
  H149     1.0000 0.66670  0.10210  0.02220  Biso   1.000  H
  H150     1.0000 0.71450  0.07380  0.05470  Biso   1.000  H
  N82      1.0000 0.25850  0.94861  0.30830  Biso   1.000  N
  H151     1.0000 0.27600  0.92910  0.32440  Biso   1.000  H
  H152     1.0000 0.21900  0.95620  0.31040  Biso   1.000  H
  N83      1.0000 0.35450  0.27249  0.03850  Biso   1.000  N
  H153     1.0000 0.31550  0.26570  0.01370  Biso   1.000  H
  H154     1.0000 0.35970  0.29410  0.04930  Biso   1.000  H
  N84      1.0000 0.92340  0.09369  0.10110  Biso   1.000  N
  H155     1.0000 0.91710  0.07250  0.08810  Biso   1.000  H
  H156     1.0000 0.95330  0.09770  0.13410  Biso   1.000  H
  N85      1.0000 0.99090  0.08704  0.99040  Biso   1.000  N
  H157     1.0000 0.95860  0.08240  0.95880  Biso   1.000  H
  H158     1.0000 0.01280  0.07020  0.01220  Biso   1.000  H
  N86      1.0000 0.52180  0.27397  0.67455  Biso   1.000  N
  H159     1.0000 0.51640  0.29570  0.66450  Biso   1.000  H
  H160     1.0000 0.49730  0.25790  0.65230  Biso   1.000  H
  N87      1.0000 0.14810  0.07688  0.96110  Biso   1.000  N
  H161     1.0000 0.12780  0.08520  0.92770  Biso   1.000  H
  H162     1.0000 0.14320  0.05500  0.96790  Biso   1.000  H
  N88      1.0000 0.13340  0.94291  0.14440  Biso   1.000  N
  H163     1.0000 0.11590  0.92990  0.16450  Biso   1.000  H
  H164     1.0000 0.11060  0.96110  0.12730  Biso   1.000  H
  N89      1.0000 0.70530  0.96467  0.02370  Biso   1.000  N
  H165     1.0000 0.70430  0.98670  0.01540  Biso   1.000  H
  H166     1.0000 0.74030  0.95180  0.02300  Biso   1.000  H
  N90      1.0000 0.93210  0.08070  0.28120  Biso   1.000  N
  H167     1.0000 0.94630  0.07470  0.31620  Biso   1.000  H
  H168     1.0000 0.95760  0.07580  0.26050  Biso   1.000  H
  C169     1.0000 0.78351  0.20606  0.95961  Biso   1.000  C
  C170     1.0000 0.85780  0.18353  0.05449  Biso   1.000  C
  H169     1.0000 0.86410  0.20640  0.06860  Biso   1.000  H
  C171     1.0000 0.88530  0.12147  0.06840  Biso   1.000  C
  C172     1.0000 0.83780  0.11498  0.01570  Biso   1.000  C
  H170     1.0000 0.82860  0.09190  0.00290  Biso   1.000  H
  C173     1.0000 0.81327  0.17743  0.99962  Biso   1.000  C
  C174     1.0000 0.80290  0.14267  0.98094  Biso   1.000  C
  H171     1.0000 0.77230  0.13780  0.94470  Biso   1.000  H
  C175     1.0000 0.89310  0.15587  0.08870  Biso   1.000  C
  H172     1.0000 0.92220  0.16040  0.12550  Biso   1.000  H
  C176     1.0000 0.71902  0.23462  0.88693  Biso   1.000  C
  C177     1.0000 0.66480  0.24498  0.83359  Biso   1.000  C
  C178     1.0000 0.62430  0.21980  0.79580  Biso   1.000  C
  H173     1.0000 0.62880  0.19610  0.80590  Biso   1.000  H
  C179     1.0000 0.57760  0.22975  0.74370  Biso   1.000  C
  H174     1.0000 0.55070  0.21260  0.71950  Biso   1.000  H
  C180     1.0000 0.65680  0.28015  0.81610  Biso   1.000  C
  H175     1.0000 0.68320  0.29750  0.84020  Biso   1.000  H
  C181     1.0000 0.57020  0.26468  0.72690  Biso   1.000  C
  C182     1.0000 0.61040  0.28976  0.76360  Biso   1.000  C
  H176     1.0000 0.60620  0.31330  0.75300  Biso   1.000  H
  C183     1.0000 0.39004  0.90500  0.11252  Biso   1.000  C
  C184     1.0000 0.32600  0.91539  0.12414  Biso   1.000  C
  C185     1.0000 0.29860  0.89592  0.15820  Biso   1.000  C
  H177     1.0000 0.32250  0.87590  0.17620  Biso   1.000  H
  C186     1.0000 0.23550  0.90564  0.16610  Biso   1.000  C
  H178     1.0000 0.21830  0.89240  0.18980  Biso   1.000  H
  C187     1.0000 0.28870  0.94517  0.09790  Biso   1.000  C
  H179     1.0000 0.30650  0.95900  0.07510  Biso   1.000  H
  C188     1.0000 0.19860  0.93445  0.13930  Biso   1.000  C
  C189     1.0000 0.22590  0.95454  0.10520  Biso   1.000  C
  H180     1.0000 0.20160  0.97440  0.08710  Biso   1.000  H
  C190     1.0000 0.48507  0.90737  0.09078  Biso   1.000  C
  C191     1.0000 0.54260  0.95670  0.05740  Biso   1.000  C
  H181     1.0000 0.50560  0.97130  0.05810  Biso   1.000  H
  C192     1.0000 0.59520  0.97014  0.03980  Biso   1.000  C
  H182     1.0000 0.59280  0.99360  0.02860  Biso   1.000  H
  C193     1.0000 0.54340  0.92145  0.07426  Biso   1.000  C
  C194     1.0000 0.59810  0.90080  0.06980  Biso   1.000  C
  H183     1.0000 0.59900  0.87700  0.07880  Biso   1.000  H
  C195     1.0000 0.65080  0.91423  0.05260  Biso   1.000  C
  H184     1.0000 0.68690  0.89960  0.05020  Biso   1.000  H
  C196     1.0000 0.65100  0.95009  0.03840  Biso   1.000  C
  C197     1.0000 0.27476  0.14306  0.08939  Biso   1.000  C
  C198     1.0000 0.23880  0.15571  0.03600  Biso   1.000  C
  H185     1.0000 0.24290  0.17940  0.02800  Biso   1.000  H
  C199     1.0000 0.26830  0.10786  0.09920  Biso   1.000  C
  H186     1.0000 0.29310  0.09840  0.13440  Biso   1.000  H
  C200     1.0000 0.31828  0.16685  0.13418  Biso   1.000  C
  C201     1.0000 0.19670  0.13379  0.99380  Biso   1.000  C
  H187     1.0000 0.17360  0.14290  0.95800  Biso   1.000  H
  C202     1.0000 0.22510  0.08608  0.05710  Biso   1.000  C
  H188     1.0000 0.22070  0.06240  0.06490  Biso   1.000  H
  C203     1.0000 0.18890  0.09902  0.00450  Biso   1.000  C
  C204     1.0000 0.35156  0.24420  0.22105  Biso   1.000  C
  C205     1.0000 0.30060  0.25122  0.24584  Biso   1.000  C
  H189     1.0000 0.26290  0.23570  0.24040  Biso   1.000  H
  C206     1.0000 0.30520  0.28078  0.27830  Biso   1.000  C
  H190     1.0000 0.27000  0.28530  0.29400  Biso   1.000  H
  C207     1.0000 0.40660  0.26824  0.22914  Biso   1.000  C
  H191     1.0000 0.44060  0.26430  0.21200  Biso   1.000  H
  C208     1.0000 0.35078  0.21131  0.19009  Biso   1.000  C
  C209     1.0000 0.36170  0.30409  0.28803  Biso   1.000  C
  C210     1.0000 0.41130  0.29744  0.26181  Biso   1.000  C
  H192     1.0000 0.44840  0.31320  0.26660  Biso   1.000  H
  C211     1.0000 0.40701  0.02938  0.19453  Biso   1.000  C
  C212     1.0000 0.36670  0.00662  0.22001  Biso   1.000  C
  C213     1.0000 0.39360  0.97464  0.24587  Biso   1.000  C
  H193     1.0000 0.43590  0.96600  0.24340  Biso   1.000  H
  C214     1.0000 0.29430  0.96788  0.27860  Biso   1.000  C
  C215     1.0000 0.30210  0.01808  0.22290  Biso   1.000  C
  H194     1.0000 0.28300  0.03910  0.20540  Biso   1.000  H
  C216     1.0000 0.35800  0.95575  0.27500  Biso   1.000  C
  H195     1.0000 0.37690  0.93470  0.29240  Biso   1.000  H
  C217     1.0000 0.26590  0.99926  0.25080  Biso   1.000  C
  H196     1.0000 0.22230  0.00730  0.25140  Biso   1.000  H
  C218     1.0000 0.58560  0.03805  0.13200  Biso   1.000  C
  H197     1.0000 0.59390  0.01900  0.15680  Biso   1.000  H
  C219     1.0000 0.56200  0.09405  0.05802  Biso   1.000  C
  H198     1.0000 0.55370  0.11310  0.03350  Biso   1.000  H
  C220     1.0000 0.52210  0.05615  0.11886  Biso   1.000  C
  C221     1.0000 0.47258  0.05063  0.14957  Biso   1.000  C
  C222     1.0000 0.51100  0.08429  0.08043  Biso   1.000  C
  H199     1.0000 0.46820  0.09650  0.07010  Biso   1.000  H
  C223     1.0000 0.62550  0.07608  0.07120  Biso   1.000  C
  C224     1.0000 0.63680  0.04766  0.10920  Biso   1.000  C
  H200     1.0000 0.67920  0.03520  0.11900  Biso   1.000  H
  C225     1.0000 0.03820  0.19244  0.04056  Biso   1.000  C
  C226     1.0000 0.98750  0.18391  0.98885  Biso   1.000  C
  H201     1.0000 0.96280  0.20190  0.96530  Biso   1.000  H
  C227     1.0000 0.07370  0.16467  0.07490  Biso   1.000  C
  H202     1.0000 0.10800  0.16950  0.10960  Biso   1.000  H
  C228     1.0000 0.05830  0.13011  0.05810  Biso   1.000  C
  H203     1.0000 0.08230  0.11200  0.08170  Biso   1.000  H
  C229     1.0000 0.05320  0.22912  0.05829  Biso   1.000  C
  C230     1.0000 0.97300  0.14928  0.97186  Biso   1.000  C
  H204     1.0000 0.93950  0.14430  0.93680  Biso   1.000  H
  C231     1.0000 0.00780  0.12186  0.00650  Biso   1.000  C
  C232     1.0000 0.10820  0.27642  0.09618  Biso   1.000  C
  C233     1.0000 0.22950  0.30004  0.11463  Biso   1.000  C
  H205     1.0000 0.23730  0.28240  0.09160  Biso   1.000  H
  C234     1.0000 0.28200  0.32441  0.13830  Biso   1.000  C
  H206     1.0000 0.32450  0.32310  0.13100  Biso   1.000  H
  C235     1.0000 0.27200  0.35090  0.17290  Biso   1.000  C
  C236     1.0000 0.20940  0.35173  0.18440  Biso   1.000  C
  H207     1.0000 0.20270  0.36890  0.20850  Biso   1.000  H
  C237     1.0000 0.15640  0.32746  0.16088  Biso   1.000  C
  H208     1.0000 0.11450  0.32850  0.16930  Biso   1.000  H
  C238     1.0000 0.16511  0.30130  0.12454  Biso   1.000  C
  C239     1.0000 0.66617  0.14706  0.18626  Biso   1.000  C
  C240     1.0000 0.73924  0.13408  0.21063  Biso   1.000  C
  C241     1.0000 0.76320  0.12445  0.26640  Biso   1.000  C
  H209     1.0000 0.73630  0.13010  0.28910  Biso   1.000  H
  C242     1.0000 0.78050  0.12705  0.17740  Biso   1.000  C
  H210     1.0000 0.76560  0.13400  0.13980  Biso   1.000  H
  C243     1.0000 0.82640  0.10645  0.29000  Biso   1.000  C
  H211     1.0000 0.84100  0.09980  0.32780  Biso   1.000  H
  C244     1.0000 0.86690  0.09860  0.25750  Biso   1.000  C
  C245     1.0000 0.84440  0.10940  0.20080  Biso   1.000  C
  H212     1.0000 0.87260  0.10480  0.17870  Biso   1.000  H
  C246     1.0000 0.51770  0.20002  0.10944  Biso   1.000  C
  C247     1.0000 0.52560  0.23541  0.12457  Biso   1.000  C
  H213     1.0000 0.56780  0.24310  0.15100  Biso   1.000  H
  C248     1.0000 0.47210  0.25933  0.10110  Biso   1.000  C
  H214     1.0000 0.47800  0.28290  0.11200  Biso   1.000  H
  C249     1.0000 0.40200  0.21359  0.04420  Biso   1.000  C
  H215     1.0000 0.36070  0.20630  0.01630  Biso   1.000  H
  C250     1.0000 0.40980  0.24829  0.06120  Biso   1.000  C
  C251     1.0000 0.57052  0.17422  0.14172  Biso   1.000  C
  C252     1.0000 0.45550  0.18936  0.06840  Biso   1.000  C
  H216     1.0000 0.44960  0.16590  0.05700  Biso   1.000  H
  Cu25     1.0000 0.96135  0.62826  0.16804  Biso   1.000  Cu
  Cu26     1.0000 0.94693  0.47457  0.13232  Biso   1.000  Cu
  Cu27     1.0000 0.40700  0.75492  0.00332  Biso   1.000  Cu
  Cu28     1.0000 0.70498  0.71825  0.11885  Biso   1.000  Cu
  Cu29     1.0000 0.49366  0.82893  0.06768  Biso   1.000  Cu
  Cu30     1.0000 0.18310  0.70605  0.11229  Biso   1.000  Cu
  Cu31     1.0000 0.34760  0.83112  0.08711  Biso   1.000  Cu
  Cu32     1.0000 0.89107  0.59461  0.25359  Biso   1.000  Cu
  Cl4      1.0000 0.37489  0.81878  0.99201  Biso   1.000  Cl
  N91      1.0000 0.94988  0.57755  0.17223  Biso   1.000  N
  N92      1.0000 0.94660  0.51956  0.16192  Biso   1.000  N
  N93      1.0000 0.90854  0.56399  0.20158  Biso   1.000  N
  N94      1.0000 0.22103  0.70438  0.91614  Biso   1.000  N
  N95      1.0000 0.27633  0.75427  0.91129  Biso   1.000  N
  N96      1.0000 0.31763  0.73589  0.95835  Biso   1.000  N
  N97      1.0000 0.50518  0.75465  0.04783  Biso   1.000  N
  N98      1.0000 0.54094  0.78523  0.07218  Biso   1.000  N
  N99      1.0000 0.61858  0.74169  0.08895  Biso   1.000  N
  N100     1.0000 0.96645  0.37367  0.08861  Biso   1.000  N
  N101     1.0000 0.90486  0.37236  0.10226  Biso   1.000  N
  N102     1.0000 0.93929  0.42786  0.10687  Biso   1.000  N
  N103     1.0000 0.11432  0.63066  0.19775  Biso   1.000  N
  N104     1.0000 0.05247  0.64824  0.16909  Biso   1.000  N
  N105     1.0000 0.14114  0.67459  0.15064  Biso   1.000  N
  N106     1.0000 0.79409  0.69760  0.14916  Biso   1.000  N
  N107     1.0000 0.88602  0.66198  0.16429  Biso   1.000  N
  N108     1.0000 0.90681  0.69055  0.20002  Biso   1.000  N
  N109     1.0000 0.82440  0.87580  0.19490  Biso   1.000  N
  H217     1.0000 0.81830  0.89230  0.21640  Biso   1.000  H
  H218     1.0000 0.86310  0.87480  0.18710  Biso   1.000  H
  N110     1.0000 0.86830  0.83283  0.32340  Biso   1.000  N
  H219     1.0000 0.90370  0.84690  0.32950  Biso   1.000  H
  H220     1.0000 0.83710  0.83660  0.33940  Biso   1.000  H
  N111     1.0000 0.17520  0.58512  0.04620  Biso   1.000  N
  H221     1.0000 0.16670  0.60210  0.02220  Biso   1.000  H
  H222     1.0000 0.21450  0.57380  0.05470  Biso   1.000  H
  N112     1.0000 0.75850  0.44861  0.30830  Biso   1.000  N
  H223     1.0000 0.77600  0.42910  0.32440  Biso   1.000  H
  H224     1.0000 0.71900  0.45620  0.31040  Biso   1.000  H
  N113     1.0000 0.85450  0.77249  0.03850  Biso   1.000  N
  H225     1.0000 0.81550  0.76570  0.01370  Biso   1.000  H
  H226     1.0000 0.85970  0.79410  0.04930  Biso   1.000  H
  N114     1.0000 0.42340  0.59369  0.10110  Biso   1.000  N
  H227     1.0000 0.41710  0.57250  0.08810  Biso   1.000  H
  H228     1.0000 0.45330  0.59770  0.13410  Biso   1.000  H
  N115     1.0000 0.49090  0.58704  0.99040  Biso   1.000  N
  H229     1.0000 0.45860  0.58240  0.95880  Biso   1.000  H
  H230     1.0000 0.51280  0.57020  0.01220  Biso   1.000  H
  N116     1.0000 0.02180  0.77397  0.67455  Biso   1.000  N
  H231     1.0000 0.01640  0.79570  0.66450  Biso   1.000  H
  H232     1.0000 0.99730  0.75790  0.65230  Biso   1.000  H
  N117     1.0000 0.64810  0.57688  0.96110  Biso   1.000  N
  H233     1.0000 0.62780  0.58520  0.92770  Biso   1.000  H
  H234     1.0000 0.64320  0.55500  0.96790  Biso   1.000  H
  N118     1.0000 0.63340  0.44291  0.14440  Biso   1.000  N
  H235     1.0000 0.61590  0.42990  0.16450  Biso   1.000  H
  H236     1.0000 0.61060  0.46110  0.12730  Biso   1.000  H
  N119     1.0000 0.20530  0.46467  0.02370  Biso   1.000  N
  H237     1.0000 0.20430  0.48670  0.01540  Biso   1.000  H
  H238     1.0000 0.24030  0.45180  0.02300  Biso   1.000  H
  N120     1.0000 0.43210  0.58070  0.28120  Biso   1.000  N
  H239     1.0000 0.44630  0.57470  0.31620  Biso   1.000  H
  H240     1.0000 0.45760  0.57580  0.26050  Biso   1.000  H
  C253     1.0000 0.28351  0.70606  0.95961  Biso   1.000  C
  C254     1.0000 0.35780  0.68353  0.05449  Biso   1.000  C
  H241     1.0000 0.36410  0.70640  0.06860  Biso   1.000  H
  C255     1.0000 0.38530  0.62147  0.06840  Biso   1.000  C
  C256     1.0000 0.33780  0.61498  0.01570  Biso   1.000  C
  H242     1.0000 0.32860  0.59190  0.00290  Biso   1.000  H
  C257     1.0000 0.31327  0.67743  0.99962  Biso   1.000  C
  C258     1.0000 0.30290  0.64267  0.98094  Biso   1.000  C
  H243     1.0000 0.27230  0.63780  0.94470  Biso   1.000  H
  C259     1.0000 0.39310  0.65587  0.08870  Biso   1.000  C
  H244     1.0000 0.42220  0.66040  0.12550  Biso   1.000  H
  C260     1.0000 0.21902  0.73462  0.88693  Biso   1.000  C
  C261     1.0000 0.16480  0.74498  0.83359  Biso   1.000  C
  C262     1.0000 0.12430  0.71980  0.79580  Biso   1.000  C
  H245     1.0000 0.12880  0.69610  0.80590  Biso   1.000  H
  C263     1.0000 0.07760  0.72975  0.74370  Biso   1.000  C
  H246     1.0000 0.05070  0.71260  0.71950  Biso   1.000  H
  C264     1.0000 0.15680  0.78015  0.81610  Biso   1.000  C
  H247     1.0000 0.18320  0.79750  0.84020  Biso   1.000  H
  C265     1.0000 0.07020  0.76468  0.72690  Biso   1.000  C
  C266     1.0000 0.11040  0.78976  0.76360  Biso   1.000  C
  H248     1.0000 0.10620  0.81330  0.75300  Biso   1.000  H
  C267     1.0000 0.89004  0.40500  0.11252  Biso   1.000  C
  C268     1.0000 0.82600  0.41539  0.12414  Biso   1.000  C
  C269     1.0000 0.79860  0.39592  0.15820  Biso   1.000  C
  H249     1.0000 0.82250  0.37590  0.17620  Biso   1.000  H
  C270     1.0000 0.73550  0.40564  0.16610  Biso   1.000  C
  H250     1.0000 0.71830  0.39240  0.18980  Biso   1.000  H
  C271     1.0000 0.78870  0.44517  0.09790  Biso   1.000  C
  H251     1.0000 0.80650  0.45900  0.07510  Biso   1.000  H
  C272     1.0000 0.69860  0.43445  0.13930  Biso   1.000  C
  C273     1.0000 0.72590  0.45454  0.10520  Biso   1.000  C
  H252     1.0000 0.70160  0.47440  0.08710  Biso   1.000  H
  C274     1.0000 0.98507  0.40737  0.09078  Biso   1.000  C
  C275     1.0000 0.04260  0.45670  0.05740  Biso   1.000  C
  H253     1.0000 0.00560  0.47130  0.05810  Biso   1.000  H
  C276     1.0000 0.09520  0.47014  0.03980  Biso   1.000  C
  H254     1.0000 0.09280  0.49360  0.02860  Biso   1.000  H
  C277     1.0000 0.04340  0.42145  0.07426  Biso   1.000  C
  C278     1.0000 0.09810  0.40080  0.06980  Biso   1.000  C
  H255     1.0000 0.09900  0.37700  0.07880  Biso   1.000  H
  C279     1.0000 0.15080  0.41423  0.05260  Biso   1.000  C
  H256     1.0000 0.18690  0.39960  0.05020  Biso   1.000  H
  C280     1.0000 0.15100  0.45009  0.03840  Biso   1.000  C
  C281     1.0000 0.77476  0.64306  0.08939  Biso   1.000  C
  C282     1.0000 0.73880  0.65571  0.03600  Biso   1.000  C
  H257     1.0000 0.74290  0.67940  0.02800  Biso   1.000  H
  C283     1.0000 0.76830  0.60786  0.09920  Biso   1.000  C
  H258     1.0000 0.79310  0.59840  0.13440  Biso   1.000  H
  C284     1.0000 0.81828  0.66685  0.13418  Biso   1.000  C
  C285     1.0000 0.69670  0.63379  0.99380  Biso   1.000  C
  H259     1.0000 0.67360  0.64290  0.95800  Biso   1.000  H
  C286     1.0000 0.72510  0.58608  0.05710  Biso   1.000  C
  H260     1.0000 0.72070  0.56240  0.06490  Biso   1.000  H
  C287     1.0000 0.68890  0.59902  0.00450  Biso   1.000  C
  C288     1.0000 0.85156  0.74420  0.22105  Biso   1.000  C
  C289     1.0000 0.80060  0.75122  0.24584  Biso   1.000  C
  H261     1.0000 0.76290  0.73570  0.24040  Biso   1.000  H
  C290     1.0000 0.80520  0.78078  0.27830  Biso   1.000  C
  H262     1.0000 0.77000  0.78530  0.29400  Biso   1.000  H
  C291     1.0000 0.90660  0.76824  0.22914  Biso   1.000  C
  H263     1.0000 0.94060  0.76430  0.21200  Biso   1.000  H
  C292     1.0000 0.85078  0.71131  0.19009  Biso   1.000  C
  C293     1.0000 0.86170  0.80409  0.28803  Biso   1.000  C
  C294     1.0000 0.91130  0.79744  0.26181  Biso   1.000  C
  H264     1.0000 0.94840  0.81320  0.26660  Biso   1.000  H
  C295     1.0000 0.90701  0.52938  0.19453  Biso   1.000  C
  C296     1.0000 0.86670  0.50662  0.22001  Biso   1.000  C
  C297     1.0000 0.89360  0.47464  0.24587  Biso   1.000  C
  H265     1.0000 0.93590  0.46600  0.24340  Biso   1.000  H
  C298     1.0000 0.79430  0.46788  0.27860  Biso   1.000  C
  C299     1.0000 0.80210  0.51808  0.22290  Biso   1.000  C
  H266     1.0000 0.78300  0.53910  0.20540  Biso   1.000  H
  C300     1.0000 0.85800  0.45575  0.27500  Biso   1.000  C
  H267     1.0000 0.87690  0.43470  0.29240  Biso   1.000  H
  C301     1.0000 0.76590  0.49926  0.25080  Biso   1.000  C
  H268     1.0000 0.72230  0.50730  0.25140  Biso   1.000  H
  C302     1.0000 0.08560  0.53805  0.13200  Biso   1.000  C
  H269     1.0000 0.09390  0.51900  0.15680  Biso   1.000  H
  C303     1.0000 0.06200  0.59405  0.05802  Biso   1.000  C
  H270     1.0000 0.05370  0.61310  0.03350  Biso   1.000  H
  C304     1.0000 0.02210  0.55615  0.11886  Biso   1.000  C
  C305     1.0000 0.97258  0.55063  0.14957  Biso   1.000  C
  C306     1.0000 0.01100  0.58429  0.08043  Biso   1.000  C
  H271     1.0000 0.96820  0.59650  0.07010  Biso   1.000  H
  C307     1.0000 0.12550  0.57608  0.07120  Biso   1.000  C
  C308     1.0000 0.13680  0.54766  0.10920  Biso   1.000  C
  H272     1.0000 0.17920  0.53520  0.11900  Biso   1.000  H
  C309     1.0000 0.53820  0.69244  0.04056  Biso   1.000  C
  C310     1.0000 0.48750  0.68391  0.98885  Biso   1.000  C
  H273     1.0000 0.46280  0.70190  0.96530  Biso   1.000  H
  C311     1.0000 0.57370  0.66467  0.07490  Biso   1.000  C
  H274     1.0000 0.60800  0.66950  0.10960  Biso   1.000  H
  C312     1.0000 0.55830  0.63011  0.05810  Biso   1.000  C
  H275     1.0000 0.58230  0.61200  0.08170  Biso   1.000  H
  C313     1.0000 0.55320  0.72912  0.05829  Biso   1.000  C
  C314     1.0000 0.47300  0.64928  0.97186  Biso   1.000  C
  H276     1.0000 0.43950  0.64430  0.93680  Biso   1.000  H
  C315     1.0000 0.50780  0.62186  0.00650  Biso   1.000  C
  C316     1.0000 0.60820  0.77642  0.09618  Biso   1.000  C
  C317     1.0000 0.72950  0.80004  0.11463  Biso   1.000  C
  H277     1.0000 0.73730  0.78240  0.09160  Biso   1.000  H
  C318     1.0000 0.78200  0.82441  0.13830  Biso   1.000  C
  H278     1.0000 0.82450  0.82310  0.13100  Biso   1.000  H
  C319     1.0000 0.77200  0.85090  0.17290  Biso   1.000  C
  C320     1.0000 0.70940  0.85173  0.18440  Biso   1.000  C
  H279     1.0000 0.70270  0.86890  0.20850  Biso   1.000  H
  C321     1.0000 0.65640  0.82746  0.16088  Biso   1.000  C
  H280     1.0000 0.61450  0.82850  0.16930  Biso   1.000  H
  C322     1.0000 0.66511  0.80130  0.12454  Biso   1.000  C
  C323     1.0000 0.16617  0.64706  0.18626  Biso   1.000  C
  C324     1.0000 0.23924  0.63408  0.21063  Biso   1.000  C
  C325     1.0000 0.26320  0.62445  0.26640  Biso   1.000  C
  H281     1.0000 0.23630  0.63010  0.28910  Biso   1.000  H
  C326     1.0000 0.28050  0.62705  0.17740  Biso   1.000  C
  H282     1.0000 0.26560  0.63400  0.13980  Biso   1.000  H
  C327     1.0000 0.32640  0.60645  0.29000  Biso   1.000  C
  H283     1.0000 0.34100  0.59980  0.32780  Biso   1.000  H
  C328     1.0000 0.36690  0.59860  0.25750  Biso   1.000  C
  C329     1.0000 0.34440  0.60940  0.20080  Biso   1.000  C
  H284     1.0000 0.37260  0.60480  0.17870  Biso   1.000  H
  C330     1.0000 0.01770  0.70002  0.10944  Biso   1.000  C
  C331     1.0000 0.02560  0.73541  0.12457  Biso   1.000  C
  H285     1.0000 0.06780  0.74310  0.15100  Biso   1.000  H
  C332     1.0000 0.97210  0.75933  0.10110  Biso   1.000  C
  H286     1.0000 0.97800  0.78290  0.11200  Biso   1.000  H
  C333     1.0000 0.90200  0.71359  0.04420  Biso   1.000  C
  H287     1.0000 0.86070  0.70630  0.01630  Biso   1.000  H
  C334     1.0000 0.90980  0.74829  0.06120  Biso   1.000  C
  C335     1.0000 0.07052  0.67422  0.14172  Biso   1.000  C
  C336     1.0000 0.95550  0.68936  0.06840  Biso   1.000  C
  H288     1.0000 0.94960  0.66590  0.05700  Biso   1.000  H
  Cu33     1.0000 0.46135  0.87174  0.66804  Biso   1.000  Cu
  Cu34     1.0000 0.44693  0.02543  0.63232  Biso   1.000  Cu
  Cu35     1.0000 0.90700  0.74508  0.50332  Biso   1.000  Cu
  Cu36     1.0000 0.20498  0.78175  0.61885  Biso   1.000  Cu
  Cu37     1.0000 0.99366  0.67107  0.56768  Biso   1.000  Cu
  Cu38     1.0000 0.68310  0.79395  0.61229  Biso   1.000  Cu
  Cu39     1.0000 0.84760  0.66888  0.58711  Biso   1.000  Cu
  Cu40     1.0000 0.39107  0.90539  0.75359  Biso   1.000  Cu
  Cl5      1.0000 0.87489  0.68122  0.49201  Biso   1.000  Cl
  N121     1.0000 0.44988  0.92245  0.67223  Biso   1.000  N
  N122     1.0000 0.44660  0.98044  0.66192  Biso   1.000  N
  N123     1.0000 0.40854  0.93601  0.70158  Biso   1.000  N
  N124     1.0000 0.72103  0.79562  0.41614  Biso   1.000  N
  N125     1.0000 0.77633  0.74573  0.41129  Biso   1.000  N
  N126     1.0000 0.81763  0.76411  0.45835  Biso   1.000  N
  N127     1.0000 0.00518  0.74535  0.54783  Biso   1.000  N
  N128     1.0000 0.04094  0.71477  0.57218  Biso   1.000  N
  N129     1.0000 0.11858  0.75831  0.58895  Biso   1.000  N
  N130     1.0000 0.46645  0.12633  0.58861  Biso   1.000  N
  N131     1.0000 0.40486  0.12764  0.60226  Biso   1.000  N
  N132     1.0000 0.43929  0.07214  0.60687  Biso   1.000  N
  N133     1.0000 0.61432  0.86934  0.69775  Biso   1.000  N
  N134     1.0000 0.55247  0.85176  0.66909  Biso   1.000  N
  N135     1.0000 0.64114  0.82541  0.65064  Biso   1.000  N
  N136     1.0000 0.29409  0.80240  0.64916  Biso   1.000  N
  N137     1.0000 0.38602  0.83802  0.66429  Biso   1.000  N
  N138     1.0000 0.40681  0.80945  0.70002  Biso   1.000  N
  N139     1.0000 0.32440  0.62420  0.69490  Biso   1.000  N
  H289     1.0000 0.31830  0.60770  0.71640  Biso   1.000  H
  H290     1.0000 0.36310  0.62520  0.68710  Biso   1.000  H
  N140     1.0000 0.36830  0.66717  0.82340  Biso   1.000  N
  H291     1.0000 0.40370  0.65310  0.82950  Biso   1.000  H
  H292     1.0000 0.33710  0.66340  0.83940  Biso   1.000  H
  N141     1.0000 0.67520  0.91488  0.54620  Biso   1.000  N
  H293     1.0000 0.66670  0.89790  0.52220  Biso   1.000  H
  H294     1.0000 0.71450  0.92620  0.55470  Biso   1.000  H
  N142     1.0000 0.25850  0.05139  0.80830  Biso   1.000  N
  H295     1.0000 0.27600  0.07090  0.82440  Biso   1.000  H
  H296     1.0000 0.21900  0.04380  0.81040  Biso   1.000  H
  N143     1.0000 0.35450  0.72751  0.53850  Biso   1.000  N
  H297     1.0000 0.31550  0.73430  0.51370  Biso   1.000  H
  H298     1.0000 0.35970  0.70590  0.54930  Biso   1.000  H
  N144     1.0000 0.92340  0.90631  0.60110  Biso   1.000  N
  H299     1.0000 0.91710  0.92750  0.58810  Biso   1.000  H
  H300     1.0000 0.95330  0.90230  0.63410  Biso   1.000  H
  N145     1.0000 0.99090  0.91296  0.49040  Biso   1.000  N
  H301     1.0000 0.95860  0.91760  0.45880  Biso   1.000  H
  H302     1.0000 0.01280  0.92980  0.51220  Biso   1.000  H
  N146     1.0000 0.52180  0.72603  0.17455  Biso   1.000  N
  H303     1.0000 0.51640  0.70430  0.16450  Biso   1.000  H
  H304     1.0000 0.49730  0.74210  0.15230  Biso   1.000  H
  N147     1.0000 0.14810  0.92312  0.46110  Biso   1.000  N
  H305     1.0000 0.12780  0.91480  0.42770  Biso   1.000  H
  H306     1.0000 0.14320  0.94500  0.46790  Biso   1.000  H
  N148     1.0000 0.13340  0.05709  0.64440  Biso   1.000  N
  H307     1.0000 0.11590  0.07010  0.66450  Biso   1.000  H
  H308     1.0000 0.11060  0.03890  0.62730  Biso   1.000  H
  N149     1.0000 0.70530  0.03533  0.52370  Biso   1.000  N
  H309     1.0000 0.70430  0.01330  0.51540  Biso   1.000  H
  H310     1.0000 0.74030  0.04820  0.52300  Biso   1.000  H
  N150     1.0000 0.93210  0.91930  0.78120  Biso   1.000  N
  H311     1.0000 0.94630  0.92530  0.81620  Biso   1.000  H
  H312     1.0000 0.95760  0.92420  0.76050  Biso   1.000  H
  C337     1.0000 0.78351  0.79394  0.45961  Biso   1.000  C
  C338     1.0000 0.85780  0.81647  0.55449  Biso   1.000  C
  H313     1.0000 0.86410  0.79360  0.56860  Biso   1.000  H
  C339     1.0000 0.88530  0.87853  0.56840  Biso   1.000  C
  C340     1.0000 0.83780  0.88502  0.51570  Biso   1.000  C
  H314     1.0000 0.82860  0.90810  0.50290  Biso   1.000  H
  C341     1.0000 0.81327  0.82257  0.49962  Biso   1.000  C
  C342     1.0000 0.80290  0.85733  0.48094  Biso   1.000  C
  H315     1.0000 0.77230  0.86220  0.44470  Biso   1.000  H
  C343     1.0000 0.89310  0.84413  0.58870  Biso   1.000  C
  H316     1.0000 0.92220  0.83960  0.62550  Biso   1.000  H
  C344     1.0000 0.71902  0.76538  0.38693  Biso   1.000  C
  C345     1.0000 0.66480  0.75502  0.33359  Biso   1.000  C
  C346     1.0000 0.62430  0.78020  0.29580  Biso   1.000  C
  H317     1.0000 0.62880  0.80390  0.30590  Biso   1.000  H
  C347     1.0000 0.57760  0.77025  0.24370  Biso   1.000  C
  H318     1.0000 0.55070  0.78740  0.21950  Biso   1.000  H
  C348     1.0000 0.65680  0.71985  0.31610  Biso   1.000  C
  H319     1.0000 0.68320  0.70250  0.34020  Biso   1.000  H
  C349     1.0000 0.57020  0.73532  0.22690  Biso   1.000  C
  C350     1.0000 0.61040  0.71024  0.26360  Biso   1.000  C
  H320     1.0000 0.60620  0.68670  0.25300  Biso   1.000  H
  C351     1.0000 0.39004  0.09500  0.61252  Biso   1.000  C
  C352     1.0000 0.32600  0.08461  0.62414  Biso   1.000  C
  C353     1.0000 0.29860  0.10408  0.65820  Biso   1.000  C
  H321     1.0000 0.32250  0.12410  0.67620  Biso   1.000  H
  C354     1.0000 0.23550  0.09436  0.66610  Biso   1.000  C
  H322     1.0000 0.21830  0.10760  0.68980  Biso   1.000  H
  C355     1.0000 0.28870  0.05483  0.59790  Biso   1.000  C
  H323     1.0000 0.30650  0.04100  0.57510  Biso   1.000  H
  C356     1.0000 0.19860  0.06555  0.63930  Biso   1.000  C
  C357     1.0000 0.22590  0.04546  0.60520  Biso   1.000  C
  H324     1.0000 0.20160  0.02560  0.58710  Biso   1.000  H
  C358     1.0000 0.48507  0.09263  0.59078  Biso   1.000  C
  C359     1.0000 0.54260  0.04330  0.55740  Biso   1.000  C
  H325     1.0000 0.50560  0.02870  0.55810  Biso   1.000  H
  C360     1.0000 0.59520  0.02986  0.53980  Biso   1.000  C
  H326     1.0000 0.59280  0.00640  0.52860  Biso   1.000  H
  C361     1.0000 0.54340  0.07855  0.57426  Biso   1.000  C
  C362     1.0000 0.59810  0.09920  0.56980  Biso   1.000  C
  H327     1.0000 0.59900  0.12300  0.57880  Biso   1.000  H
  C363     1.0000 0.65080  0.08577  0.55260  Biso   1.000  C
  H328     1.0000 0.68690  0.10040  0.55020  Biso   1.000  H
  C364     1.0000 0.65100  0.04991  0.53840  Biso   1.000  C
  C365     1.0000 0.27476  0.85694  0.58939  Biso   1.000  C
  C366     1.0000 0.23880  0.84429  0.53600  Biso   1.000  C
  H329     1.0000 0.24290  0.82060  0.52800  Biso   1.000  H
  C367     1.0000 0.26830  0.89214  0.59920  Biso   1.000  C
  H330     1.0000 0.29310  0.90160  0.63440  Biso   1.000  H
  C368     1.0000 0.31828  0.83315  0.63418  Biso   1.000  C
  C369     1.0000 0.19670  0.86621  0.49380  Biso   1.000  C
  H331     1.0000 0.17360  0.85710  0.45800  Biso   1.000  H
  C370     1.0000 0.22510  0.91392  0.55710  Biso   1.000  C
  H332     1.0000 0.22070  0.93760  0.56490  Biso   1.000  H
  C371     1.0000 0.18890  0.90098  0.50450  Biso   1.000  C
  C372     1.0000 0.35156  0.75580  0.72105  Biso   1.000  C
  C373     1.0000 0.30060  0.74878  0.74584  Biso   1.000  C
  H333     1.0000 0.26290  0.76430  0.74040  Biso   1.000  H
  C374     1.0000 0.30520  0.71922  0.77830  Biso   1.000  C
  H334     1.0000 0.27000  0.71470  0.79400  Biso   1.000  H
  C375     1.0000 0.40660  0.73176  0.72914  Biso   1.000  C
  H335     1.0000 0.44060  0.73570  0.71200  Biso   1.000  H
  C376     1.0000 0.35078  0.78869  0.69009  Biso   1.000  C
  C377     1.0000 0.36170  0.69591  0.78803  Biso   1.000  C
  C378     1.0000 0.41130  0.70256  0.76181  Biso   1.000  C
  H336     1.0000 0.44840  0.68680  0.76660  Biso   1.000  H
  C379     1.0000 0.40701  0.97062  0.69453  Biso   1.000  C
  C380     1.0000 0.36670  0.99338  0.72001  Biso   1.000  C
  C381     1.0000 0.39360  0.02536  0.74587  Biso   1.000  C
  H337     1.0000 0.43590  0.03400  0.74340  Biso   1.000  H
  C382     1.0000 0.29430  0.03212  0.77860  Biso   1.000  C
  C383     1.0000 0.30210  0.98192  0.72290  Biso   1.000  C
  H338     1.0000 0.28300  0.96090  0.70540  Biso   1.000  H
  C384     1.0000 0.35800  0.04425  0.77500  Biso   1.000  C
  H339     1.0000 0.37690  0.06530  0.79240  Biso   1.000  H
  C385     1.0000 0.26590  0.00074  0.75080  Biso   1.000  C
  H340     1.0000 0.22230  0.99270  0.75140  Biso   1.000  H
  C386     1.0000 0.58560  0.96195  0.63200  Biso   1.000  C
  H341     1.0000 0.59390  0.98100  0.65680  Biso   1.000  H
  C387     1.0000 0.56200  0.90595  0.55802  Biso   1.000  C
  H342     1.0000 0.55370  0.88690  0.53350  Biso   1.000  H
  C388     1.0000 0.52210  0.94385  0.61886  Biso   1.000  C
  C389     1.0000 0.47258  0.94937  0.64957  Biso   1.000  C
  C390     1.0000 0.51100  0.91571  0.58043  Biso   1.000  C
  H343     1.0000 0.46820  0.90350  0.57010  Biso   1.000  H
  C391     1.0000 0.62550  0.92392  0.57120  Biso   1.000  C
  C392     1.0000 0.63680  0.95234  0.60920  Biso   1.000  C
  H344     1.0000 0.67920  0.96480  0.61900  Biso   1.000  H
  C393     1.0000 0.03820  0.80756  0.54056  Biso   1.000  C
  C394     1.0000 0.98750  0.81609  0.48885  Biso   1.000  C
  H345     1.0000 0.96280  0.79810  0.46530  Biso   1.000  H
  C395     1.0000 0.07370  0.83533  0.57490  Biso   1.000  C
  H346     1.0000 0.10800  0.83050  0.60960  Biso   1.000  H
  C396     1.0000 0.05830  0.86989  0.55810  Biso   1.000  C
  H347     1.0000 0.08230  0.88800  0.58170  Biso   1.000  H
  C397     1.0000 0.05320  0.77088  0.55829  Biso   1.000  C
  C398     1.0000 0.97300  0.85072  0.47186  Biso   1.000  C
  H348     1.0000 0.93950  0.85570  0.43680  Biso   1.000  H
  C399     1.0000 0.00780  0.87814  0.50650  Biso   1.000  C
  C400     1.0000 0.10820  0.72358  0.59618  Biso   1.000  C
  C401     1.0000 0.22950  0.69996  0.61463  Biso   1.000  C
  H349     1.0000 0.23730  0.71760  0.59160  Biso   1.000  H
  C402     1.0000 0.28200  0.67559  0.63830  Biso   1.000  C
  H350     1.0000 0.32450  0.67690  0.63100  Biso   1.000  H
  C403     1.0000 0.27200  0.64910  0.67290  Biso   1.000  C
  C404     1.0000 0.20940  0.64827  0.68440  Biso   1.000  C
  H351     1.0000 0.20270  0.63110  0.70850  Biso   1.000  H
  C405     1.0000 0.15640  0.67254  0.66088  Biso   1.000  C
  H352     1.0000 0.11450  0.67150  0.66930  Biso   1.000  H
  C406     1.0000 0.16511  0.69870  0.62454  Biso   1.000  C
  C407     1.0000 0.66617  0.85294  0.68626  Biso   1.000  C
  C408     1.0000 0.73924  0.86592  0.71063  Biso   1.000  C
  C409     1.0000 0.76320  0.87555  0.76640  Biso   1.000  C
  H353     1.0000 0.73630  0.86990  0.78910  Biso   1.000  H
  C410     1.0000 0.78050  0.87295  0.67740  Biso   1.000  C
  H354     1.0000 0.76560  0.86600  0.63980  Biso   1.000  H
  C411     1.0000 0.82640  0.89355  0.79000  Biso   1.000  C
  H355     1.0000 0.84100  0.90020  0.82780  Biso   1.000  H
  C412     1.0000 0.86690  0.90140  0.75750  Biso   1.000  C
  C413     1.0000 0.84440  0.89060  0.70080  Biso   1.000  C
  H356     1.0000 0.87260  0.89520  0.67870  Biso   1.000  H
  C414     1.0000 0.51770  0.79998  0.60944  Biso   1.000  C
  C415     1.0000 0.52560  0.76459  0.62457  Biso   1.000  C
  H357     1.0000 0.56780  0.75690  0.65100  Biso   1.000  H
  C416     1.0000 0.47210  0.74067  0.60110  Biso   1.000  C
  H358     1.0000 0.47800  0.71710  0.61200  Biso   1.000  H
  C417     1.0000 0.40200  0.78641  0.54420  Biso   1.000  C
  H359     1.0000 0.36070  0.79370  0.51630  Biso   1.000  H
  C418     1.0000 0.40980  0.75171  0.56120  Biso   1.000  C
  C419     1.0000 0.57052  0.82578  0.64172  Biso   1.000  C
  C420     1.0000 0.45550  0.81064  0.56840  Biso   1.000  C
  H360     1.0000 0.44960  0.83410  0.55700  Biso   1.000  H
  Cu41     1.0000 0.96135  0.37174  0.66804  Biso   1.000  Cu
  Cu42     1.0000 0.94693  0.52543  0.63232  Biso   1.000  Cu
  Cu43     1.0000 0.40700  0.24508  0.50332  Biso   1.000  Cu
  Cu44     1.0000 0.70498  0.28175  0.61885  Biso   1.000  Cu
  Cu45     1.0000 0.49366  0.17107  0.56768  Biso   1.000  Cu
  Cu46     1.0000 0.18310  0.29395  0.61229  Biso   1.000  Cu
  Cu47     1.0000 0.34760  0.16888  0.58711  Biso   1.000  Cu
  Cu48     1.0000 0.89107  0.40539  0.75359  Biso   1.000  Cu
  Cl6      1.0000 0.37489  0.18122  0.49201  Biso   1.000  Cl
  N151     1.0000 0.94988  0.42245  0.67223  Biso   1.000  N
  N152     1.0000 0.94660  0.48044  0.66192  Biso   1.000  N
  N153     1.0000 0.90854  0.43601  0.70158  Biso   1.000  N
  N154     1.0000 0.22103  0.29562  0.41614  Biso   1.000  N
  N155     1.0000 0.27633  0.24573  0.41129  Biso   1.000  N
  N156     1.0000 0.31763  0.26411  0.45835  Biso   1.000  N
  N157     1.0000 0.50518  0.24535  0.54783  Biso   1.000  N
  N158     1.0000 0.54094  0.21477  0.57218  Biso   1.000  N
  N159     1.0000 0.61858  0.25831  0.58895  Biso   1.000  N
  N160     1.0000 0.96645  0.62633  0.58861  Biso   1.000  N
  N161     1.0000 0.90486  0.62764  0.60226  Biso   1.000  N
  N162     1.0000 0.93929  0.57214  0.60687  Biso   1.000  N
  N163     1.0000 0.11432  0.36934  0.69775  Biso   1.000  N
  N164     1.0000 0.05247  0.35176  0.66909  Biso   1.000  N
  N165     1.0000 0.14114  0.32541  0.65064  Biso   1.000  N
  N166     1.0000 0.79409  0.30240  0.64916  Biso   1.000  N
  N167     1.0000 0.88602  0.33802  0.66429  Biso   1.000  N
  N168     1.0000 0.90681  0.30945  0.70002  Biso   1.000  N
  N169     1.0000 0.82440  0.12420  0.69490  Biso   1.000  N
  H361     1.0000 0.81830  0.10770  0.71640  Biso   1.000  H
  H362     1.0000 0.86310  0.12520  0.68710  Biso   1.000  H
  N170     1.0000 0.86830  0.16717  0.82340  Biso   1.000  N
  H363     1.0000 0.90370  0.15310  0.82950  Biso   1.000  H
  H364     1.0000 0.83710  0.16340  0.83940  Biso   1.000  H
  N171     1.0000 0.17520  0.41488  0.54620  Biso   1.000  N
  H365     1.0000 0.16670  0.39790  0.52220  Biso   1.000  H
  H366     1.0000 0.21450  0.42620  0.55470  Biso   1.000  H
  N172     1.0000 0.75850  0.55139  0.80830  Biso   1.000  N
  H367     1.0000 0.77600  0.57090  0.82440  Biso   1.000  H
  H368     1.0000 0.71900  0.54380  0.81040  Biso   1.000  H
  N173     1.0000 0.85450  0.22751  0.53850  Biso   1.000  N
  H369     1.0000 0.81550  0.23430  0.51370  Biso   1.000  H
  H370     1.0000 0.85970  0.20590  0.54930  Biso   1.000  H
  N174     1.0000 0.42340  0.40631  0.60110  Biso   1.000  N
  H371     1.0000 0.41710  0.42750  0.58810  Biso   1.000  H
  H372     1.0000 0.45330  0.40230  0.63410  Biso   1.000  H
  N175     1.0000 0.49090  0.41296  0.49040  Biso   1.000  N
  H373     1.0000 0.45860  0.41760  0.45880  Biso   1.000  H
  H374     1.0000 0.51280  0.42980  0.51220  Biso   1.000  H
  N176     1.0000 0.02180  0.22603  0.17455  Biso   1.000  N
  H375     1.0000 0.01640  0.20430  0.16450  Biso   1.000  H
  H376     1.0000 0.99730  0.24210  0.15230  Biso   1.000  H
  N177     1.0000 0.64810  0.42312  0.46110  Biso   1.000  N
  H377     1.0000 0.62780  0.41480  0.42770  Biso   1.000  H
  H378     1.0000 0.64320  0.44500  0.46790  Biso   1.000  H
  N178     1.0000 0.63340  0.55709  0.64440  Biso   1.000  N
  H379     1.0000 0.61590  0.57010  0.66450  Biso   1.000  H
  H380     1.0000 0.61060  0.53890  0.62730  Biso   1.000  H
  N179     1.0000 0.20530  0.53533  0.52370  Biso   1.000  N
  H381     1.0000 0.20430  0.51330  0.51540  Biso   1.000  H
  H382     1.0000 0.24030  0.54820  0.52300  Biso   1.000  H
  N180     1.0000 0.43210  0.41930  0.78120  Biso   1.000  N
  H383     1.0000 0.44630  0.42530  0.81620  Biso   1.000  H
  H384     1.0000 0.45760  0.42420  0.76050  Biso   1.000  H
  C421     1.0000 0.28351  0.29394  0.45961  Biso   1.000  C
  C422     1.0000 0.35780  0.31647  0.55449  Biso   1.000  C
  H385     1.0000 0.36410  0.29360  0.56860  Biso   1.000  H
  C423     1.0000 0.38530  0.37853  0.56840  Biso   1.000  C
  C424     1.0000 0.33780  0.38502  0.51570  Biso   1.000  C
  H386     1.0000 0.32860  0.40810  0.50290  Biso   1.000  H
  C425     1.0000 0.31327  0.32257  0.49962  Biso   1.000  C
  C426     1.0000 0.30290  0.35733  0.48094  Biso   1.000  C
  H387     1.0000 0.27230  0.36220  0.44470  Biso   1.000  H
  C427     1.0000 0.39310  0.34413  0.58870  Biso   1.000  C
  H388     1.0000 0.42220  0.33960  0.62550  Biso   1.000  H
  C428     1.0000 0.21902  0.26538  0.38693  Biso   1.000  C
  C429     1.0000 0.16480  0.25502  0.33359  Biso   1.000  C
  C430     1.0000 0.12430  0.28020  0.29580  Biso   1.000  C
  H389     1.0000 0.12880  0.30390  0.30590  Biso   1.000  H
  C431     1.0000 0.07760  0.27025  0.24370  Biso   1.000  C
  H390     1.0000 0.05070  0.28740  0.21950  Biso   1.000  H
  C432     1.0000 0.15680  0.21985  0.31610  Biso   1.000  C
  H391     1.0000 0.18320  0.20250  0.34020  Biso   1.000  H
  C433     1.0000 0.07020  0.23532  0.22690  Biso   1.000  C
  C434     1.0000 0.11040  0.21024  0.26360  Biso   1.000  C
  H392     1.0000 0.10620  0.18670  0.25300  Biso   1.000  H
  C435     1.0000 0.89004  0.59500  0.61252  Biso   1.000  C
  C436     1.0000 0.82600  0.58461  0.62414  Biso   1.000  C
  C437     1.0000 0.79860  0.60408  0.65820  Biso   1.000  C
  H393     1.0000 0.82250  0.62410  0.67620  Biso   1.000  H
  C438     1.0000 0.73550  0.59436  0.66610  Biso   1.000  C
  H394     1.0000 0.71830  0.60760  0.68980  Biso   1.000  H
  C439     1.0000 0.78870  0.55483  0.59790  Biso   1.000  C
  H395     1.0000 0.80650  0.54100  0.57510  Biso   1.000  H
  C440     1.0000 0.69860  0.56555  0.63930  Biso   1.000  C
  C441     1.0000 0.72590  0.54546  0.60520  Biso   1.000  C
  H396     1.0000 0.70160  0.52560  0.58710  Biso   1.000  H
  C442     1.0000 0.98507  0.59263  0.59078  Biso   1.000  C
  C443     1.0000 0.04260  0.54330  0.55740  Biso   1.000  C
  H397     1.0000 0.00560  0.52870  0.55810  Biso   1.000  H
  C444     1.0000 0.09520  0.52986  0.53980  Biso   1.000  C
  H398     1.0000 0.09280  0.50640  0.52860  Biso   1.000  H
  C445     1.0000 0.04340  0.57855  0.57426  Biso   1.000  C
  C446     1.0000 0.09810  0.59920  0.56980  Biso   1.000  C
  H399     1.0000 0.09900  0.62300  0.57880  Biso   1.000  H
  C447     1.0000 0.15080  0.58577  0.55260  Biso   1.000  C
  H400     1.0000 0.18690  0.60040  0.55020  Biso   1.000  H
  C448     1.0000 0.15100  0.54991  0.53840  Biso   1.000  C
  C449     1.0000 0.77476  0.35694  0.58939  Biso   1.000  C
  C450     1.0000 0.73880  0.34429  0.53600  Biso   1.000  C
  H401     1.0000 0.74290  0.32060  0.52800  Biso   1.000  H
  C451     1.0000 0.76830  0.39214  0.59920  Biso   1.000  C
  H402     1.0000 0.79310  0.40160  0.63440  Biso   1.000  H
  C452     1.0000 0.81828  0.33315  0.63418  Biso   1.000  C
  C453     1.0000 0.69670  0.36621  0.49380  Biso   1.000  C
  H403     1.0000 0.67360  0.35710  0.45800  Biso   1.000  H
  C454     1.0000 0.72510  0.41392  0.55710  Biso   1.000  C
  H404     1.0000 0.72070  0.43760  0.56490  Biso   1.000  H
  C455     1.0000 0.68890  0.40098  0.50450  Biso   1.000  C
  C456     1.0000 0.85156  0.25580  0.72105  Biso   1.000  C
  C457     1.0000 0.80060  0.24878  0.74584  Biso   1.000  C
  H405     1.0000 0.76290  0.26430  0.74040  Biso   1.000  H
  C458     1.0000 0.80520  0.21922  0.77830  Biso   1.000  C
  H406     1.0000 0.77000  0.21470  0.79400  Biso   1.000  H
  C459     1.0000 0.90660  0.23176  0.72914  Biso   1.000  C
  H407     1.0000 0.94060  0.23570  0.71200  Biso   1.000  H
  C460     1.0000 0.85078  0.28869  0.69009  Biso   1.000  C
  C461     1.0000 0.86170  0.19591  0.78803  Biso   1.000  C
  C462     1.0000 0.91130  0.20256  0.76181  Biso   1.000  C
  H408     1.0000 0.94840  0.18680  0.76660  Biso   1.000  H
  C463     1.0000 0.90701  0.47062  0.69453  Biso   1.000  C
  C464     1.0000 0.86670  0.49338  0.72001  Biso   1.000  C
  C465     1.0000 0.89360  0.52536  0.74587  Biso   1.000  C
  H409     1.0000 0.93590  0.53400  0.74340  Biso   1.000  H
  C466     1.0000 0.79430  0.53212  0.77860  Biso   1.000  C
  C467     1.0000 0.80210  0.48192  0.72290  Biso   1.000  C
  H410     1.0000 0.78300  0.46090  0.70540  Biso   1.000  H
  C468     1.0000 0.85800  0.54425  0.77500  Biso   1.000  C
  H411     1.0000 0.87690  0.56530  0.79240  Biso   1.000  H
  C469     1.0000 0.76590  0.50074  0.75080  Biso   1.000  C
  H412     1.0000 0.72230  0.49270  0.75140  Biso   1.000  H
  C470     1.0000 0.08560  0.46195  0.63200  Biso   1.000  C
  H413     1.0000 0.09390  0.48100  0.65680  Biso   1.000  H
  C471     1.0000 0.06200  0.40595  0.55802  Biso   1.000  C
  H414     1.0000 0.05370  0.38690  0.53350  Biso   1.000  H
  C472     1.0000 0.02210  0.44385  0.61886  Biso   1.000  C
  C473     1.0000 0.97258  0.44937  0.64957  Biso   1.000  C
  C474     1.0000 0.01100  0.41571  0.58043  Biso   1.000  C
  H415     1.0000 0.96820  0.40350  0.57010  Biso   1.000  H
  C475     1.0000 0.12550  0.42392  0.57120  Biso   1.000  C
  C476     1.0000 0.13680  0.45234  0.60920  Biso   1.000  C
  H416     1.0000 0.17920  0.46480  0.61900  Biso   1.000  H
  C477     1.0000 0.53820  0.30756  0.54056  Biso   1.000  C
  C478     1.0000 0.48750  0.31609  0.48885  Biso   1.000  C
  H417     1.0000 0.46280  0.29810  0.46530  Biso   1.000  H
  C479     1.0000 0.57370  0.33533  0.57490  Biso   1.000  C
  H418     1.0000 0.60800  0.33050  0.60960  Biso   1.000  H
  C480     1.0000 0.55830  0.36989  0.55810  Biso   1.000  C
  H419     1.0000 0.58230  0.38800  0.58170  Biso   1.000  H
  C481     1.0000 0.55320  0.27088  0.55829  Biso   1.000  C
  C482     1.0000 0.47300  0.35072  0.47186  Biso   1.000  C
  H420     1.0000 0.43950  0.35570  0.43680  Biso   1.000  H
  C483     1.0000 0.50780  0.37814  0.50650  Biso   1.000  C
  C484     1.0000 0.60820  0.22358  0.59618  Biso   1.000  C
  C485     1.0000 0.72950  0.19996  0.61463  Biso   1.000  C
  H421     1.0000 0.73730  0.21760  0.59160  Biso   1.000  H
  C486     1.0000 0.78200  0.17559  0.63830  Biso   1.000  C
  H422     1.0000 0.82450  0.17690  0.63100  Biso   1.000  H
  C487     1.0000 0.77200  0.14910  0.67290  Biso   1.000  C
  C488     1.0000 0.70940  0.14827  0.68440  Biso   1.000  C
  H423     1.0000 0.70270  0.13110  0.70850  Biso   1.000  H
  C489     1.0000 0.65640  0.17254  0.66088  Biso   1.000  C
  H424     1.0000 0.61450  0.17150  0.66930  Biso   1.000  H
  C490     1.0000 0.66511  0.19870  0.62454  Biso   1.000  C
  C491     1.0000 0.16617  0.35294  0.68626  Biso   1.000  C
  C492     1.0000 0.23924  0.36592  0.71063  Biso   1.000  C
  C493     1.0000 0.26320  0.37555  0.76640  Biso   1.000  C
  H425     1.0000 0.23630  0.36990  0.78910  Biso   1.000  H
  C494     1.0000 0.28050  0.37295  0.67740  Biso   1.000  C
  H426     1.0000 0.26560  0.36600  0.63980  Biso   1.000  H
  C495     1.0000 0.32640  0.39355  0.79000  Biso   1.000  C
  H427     1.0000 0.34100  0.40020  0.82780  Biso   1.000  H
  C496     1.0000 0.36690  0.40140  0.75750  Biso   1.000  C
  C497     1.0000 0.34440  0.39060  0.70080  Biso   1.000  C
  H428     1.0000 0.37260  0.39520  0.67870  Biso   1.000  H
  C498     1.0000 0.01770  0.29998  0.60944  Biso   1.000  C
  C499     1.0000 0.02560  0.26459  0.62457  Biso   1.000  C
  H429     1.0000 0.06780  0.25690  0.65100  Biso   1.000  H
  C500     1.0000 0.97210  0.24067  0.60110  Biso   1.000  C
  H430     1.0000 0.97800  0.21710  0.61200  Biso   1.000  H
  C501     1.0000 0.90200  0.28641  0.54420  Biso   1.000  C
  H431     1.0000 0.86070  0.29370  0.51630  Biso   1.000  H
  C502     1.0000 0.90980  0.25171  0.56120  Biso   1.000  C
  C503     1.0000 0.07052  0.32578  0.64172  Biso   1.000  C
  C504     1.0000 0.95550  0.31064  0.56840  Biso   1.000  C
  H432     1.0000 0.94960  0.33410  0.55700  Biso   1.000  H
  Cu49     1.0000 0.53865  0.87174  0.83196  Biso   1.000  Cu
  Cu50     1.0000 0.55307  0.02543  0.86768  Biso   1.000  Cu
  Cu51     1.0000 0.09300  0.74508  0.99668  Biso   1.000  Cu
  Cu52     1.0000 0.79502  0.78175  0.88115  Biso   1.000  Cu
  Cu53     1.0000 0.00634  0.67107  0.93232  Biso   1.000  Cu
  Cu54     1.0000 0.31690  0.79395  0.88771  Biso   1.000  Cu
  Cu55     1.0000 0.15240  0.66888  0.91289  Biso   1.000  Cu
  Cu56     1.0000 0.60893  0.90539  0.74641  Biso   1.000  Cu
  Cl7      1.0000 0.12511  0.68122  0.00799  Biso   1.000  Cl
  N181     1.0000 0.55012  0.92245  0.82777  Biso   1.000  N
  N182     1.0000 0.55340  0.98044  0.83808  Biso   1.000  N
  N183     1.0000 0.59146  0.93601  0.79842  Biso   1.000  N
  N184     1.0000 0.27897  0.79562  0.08386  Biso   1.000  N
  N185     1.0000 0.22367  0.74573  0.08871  Biso   1.000  N
  N186     1.0000 0.18237  0.76411  0.04165  Biso   1.000  N
  N187     1.0000 0.99482  0.74535  0.95217  Biso   1.000  N
  N188     1.0000 0.95906  0.71477  0.92782  Biso   1.000  N
  N189     1.0000 0.88142  0.75831  0.91105  Biso   1.000  N
  N190     1.0000 0.53355  0.12633  0.91139  Biso   1.000  N
  N191     1.0000 0.59514  0.12764  0.89774  Biso   1.000  N
  N192     1.0000 0.56071  0.07214  0.89313  Biso   1.000  N
  N193     1.0000 0.38568  0.86934  0.80225  Biso   1.000  N
  N194     1.0000 0.44753  0.85176  0.83091  Biso   1.000  N
  N195     1.0000 0.35886  0.82541  0.84936  Biso   1.000  N
  N196     1.0000 0.70591  0.80240  0.85084  Biso   1.000  N
  N197     1.0000 0.61398  0.83802  0.83571  Biso   1.000  N
  N198     1.0000 0.59319  0.80945  0.79998  Biso   1.000  N
  N199     1.0000 0.67560  0.62420  0.80510  Biso   1.000  N
  H433     1.0000 0.68170  0.60770  0.78360  Biso   1.000  H
  H434     1.0000 0.63690  0.62520  0.81290  Biso   1.000  H
  N200     1.0000 0.63170  0.66717  0.67660  Biso   1.000  N
  H435     1.0000 0.59630  0.65310  0.67050  Biso   1.000  H
  H436     1.0000 0.66290  0.66340  0.66060  Biso   1.000  H
  N201     1.0000 0.32480  0.91488  0.95380  Biso   1.000  N
  H437     1.0000 0.33330  0.89790  0.97780  Biso   1.000  H
  H438     1.0000 0.28550  0.92620  0.94530  Biso   1.000  H
  N202     1.0000 0.74150  0.05139  0.69170  Biso   1.000  N
  H439     1.0000 0.72400  0.07090  0.67560  Biso   1.000  H
  H440     1.0000 0.78100  0.04380  0.68960  Biso   1.000  H
  N203     1.0000 0.64550  0.72751  0.96150  Biso   1.000  N
  H441     1.0000 0.68450  0.73430  0.98630  Biso   1.000  H
  H442     1.0000 0.64030  0.70590  0.95070  Biso   1.000  H
  N204     1.0000 0.07660  0.90631  0.89890  Biso   1.000  N
  H443     1.0000 0.08290  0.92750  0.91190  Biso   1.000  H
  H444     1.0000 0.04670  0.90230  0.86590  Biso   1.000  H
  N205     1.0000 0.00910  0.91296  0.00960  Biso   1.000  N
  H445     1.0000 0.04140  0.91760  0.04120  Biso   1.000  H
  H446     1.0000 0.98720  0.92980  0.98780  Biso   1.000  H
  N206     1.0000 0.47820  0.72603  0.32545  Biso   1.000  N
  H447     1.0000 0.48360  0.70430  0.33550  Biso   1.000  H
  H448     1.0000 0.50270  0.74210  0.34770  Biso   1.000  H
  N207     1.0000 0.85190  0.92312  0.03890  Biso   1.000  N
  H449     1.0000 0.87220  0.91480  0.07230  Biso   1.000  H
  H450     1.0000 0.85680  0.94500  0.03210  Biso   1.000  H
  N208     1.0000 0.86660  0.05709  0.85560  Biso   1.000  N
  H451     1.0000 0.88410  0.07010  0.83550  Biso   1.000  H
  H452     1.0000 0.88940  0.03890  0.87270  Biso   1.000  H
  N209     1.0000 0.29470  0.03533  0.97630  Biso   1.000  N
  H453     1.0000 0.29570  0.01330  0.98460  Biso   1.000  H
  H454     1.0000 0.25970  0.04820  0.97700  Biso   1.000  H
  N210     1.0000 0.06790  0.91930  0.71880  Biso   1.000  N
  H455     1.0000 0.05370  0.92530  0.68380  Biso   1.000  H
  H456     1.0000 0.04240  0.92420  0.73950  Biso   1.000  H
  C505     1.0000 0.21649  0.79394  0.04039  Biso   1.000  C
  C506     1.0000 0.14220  0.81647  0.94551  Biso   1.000  C
  H457     1.0000 0.13590  0.79360  0.93140  Biso   1.000  H
  C507     1.0000 0.11470  0.87853  0.93160  Biso   1.000  C
  C508     1.0000 0.16220  0.88502  0.98430  Biso   1.000  C
  H458     1.0000 0.17140  0.90810  0.99710  Biso   1.000  H
  C509     1.0000 0.18673  0.82257  0.00038  Biso   1.000  C
  C510     1.0000 0.19710  0.85733  0.01906  Biso   1.000  C
  H459     1.0000 0.22770  0.86220  0.05530  Biso   1.000  H
  C511     1.0000 0.10690  0.84413  0.91130  Biso   1.000  C
  H460     1.0000 0.07780  0.83960  0.87450  Biso   1.000  H
  C512     1.0000 0.28098  0.76538  0.11307  Biso   1.000  C
  C513     1.0000 0.33520  0.75502  0.16641  Biso   1.000  C
  C514     1.0000 0.37570  0.78020  0.20420  Biso   1.000  C
  H461     1.0000 0.37120  0.80390  0.19410  Biso   1.000  H
  C515     1.0000 0.42240  0.77025  0.25630  Biso   1.000  C
  H462     1.0000 0.44930  0.78740  0.28050  Biso   1.000  H
  C516     1.0000 0.34320  0.71985  0.18390  Biso   1.000  C
  H463     1.0000 0.31680  0.70250  0.15980  Biso   1.000  H
  C517     1.0000 0.42980  0.73532  0.27310  Biso   1.000  C
  C518     1.0000 0.38960  0.71024  0.23640  Biso   1.000  C
  H464     1.0000 0.39380  0.68670  0.24700  Biso   1.000  H
  C519     1.0000 0.60996  0.09500  0.88748  Biso   1.000  C
  C520     1.0000 0.67400  0.08461  0.87586  Biso   1.000  C
  C521     1.0000 0.70140  0.10408  0.84180  Biso   1.000  C
  H465     1.0000 0.67750  0.12410  0.82380  Biso   1.000  H
  C522     1.0000 0.76450  0.09436  0.83390  Biso   1.000  C
  H466     1.0000 0.78170  0.10760  0.81020  Biso   1.000  H
  C523     1.0000 0.71130  0.05483  0.90210  Biso   1.000  C
  H467     1.0000 0.69350  0.04100  0.92490  Biso   1.000  H
  C524     1.0000 0.80140  0.06555  0.86070  Biso   1.000  C
  C525     1.0000 0.77410  0.04546  0.89480  Biso   1.000  C
  H468     1.0000 0.79840  0.02560  0.91290  Biso   1.000  H
  C526     1.0000 0.51493  0.09263  0.90922  Biso   1.000  C
  C527     1.0000 0.45740  0.04330  0.94260  Biso   1.000  C
  H469     1.0000 0.49440  0.02870  0.94190  Biso   1.000  H
  C528     1.0000 0.40480  0.02986  0.96020  Biso   1.000  C
  H470     1.0000 0.40720  0.00640  0.97140  Biso   1.000  H
  C529     1.0000 0.45660  0.07855  0.92574  Biso   1.000  C
  C530     1.0000 0.40190  0.09920  0.93020  Biso   1.000  C
  H471     1.0000 0.40100  0.12300  0.92120  Biso   1.000  H
  C531     1.0000 0.34920  0.08577  0.94740  Biso   1.000  C
  H472     1.0000 0.31310  0.10040  0.94980  Biso   1.000  H
  C532     1.0000 0.34900  0.04991  0.96160  Biso   1.000  C
  C533     1.0000 0.72524  0.85694  0.91061  Biso   1.000  C
  C534     1.0000 0.76120  0.84429  0.96400  Biso   1.000  C
  H473     1.0000 0.75710  0.82060  0.97200  Biso   1.000  H
  C535     1.0000 0.73170  0.89214  0.90080  Biso   1.000  C
  H474     1.0000 0.70690  0.90160  0.86560  Biso   1.000  H
  C536     1.0000 0.68172  0.83315  0.86582  Biso   1.000  C
  C537     1.0000 0.80330  0.86621  0.00620  Biso   1.000  C
  H475     1.0000 0.82640  0.85710  0.04200  Biso   1.000  H
  C538     1.0000 0.77490  0.91392  0.94290  Biso   1.000  C
  H476     1.0000 0.77930  0.93760  0.93510  Biso   1.000  H
  C539     1.0000 0.81110  0.90098  0.99550  Biso   1.000  C
  C540     1.0000 0.64844  0.75580  0.77895  Biso   1.000  C
  C541     1.0000 0.69940  0.74878  0.75416  Biso   1.000  C
  H477     1.0000 0.73710  0.76430  0.75960  Biso   1.000  H
  C542     1.0000 0.69480  0.71922  0.72170  Biso   1.000  C
  H478     1.0000 0.73000  0.71470  0.70600  Biso   1.000  H
  C543     1.0000 0.59340  0.73176  0.77086  Biso   1.000  C
  H479     1.0000 0.55940  0.73570  0.78800  Biso   1.000  H
  C544     1.0000 0.64922  0.78869  0.80991  Biso   1.000  C
  C545     1.0000 0.63830  0.69591  0.71197  Biso   1.000  C
  C546     1.0000 0.58870  0.70256  0.73819  Biso   1.000  C
  H480     1.0000 0.55160  0.68680  0.73340  Biso   1.000  H
  C547     1.0000 0.59299  0.97062  0.80547  Biso   1.000  C
  C548     1.0000 0.63330  0.99338  0.77999  Biso   1.000  C
  C549     1.0000 0.60640  0.02536  0.75413  Biso   1.000  C
  H481     1.0000 0.56410  0.03400  0.75660  Biso   1.000  H
  C550     1.0000 0.70570  0.03212  0.72140  Biso   1.000  C
  C551     1.0000 0.69790  0.98192  0.77710  Biso   1.000  C
  H482     1.0000 0.71700  0.96090  0.79460  Biso   1.000  H
  C552     1.0000 0.64200  0.04425  0.72500  Biso   1.000  C
  H483     1.0000 0.62310  0.06530  0.70760  Biso   1.000  H
  C553     1.0000 0.73410  0.00074  0.74920  Biso   1.000  C
  H484     1.0000 0.77770  0.99270  0.74860  Biso   1.000  H
  C554     1.0000 0.41440  0.96195  0.86800  Biso   1.000  C
  H485     1.0000 0.40610  0.98100  0.84320  Biso   1.000  H
  C555     1.0000 0.43800  0.90595  0.94198  Biso   1.000  C
  H486     1.0000 0.44630  0.88690  0.96650  Biso   1.000  H
  C556     1.0000 0.47790  0.94385  0.88114  Biso   1.000  C
  C557     1.0000 0.52742  0.94937  0.85043  Biso   1.000  C
  C558     1.0000 0.48900  0.91571  0.91957  Biso   1.000  C
  H487     1.0000 0.53180  0.90350  0.92990  Biso   1.000  H
  C559     1.0000 0.37450  0.92392  0.92880  Biso   1.000  C
  C560     1.0000 0.36320  0.95234  0.89080  Biso   1.000  C
  H488     1.0000 0.32080  0.96480  0.88100  Biso   1.000  H
  C561     1.0000 0.96180  0.80756  0.95944  Biso   1.000  C
  C562     1.0000 0.01250  0.81609  0.01115  Biso   1.000  C
  H489     1.0000 0.03720  0.79810  0.03470  Biso   1.000  H
  C563     1.0000 0.92630  0.83533  0.92510  Biso   1.000  C
  H490     1.0000 0.89200  0.83050  0.89040  Biso   1.000  H
  C564     1.0000 0.94170  0.86989  0.94190  Biso   1.000  C
  H491     1.0000 0.91770  0.88800  0.91830  Biso   1.000  H
  C565     1.0000 0.94680  0.77088  0.94171  Biso   1.000  C
  C566     1.0000 0.02700  0.85072  0.02814  Biso   1.000  C
  H492     1.0000 0.06050  0.85570  0.06320  Biso   1.000  H
  C567     1.0000 0.99220  0.87814  0.99350  Biso   1.000  C
  C568     1.0000 0.89180  0.72358  0.90382  Biso   1.000  C
  C569     1.0000 0.77050  0.69996  0.88537  Biso   1.000  C
  H493     1.0000 0.76270  0.71760  0.90840  Biso   1.000  H
  C570     1.0000 0.71800  0.67559  0.86170  Biso   1.000  C
  H494     1.0000 0.67550  0.67690  0.86900  Biso   1.000  H
  C571     1.0000 0.72800  0.64910  0.82710  Biso   1.000  C
  C572     1.0000 0.79060  0.64827  0.81560  Biso   1.000  C
  H495     1.0000 0.79730  0.63110  0.79150  Biso   1.000  H
  C573     1.0000 0.84360  0.67254  0.83912  Biso   1.000  C
  H496     1.0000 0.88550  0.67150  0.83070  Biso   1.000  H
  C574     1.0000 0.83489  0.69870  0.87546  Biso   1.000  C
  C575     1.0000 0.33383  0.85294  0.81374  Biso   1.000  C
  C576     1.0000 0.26076  0.86592  0.78937  Biso   1.000  C
  C577     1.0000 0.23680  0.87555  0.73360  Biso   1.000  C
  H497     1.0000 0.26370  0.86990  0.71090  Biso   1.000  H
  C578     1.0000 0.21950  0.87295  0.82260  Biso   1.000  C
  H498     1.0000 0.23440  0.86600  0.86020  Biso   1.000  H
  C579     1.0000 0.17360  0.89355  0.71000  Biso   1.000  C
  H499     1.0000 0.15900  0.90020  0.67220  Biso   1.000  H
  C580     1.0000 0.13310  0.90140  0.74250  Biso   1.000  C
  C581     1.0000 0.15560  0.89060  0.79920  Biso   1.000  C
  H500     1.0000 0.12740  0.89520  0.82130  Biso   1.000  H
  C582     1.0000 0.48230  0.79998  0.89056  Biso   1.000  C
  C583     1.0000 0.47440  0.76459  0.87543  Biso   1.000  C
  H501     1.0000 0.43220  0.75690  0.84900  Biso   1.000  H
  C584     1.0000 0.52790  0.74067  0.89890  Biso   1.000  C
  H502     1.0000 0.52200  0.71710  0.88800  Biso   1.000  H
  C585     1.0000 0.59800  0.78641  0.95580  Biso   1.000  C
  H503     1.0000 0.63930  0.79370  0.98370  Biso   1.000  H
  C586     1.0000 0.59020  0.75171  0.93880  Biso   1.000  C
  C587     1.0000 0.42948  0.82578  0.85828  Biso   1.000  C
  C588     1.0000 0.54450  0.81064  0.93160  Biso   1.000  C
  H504     1.0000 0.55040  0.83410  0.94300  Biso   1.000  H
  Cu57     1.0000 0.03865  0.37174  0.83196  Biso   1.000  Cu
  Cu58     1.0000 0.05307  0.52543  0.86768  Biso   1.000  Cu
  Cu59     1.0000 0.59300  0.24508  0.99668  Biso   1.000  Cu
  Cu60     1.0000 0.29502  0.28175  0.88115  Biso   1.000  Cu
  Cu61     1.0000 0.50634  0.17107  0.93232  Biso   1.000  Cu
  Cu62     1.0000 0.81690  0.29395  0.88771  Biso   1.000  Cu
  Cu63     1.0000 0.65240  0.16888  0.91289  Biso   1.000  Cu
  Cu64     1.0000 0.10893  0.40539  0.74641  Biso   1.000  Cu
  Cl8      1.0000 0.62511  0.18122  0.00799  Biso   1.000  Cl
  N211     1.0000 0.05012  0.42245  0.82777  Biso   1.000  N
  N212     1.0000 0.05340  0.48044  0.83808  Biso   1.000  N
  N213     1.0000 0.09146  0.43601  0.79842  Biso   1.000  N
  N214     1.0000 0.77897  0.29562  0.08386  Biso   1.000  N
  N215     1.0000 0.72367  0.24573  0.08871  Biso   1.000  N
  N216     1.0000 0.68237  0.26411  0.04165  Biso   1.000  N
  N217     1.0000 0.49482  0.24535  0.95217  Biso   1.000  N
  N218     1.0000 0.45906  0.21477  0.92782  Biso   1.000  N
  N219     1.0000 0.38142  0.25831  0.91105  Biso   1.000  N
  N220     1.0000 0.03355  0.62633  0.91139  Biso   1.000  N
  N221     1.0000 0.09514  0.62764  0.89774  Biso   1.000  N
  N222     1.0000 0.06071  0.57214  0.89313  Biso   1.000  N
  N223     1.0000 0.88568  0.36934  0.80225  Biso   1.000  N
  N224     1.0000 0.94753  0.35176  0.83091  Biso   1.000  N
  N225     1.0000 0.85886  0.32541  0.84936  Biso   1.000  N
  N226     1.0000 0.20591  0.30240  0.85084  Biso   1.000  N
  N227     1.0000 0.11398  0.33802  0.83571  Biso   1.000  N
  N228     1.0000 0.09319  0.30945  0.79998  Biso   1.000  N
  N229     1.0000 0.17560  0.12420  0.80510  Biso   1.000  N
  H505     1.0000 0.18170  0.10770  0.78360  Biso   1.000  H
  H506     1.0000 0.13690  0.12520  0.81290  Biso   1.000  H
  N230     1.0000 0.13170  0.16717  0.67660  Biso   1.000  N
  H507     1.0000 0.09630  0.15310  0.67050  Biso   1.000  H
  H508     1.0000 0.16290  0.16340  0.66060  Biso   1.000  H
  N231     1.0000 0.82480  0.41488  0.95380  Biso   1.000  N
  H509     1.0000 0.83330  0.39790  0.97780  Biso   1.000  H
  H510     1.0000 0.78550  0.42620  0.94530  Biso   1.000  H
  N232     1.0000 0.24150  0.55139  0.69170  Biso   1.000  N
  H511     1.0000 0.22400  0.57090  0.67560  Biso   1.000  H
  H512     1.0000 0.28100  0.54380  0.68960  Biso   1.000  H
  N233     1.0000 0.14550  0.22751  0.96150  Biso   1.000  N
  H513     1.0000 0.18450  0.23430  0.98630  Biso   1.000  H
  H514     1.0000 0.14030  0.20590  0.95070  Biso   1.000  H
  N234     1.0000 0.57660  0.40631  0.89890  Biso   1.000  N
  H515     1.0000 0.58290  0.42750  0.91190  Biso   1.000  H
  H516     1.0000 0.54670  0.40230  0.86590  Biso   1.000  H
  N235     1.0000 0.50910  0.41296  0.00960  Biso   1.000  N
  H517     1.0000 0.54140  0.41760  0.04120  Biso   1.000  H
  H518     1.0000 0.48720  0.42980  0.98780  Biso   1.000  H
  N236     1.0000 0.97820  0.22603  0.32545  Biso   1.000  N
  H519     1.0000 0.98360  0.20430  0.33550  Biso   1.000  H
  H520     1.0000 0.00270  0.24210  0.34770  Biso   1.000  H
  N237     1.0000 0.35190  0.42312  0.03890  Biso   1.000  N
  H521     1.0000 0.37220  0.41480  0.07230  Biso   1.000  H
  H522     1.0000 0.35680  0.44500  0.03210  Biso   1.000  H
  N238     1.0000 0.36660  0.55709  0.85560  Biso   1.000  N
  H523     1.0000 0.38410  0.57010  0.83550  Biso   1.000  H
  H524     1.0000 0.38940  0.53890  0.87270  Biso   1.000  H
  N239     1.0000 0.79470  0.53533  0.97630  Biso   1.000  N
  H525     1.0000 0.79570  0.51330  0.98460  Biso   1.000  H
  H526     1.0000 0.75970  0.54820  0.97700  Biso   1.000  H
  N240     1.0000 0.56790  0.41930  0.71880  Biso   1.000  N
  H527     1.0000 0.55370  0.42530  0.68380  Biso   1.000  H
  H528     1.0000 0.54240  0.42420  0.73950  Biso   1.000  H
  C589     1.0000 0.71649  0.29394  0.04039  Biso   1.000  C
  C590     1.0000 0.64220  0.31647  0.94551  Biso   1.000  C
  H529     1.0000 0.63590  0.29360  0.93140  Biso   1.000  H
  C591     1.0000 0.61470  0.37853  0.93160  Biso   1.000  C
  C592     1.0000 0.66220  0.38502  0.98430  Biso   1.000  C
  H530     1.0000 0.67140  0.40810  0.99710  Biso   1.000  H
  C593     1.0000 0.68673  0.32257  0.00038  Biso   1.000  C
  C594     1.0000 0.69710  0.35733  0.01906  Biso   1.000  C
  H531     1.0000 0.72770  0.36220  0.05530  Biso   1.000  H
  C595     1.0000 0.60690  0.34413  0.91130  Biso   1.000  C
  H532     1.0000 0.57780  0.33960  0.87450  Biso   1.000  H
  C596     1.0000 0.78098  0.26538  0.11307  Biso   1.000  C
  C597     1.0000 0.83520  0.25502  0.16641  Biso   1.000  C
  C598     1.0000 0.87570  0.28020  0.20420  Biso   1.000  C
  H533     1.0000 0.87120  0.30390  0.19410  Biso   1.000  H
  C599     1.0000 0.92240  0.27025  0.25630  Biso   1.000  C
  H534     1.0000 0.94930  0.28740  0.28050  Biso   1.000  H
  C600     1.0000 0.84320  0.21985  0.18390  Biso   1.000  C
  H535     1.0000 0.81680  0.20250  0.15980  Biso   1.000  H
  C601     1.0000 0.92980  0.23532  0.27310  Biso   1.000  C
  C602     1.0000 0.88960  0.21024  0.23640  Biso   1.000  C
  H536     1.0000 0.89380  0.18670  0.24700  Biso   1.000  H
  C603     1.0000 0.10996  0.59500  0.88748  Biso   1.000  C
  C604     1.0000 0.17400  0.58461  0.87586  Biso   1.000  C
  C605     1.0000 0.20140  0.60408  0.84180  Biso   1.000  C
  H537     1.0000 0.17750  0.62410  0.82380  Biso   1.000  H
  C606     1.0000 0.26450  0.59436  0.83390  Biso   1.000  C
  H538     1.0000 0.28170  0.60760  0.81020  Biso   1.000  H
  C607     1.0000 0.21130  0.55483  0.90210  Biso   1.000  C
  H539     1.0000 0.19350  0.54100  0.92490  Biso   1.000  H
  C608     1.0000 0.30140  0.56555  0.86070  Biso   1.000  C
  C609     1.0000 0.27410  0.54546  0.89480  Biso   1.000  C
  H540     1.0000 0.29840  0.52560  0.91290  Biso   1.000  H
  C610     1.0000 0.01493  0.59263  0.90922  Biso   1.000  C
  C611     1.0000 0.95740  0.54330  0.94260  Biso   1.000  C
  H541     1.0000 0.99440  0.52870  0.94190  Biso   1.000  H
  C612     1.0000 0.90480  0.52986  0.96020  Biso   1.000  C
  H542     1.0000 0.90720  0.50640  0.97140  Biso   1.000  H
  C613     1.0000 0.95660  0.57855  0.92574  Biso   1.000  C
  C614     1.0000 0.90190  0.59920  0.93020  Biso   1.000  C
  H543     1.0000 0.90100  0.62300  0.92120  Biso   1.000  H
  C615     1.0000 0.84920  0.58577  0.94740  Biso   1.000  C
  H544     1.0000 0.81310  0.60040  0.94980  Biso   1.000  H
  C616     1.0000 0.84900  0.54991  0.96160  Biso   1.000  C
  C617     1.0000 0.22524  0.35694  0.91061  Biso   1.000  C
  C618     1.0000 0.26120  0.34429  0.96400  Biso   1.000  C
  H545     1.0000 0.25710  0.32060  0.97200  Biso   1.000  H
  C619     1.0000 0.23170  0.39214  0.90080  Biso   1.000  C
  H546     1.0000 0.20690  0.40160  0.86560  Biso   1.000  H
  C620     1.0000 0.18172  0.33315  0.86582  Biso   1.000  C
  C621     1.0000 0.30330  0.36621  0.00620  Biso   1.000  C
  H547     1.0000 0.32640  0.35710  0.04200  Biso   1.000  H
  C622     1.0000 0.27490  0.41392  0.94290  Biso   1.000  C
  H548     1.0000 0.27930  0.43760  0.93510  Biso   1.000  H
  C623     1.0000 0.31110  0.40098  0.99550  Biso   1.000  C
  C624     1.0000 0.14844  0.25580  0.77895  Biso   1.000  C
  C625     1.0000 0.19940  0.24878  0.75416  Biso   1.000  C
  H549     1.0000 0.23710  0.26430  0.75960  Biso   1.000  H
  C626     1.0000 0.19480  0.21922  0.72170  Biso   1.000  C
  H550     1.0000 0.23000  0.21470  0.70600  Biso   1.000  H
  C627     1.0000 0.09340  0.23176  0.77086  Biso   1.000  C
  H551     1.0000 0.05940  0.23570  0.78800  Biso   1.000  H
  C628     1.0000 0.14922  0.28869  0.80991  Biso   1.000  C
  C629     1.0000 0.13830  0.19591  0.71197  Biso   1.000  C
  C630     1.0000 0.08870  0.20256  0.73819  Biso   1.000  C
  H552     1.0000 0.05160  0.18680  0.73340  Biso   1.000  H
  C631     1.0000 0.09299  0.47062  0.80547  Biso   1.000  C
  C632     1.0000 0.13330  0.49338  0.77999  Biso   1.000  C
  C633     1.0000 0.10640  0.52536  0.75413  Biso   1.000  C
  H553     1.0000 0.06410  0.53400  0.75660  Biso   1.000  H
  C634     1.0000 0.20570  0.53212  0.72140  Biso   1.000  C
  C635     1.0000 0.19790  0.48192  0.77710  Biso   1.000  C
  H554     1.0000 0.21700  0.46090  0.79460  Biso   1.000  H
  C636     1.0000 0.14200  0.54425  0.72500  Biso   1.000  C
  H555     1.0000 0.12310  0.56530  0.70760  Biso   1.000  H
  C637     1.0000 0.23410  0.50074  0.74920  Biso   1.000  C
  H556     1.0000 0.27770  0.49270  0.74860  Biso   1.000  H
  C638     1.0000 0.91440  0.46195  0.86800  Biso   1.000  C
  H557     1.0000 0.90610  0.48100  0.84320  Biso   1.000  H
  C639     1.0000 0.93800  0.40595  0.94198  Biso   1.000  C
  H558     1.0000 0.94630  0.38690  0.96650  Biso   1.000  H
  C640     1.0000 0.97790  0.44385  0.88114  Biso   1.000  C
  C641     1.0000 0.02742  0.44937  0.85043  Biso   1.000  C
  C642     1.0000 0.98900  0.41571  0.91957  Biso   1.000  C
  H559     1.0000 0.03180  0.40350  0.92990  Biso   1.000  H
  C643     1.0000 0.87450  0.42392  0.92880  Biso   1.000  C
  C644     1.0000 0.86320  0.45234  0.89080  Biso   1.000  C
  H560     1.0000 0.82080  0.46480  0.88100  Biso   1.000  H
  C645     1.0000 0.46180  0.30756  0.95944  Biso   1.000  C
  C646     1.0000 0.51250  0.31609  0.01115  Biso   1.000  C
  H561     1.0000 0.53720  0.29810  0.03470  Biso   1.000  H
  C647     1.0000 0.42630  0.33533  0.92510  Biso   1.000  C
  H562     1.0000 0.39200  0.33050  0.89040  Biso   1.000  H
  C648     1.0000 0.44170  0.36989  0.94190  Biso   1.000  C
  H563     1.0000 0.41770  0.38800  0.91830  Biso   1.000  H
  C649     1.0000 0.44680  0.27088  0.94171  Biso   1.000  C
  C650     1.0000 0.52700  0.35072  0.02814  Biso   1.000  C
  H564     1.0000 0.56050  0.35570  0.06320  Biso   1.000  H
  C651     1.0000 0.49220  0.37814  0.99350  Biso   1.000  C
  C652     1.0000 0.39180  0.22358  0.90382  Biso   1.000  C
  C653     1.0000 0.27050  0.19996  0.88537  Biso   1.000  C
  H565     1.0000 0.26270  0.21760  0.90840  Biso   1.000  H
  C654     1.0000 0.21800  0.17559  0.86170  Biso   1.000  C
  H566     1.0000 0.17550  0.17690  0.86900  Biso   1.000  H
  C655     1.0000 0.22800  0.14910  0.82710  Biso   1.000  C
  C656     1.0000 0.29060  0.14827  0.81560  Biso   1.000  C
  H567     1.0000 0.29730  0.13110  0.79150  Biso   1.000  H
  C657     1.0000 0.34360  0.17254  0.83912  Biso   1.000  C
  H568     1.0000 0.38550  0.17150  0.83070  Biso   1.000  H
  C658     1.0000 0.33489  0.19870  0.87546  Biso   1.000  C
  C659     1.0000 0.83383  0.35294  0.81374  Biso   1.000  C
  C660     1.0000 0.76076  0.36592  0.78937  Biso   1.000  C
  C661     1.0000 0.73680  0.37555  0.73360  Biso   1.000  C
  H569     1.0000 0.76370  0.36990  0.71090  Biso   1.000  H
  C662     1.0000 0.71950  0.37295  0.82260  Biso   1.000  C
  H570     1.0000 0.73440  0.36600  0.86020  Biso   1.000  H
  C663     1.0000 0.67360  0.39355  0.71000  Biso   1.000  C
  H571     1.0000 0.65900  0.40020  0.67220  Biso   1.000  H
  C664     1.0000 0.63310  0.40140  0.74250  Biso   1.000  C
  C665     1.0000 0.65560  0.39060  0.79920  Biso   1.000  C
  H572     1.0000 0.62740  0.39520  0.82130  Biso   1.000  H
  C666     1.0000 0.98230  0.29998  0.89056  Biso   1.000  C
  C667     1.0000 0.97440  0.26459  0.87543  Biso   1.000  C
  H573     1.0000 0.93220  0.25690  0.84900  Biso   1.000  H
  C668     1.0000 0.02790  0.24067  0.89890  Biso   1.000  C
  H574     1.0000 0.02200  0.21710  0.88800  Biso   1.000  H
  C669     1.0000 0.09800  0.28641  0.95580  Biso   1.000  C
  H575     1.0000 0.13930  0.29370  0.98370  Biso   1.000  H
  C670     1.0000 0.09020  0.25171  0.93880  Biso   1.000  C
  C671     1.0000 0.92948  0.32578  0.85828  Biso   1.000  C
  C672     1.0000 0.04450  0.31064  0.93160  Biso   1.000  C
  H576     1.0000 0.05040  0.33410  0.94300  Biso   1.000  H
  Cu65     1.0000 0.50000  0.19193  0.25000  Biso   1.000  Cu
  Cu66     1.0000 0.00000  0.69193  0.25000  Biso   1.000  Cu
  Cu67     1.0000 0.50000  0.80807  0.75000  Biso   1.000  Cu
  Cu68     1.0000 0.00000  0.30807  0.75000  Biso   1.000  Cu
