data_image0
_cell_length_a       20.014
_cell_length_b       37.956
_cell_length_c       25.085
_cell_angle_alpha    90
_cell_angle_beta     109.384
_cell_angle_gamma    90

_symmetry_space_group_name_H-M    "P 1"
_symmetry_int_tables_number       1

loop_
  _symmetry_equiv_pos_as_xyz
  'x, y, z'

loop_
  _atom_site_label
  _atom_site_occupancy
  _atom_site_fract_x
  _atom_site_fract_y
  _atom_site_fract_z
  _atom_site_thermal_displace_type
  _atom_site_B_iso_or_equiv
  _atom_site_type_symbol
  Cu1      1.0000 0.53862  0.12826  0.33194  Biso   1.000  Cu
  Cu2      1.0000 0.55307  0.97457  0.36771  Biso   1.000  Cu
  Cu3      1.0000 0.09299  0.25492  0.49668  Biso   1.000  Cu
  Cu4      1.0000 0.79501  0.21825  0.38115  Biso   1.000  Cu
  Cu5      1.0000 0.00632  0.32893  0.43230  Biso   1.000  Cu
  Cu6      1.0000 0.31689  0.20606  0.38772  Biso   1.000  Cu
  Cu7      1.0000 0.15240  0.33111  0.41289  Biso   1.000  Cu
  Cu8      1.0000 0.60894  0.09461  0.24641  Biso   1.000  Cu
  Cl1      1.0000 0.12511  0.31878  0.50801  Biso   1.000  Cl
  N1       1.0000 0.55001  0.07761  0.32769  Biso   1.000  N
  N2       1.0000 0.55345  0.01954  0.33807  Biso   1.000  N
  N3       1.0000 0.59168  0.06401  0.29842  Biso   1.000  N
  N4       1.0000 0.27892  0.20439  0.58383  Biso   1.000  N
  N5       1.0000 0.22380  0.25430  0.58884  Biso   1.000  N
  N6       1.0000 0.18248  0.23586  0.54170  Biso   1.000  N
  N7       1.0000 0.99476  0.25470  0.45230  Biso   1.000  N
  N8       1.0000 0.95916  0.28523  0.42799  Biso   1.000  N
  N9       1.0000 0.88139  0.24166  0.41097  Biso   1.000  N
  N10      1.0000 0.53335  0.87366  0.41133  Biso   1.000  N
  N11      1.0000 0.59498  0.87230  0.39766  Biso   1.000  N
  N12      1.0000 0.56059  0.92790  0.39329  Biso   1.000  N
  N13      1.0000 0.38571  0.13065  0.30241  Biso   1.000  N
  N14      1.0000 0.44739  0.14820  0.33095  Biso   1.000  N
  N15      1.0000 0.35883  0.17458  0.34934  Biso   1.000  N
  N16      1.0000 0.70605  0.19759  0.35092  Biso   1.000  N
  N17      1.0000 0.61407  0.16187  0.33571  Biso   1.000  N
  N18      1.0000 0.59328  0.19056  0.29996  Biso   1.000  N
  N19      1.0000 0.67580  0.37594  0.30510  Biso   1.000  N
  H1       1.0000 0.68210  0.39240  0.28380  Biso   1.000  H
  H2       1.0000 0.63710  0.37500  0.31280  Biso   1.000  H
  N20      1.0000 0.63150  0.33296  0.17670  Biso   1.000  N
  H3       1.0000 0.59620  0.34710  0.17090  Biso   1.000  H
  H4       1.0000 0.66270  0.33680  0.16060  Biso   1.000  H
  N21      1.0000 0.32490  0.08509  0.45360  Biso   1.000  N
  H5       1.0000 0.33330  0.10210  0.47750  Biso   1.000  H
  H6       1.0000 0.28560  0.07370  0.44510  Biso   1.000  H
  N22      1.0000 0.74130  0.94838  0.19210  Biso   1.000  N
  H7       1.0000 0.72400  0.92880  0.17630  Biso   1.000  H
  H8       1.0000 0.78070  0.95600  0.18990  Biso   1.000  H
  N23      1.0000 0.64560  0.27246  0.46180  Biso   1.000  N
  H9       1.0000 0.68460  0.26550  0.48640  Biso   1.000  H
  H10      1.0000 0.64070  0.29410  0.45120  Biso   1.000  H
  N24      1.0000 0.07630  0.09373  0.39850  Biso   1.000  N
  H11      1.0000 0.08250  0.07250  0.41140  Biso   1.000  H
  H12      1.0000 0.04650  0.09790  0.36550  Biso   1.000  H
  N25      1.0000 0.00910  0.08717  0.50960  Biso   1.000  N
  H13      1.0000 0.04120  0.08250  0.54130  Biso   1.000  H
  H14      1.0000 0.98720  0.07030  0.48780  Biso   1.000  H
  N26      1.0000 0.47810  0.27396  0.82569  Biso   1.000  N
  H15      1.0000 0.48330  0.29570  0.83600  Biso   1.000  H
  H16      1.0000 0.50280  0.25790  0.84770  Biso   1.000  H
  N27      1.0000 0.85210  0.07704  0.53860  Biso   1.000  N
  H17      1.0000 0.87250  0.08530  0.57200  Biso   1.000  H
  H18      1.0000 0.85700  0.05520  0.53170  Biso   1.000  H
  N28      1.0000 0.86650  0.94282  0.35550  Biso   1.000  N
  H19      1.0000 0.88380  0.92980  0.33530  Biso   1.000  H
  H20      1.0000 0.88950  0.96100  0.37250  Biso   1.000  H
  N29      1.0000 0.29530  0.96480  0.47720  Biso   1.000  N
  H21      1.0000 0.29720  0.98670  0.48650  Biso   1.000  H
  H22      1.0000 0.26000  0.95210  0.47770  Biso   1.000  H
  N30      1.0000 0.06800  0.08130  0.21770  Biso   1.000  N
  H23      1.0000 0.05410  0.07550  0.18250  Biso   1.000  H
  H24      1.0000 0.04210  0.07640  0.23810  Biso   1.000  H
  C1       1.0000 0.21661  0.20600  0.54046  Biso   1.000  C
  C2       1.0000 0.14250  0.18350  0.44541  Biso   1.000  C
  H25      1.0000 0.13640  0.20640  0.43130  Biso   1.000  H
  C3       1.0000 0.11460  0.12149  0.43150  Biso   1.000  C
  C4       1.0000 0.16280  0.11504  0.48490  Biso   1.000  C
  H26      1.0000 0.17200  0.09200  0.49780  Biso   1.000  H
  C5       1.0000 0.18682  0.17739  0.50043  Biso   1.000  C
  C6       1.0000 0.19710  0.14264  0.51901  Biso   1.000  C
  H27      1.0000 0.22780  0.13790  0.55520  Biso   1.000  H
  C7       1.0000 0.10720  0.15594  0.41124  Biso   1.000  C
  H28      1.0000 0.07820  0.16050  0.37440  Biso   1.000  H
  C8       1.0000 0.28093  0.23466  0.61314  Biso   1.000  C
  C9       1.0000 0.33512  0.24495  0.66643  Biso   1.000  C
  C10      1.0000 0.37530  0.21982  0.70402  Biso   1.000  C
  H29      1.0000 0.37070  0.19620  0.69380  Biso   1.000  H
  C11      1.0000 0.42230  0.22964  0.75650  Biso   1.000  C
  H30      1.0000 0.44910  0.21250  0.78080  Biso   1.000  H
  C12      1.0000 0.34290  0.28005  0.68392  Biso   1.000  C
  H31      1.0000 0.31650  0.29730  0.65970  Biso   1.000  H
  C13      1.0000 0.42970  0.26477  0.77310  Biso   1.000  C
  C14      1.0000 0.38930  0.28988  0.73680  Biso   1.000  C
  H32      1.0000 0.39310  0.31340  0.74760  Biso   1.000  H
  C15      1.0000 0.61014  0.90500  0.38766  Biso   1.000  C
  C16      1.0000 0.67420  0.91545  0.37584  Biso   1.000  C
  C17      1.0000 0.70150  0.89599  0.34150  Biso   1.000  C
  H33      1.0000 0.67730  0.87610  0.32330  Biso   1.000  H
  C18      1.0000 0.76420  0.90555  0.33370  Biso   1.000  C
  H34      1.0000 0.78150  0.89230  0.31000  Biso   1.000  H
  C19      1.0000 0.71150  0.94517  0.40210  Biso   1.000  C
  H35      1.0000 0.69380  0.95890  0.42510  Biso   1.000  H
  C20      1.0000 0.80120  0.93451  0.36070  Biso   1.000  C
  C21      1.0000 0.77390  0.95456  0.39480  Biso   1.000  C
  H36      1.0000 0.79810  0.97450  0.41270  Biso   1.000  H
  C22      1.0000 0.51485  0.90742  0.40934  Biso   1.000  C
  C23      1.0000 0.45740  0.95674  0.44260  Biso   1.000  C
  H37      1.0000 0.49440  0.97130  0.44170  Biso   1.000  H
  C24      1.0000 0.40520  0.97024  0.46030  Biso   1.000  C
  H38      1.0000 0.40790  0.99360  0.47190  Biso   1.000  H
  C25      1.0000 0.45670  0.92146  0.42600  Biso   1.000  C
  C26      1.0000 0.40230  0.90078  0.43050  Biso   1.000  C
  H39      1.0000 0.40180  0.87690  0.42220  Biso   1.000  H
  C27      1.0000 0.34880  0.91447  0.44680  Biso   1.000  C
  H40      1.0000 0.31200  0.90000  0.44840  Biso   1.000  H
  C28      1.0000 0.34910  0.95009  0.46120  Biso   1.000  C
  C29      1.0000 0.72505  0.14308  0.41061  Biso   1.000  C
  C30      1.0000 0.76110  0.15567  0.46396  Biso   1.000  C
  H41      1.0000 0.75710  0.17930  0.47200  Biso   1.000  H
  C31      1.0000 0.73140  0.10781  0.40080  Biso   1.000  C
  H42      1.0000 0.70630  0.09840  0.36550  Biso   1.000  H
  C32      1.0000 0.68159  0.16685  0.36568  Biso   1.000  C
  C33      1.0000 0.80320  0.13373  0.50600  Biso   1.000  C
  H43      1.0000 0.82630  0.14280  0.54180  Biso   1.000  H
  C34      1.0000 0.77470  0.08588  0.44250  Biso   1.000  C
  H44      1.0000 0.77910  0.06220  0.43470  Biso   1.000  H
  C35      1.0000 0.81110  0.09915  0.49540  Biso   1.000  C
  C36      1.0000 0.64846  0.24409  0.27879  Biso   1.000  C
  C37      1.0000 0.69940  0.25112  0.25408  Biso   1.000  C
  H45      1.0000 0.73720  0.23570  0.25950  Biso   1.000  H
  C38      1.0000 0.69450  0.28083  0.22160  Biso   1.000  C
  H46      1.0000 0.72960  0.28540  0.20580  Biso   1.000  H
  C39      1.0000 0.59334  0.26818  0.27072  Biso   1.000  C
  H47      1.0000 0.55920  0.26420  0.28780  Biso   1.000  H
  C40      1.0000 0.64942  0.21131  0.30986  Biso   1.000  C
  C41      1.0000 0.63820  0.30410  0.21192  Biso   1.000  C
  C42      1.0000 0.58870  0.29756  0.23808  Biso   1.000  C
  H48      1.0000 0.55170  0.31340  0.23350  Biso   1.000  H
  C43      1.0000 0.59305  0.02926  0.30547  Biso   1.000  C
  C44      1.0000 0.63370  0.00665  0.28027  Biso   1.000  C
  C45      1.0000 0.60710  0.97462  0.25441  Biso   1.000  C
  H49      1.0000 0.56470  0.96590  0.25690  Biso   1.000  H
  C46      1.0000 0.70540  0.96775  0.22150  Biso   1.000  C
  C47      1.0000 0.69790  0.01806  0.27730  Biso   1.000  C
  H50      1.0000 0.71710  0.03910  0.29480  Biso   1.000  H
  C48      1.0000 0.64260  0.95572  0.22530  Biso   1.000  C
  H51      1.0000 0.62370  0.93460  0.20800  Biso   1.000  H
  C49      1.0000 0.73380  0.99900  0.24900  Biso   1.000  C
  H52      1.0000 0.77730  0.00700  0.24820  Biso   1.000  H
  C50      1.0000 0.41430  0.03803  0.36791  Biso   1.000  C
  H53      1.0000 0.40600  0.01910  0.34310  Biso   1.000  H
  C51      1.0000 0.43820  0.09386  0.44196  Biso   1.000  C
  H54      1.0000 0.44680  0.11280  0.46680  Biso   1.000  H
  C52      1.0000 0.47780  0.05616  0.38126  Biso   1.000  C
  C53      1.0000 0.52730  0.05054  0.35052  Biso   1.000  C
  C54      1.0000 0.48860  0.08430  0.41932  Biso   1.000  C
  H55      1.0000 0.53100  0.09670  0.42930  Biso   1.000  H
  C55      1.0000 0.37460  0.07598  0.42890  Biso   1.000  C
  C56      1.0000 0.36330  0.04763  0.39070  Biso   1.000  C
  H56      1.0000 0.32080  0.03530  0.38080  Biso   1.000  H
  C57      1.0000 0.96186  0.19243  0.45944  Biso   1.000  C
  C58      1.0000 0.01260  0.18378  0.51122  Biso   1.000  C
  H57      1.0000 0.03710  0.20170  0.53490  Biso   1.000  H
  C59      1.0000 0.92660  0.16477  0.42530  Biso   1.000  C
  H58      1.0000 0.89220  0.16960  0.39070  Biso   1.000  H
  C60      1.0000 0.94200  0.13004  0.44220  Biso   1.000  C
  H59      1.0000 0.91810  0.11190  0.41850  Biso   1.000  H
  C61      1.0000 0.94686  0.22917  0.44176  Biso   1.000  C
  C62      1.0000 0.02700  0.14928  0.52809  Biso   1.000  C
  H60      1.0000 0.06040  0.14430  0.56310  Biso   1.000  H
  C63      1.0000 0.99240  0.12193  0.49360  Biso   1.000  C
  C64      1.0000 0.89187  0.27651  0.40388  Biso   1.000  C
  C65      1.0000 0.77060  0.30016  0.38546  Biso   1.000  C
  H61      1.0000 0.76300  0.28260  0.40860  Biso   1.000  H
  C66      1.0000 0.71820  0.32446  0.36200  Biso   1.000  C
  H62      1.0000 0.67580  0.32320  0.36950  Biso   1.000  H
  C67      1.0000 0.72800  0.35088  0.32710  Biso   1.000  C
  C68      1.0000 0.79070  0.35170  0.31550  Biso   1.000  C
  H63      1.0000 0.79750  0.36890  0.29130  Biso   1.000  H
  C69      1.0000 0.84370  0.32731  0.33916  Biso   1.000  C
  H64      1.0000 0.88550  0.32830  0.33080  Biso   1.000  H
  C70      1.0000 0.83480  0.30139  0.37535  Biso   1.000  C
  C71      1.0000 0.33379  0.14709  0.31365  Biso   1.000  C
  C72      1.0000 0.26079  0.13409  0.28946  Biso   1.000  C
  C73      1.0000 0.23670  0.12434  0.23360  Biso   1.000  C
  H65      1.0000 0.26370  0.12980  0.21080  Biso   1.000  H
  C74      1.0000 0.21960  0.12734  0.32250  Biso   1.000  C
  H66      1.0000 0.23450  0.13420  0.36030  Biso   1.000  H
  C75      1.0000 0.17340  0.10658  0.21050  Biso   1.000  C
  H67      1.0000 0.15870  0.09990  0.17270  Biso   1.000  H
  C76      1.0000 0.13310  0.09880  0.24180  Biso   1.000  C
  C77      1.0000 0.15510  0.11010  0.29870  Biso   1.000  C
  H68      1.0000 0.12630  0.10600  0.32050  Biso   1.000  H
  C78      1.0000 0.48231  0.20008  0.39066  Biso   1.000  C
  C79      1.0000 0.47410  0.23533  0.37535  Biso   1.000  C
  H69      1.0000 0.43190  0.24290  0.34890  Biso   1.000  H
  C80      1.0000 0.52740  0.25925  0.39870  Biso   1.000  C
  H70      1.0000 0.52140  0.28270  0.38750  Biso   1.000  H
  C81      1.0000 0.59770  0.21374  0.45560  Biso   1.000  C
  H71      1.0000 0.63920  0.20640  0.48320  Biso   1.000  H
  C82      1.0000 0.59010  0.24842  0.43890  Biso   1.000  C
  C83      1.0000 0.42949  0.17419  0.35834  Biso   1.000  C
  C84      1.0000 0.54410  0.18944  0.43148  Biso   1.000  C
  H72      1.0000 0.55000  0.16600  0.44290  Biso   1.000  H
  Cu9      1.0000 0.03862  0.62826  0.33194  Biso   1.000  Cu
  Cu10     1.0000 0.05307  0.47457  0.36771  Biso   1.000  Cu
  Cu11     1.0000 0.59299  0.75492  0.49668  Biso   1.000  Cu
  Cu12     1.0000 0.29501  0.71825  0.38115  Biso   1.000  Cu
  Cu13     1.0000 0.50632  0.82893  0.43230  Biso   1.000  Cu
  Cu14     1.0000 0.81689  0.70606  0.38772  Biso   1.000  Cu
  Cu15     1.0000 0.65240  0.83111  0.41289  Biso   1.000  Cu
  Cu16     1.0000 0.10894  0.59461  0.24641  Biso   1.000  Cu
  Cl2      1.0000 0.62511  0.81878  0.50801  Biso   1.000  Cl
  N31      1.0000 0.05001  0.57761  0.32769  Biso   1.000  N
  N32      1.0000 0.05345  0.51954  0.33807  Biso   1.000  N
  N33      1.0000 0.09168  0.56401  0.29842  Biso   1.000  N
  N34      1.0000 0.77892  0.70439  0.58383  Biso   1.000  N
  N35      1.0000 0.72380  0.75430  0.58884  Biso   1.000  N
  N36      1.0000 0.68248  0.73586  0.54170  Biso   1.000  N
  N37      1.0000 0.49476  0.75470  0.45230  Biso   1.000  N
  N38      1.0000 0.45916  0.78523  0.42799  Biso   1.000  N
  N39      1.0000 0.38139  0.74166  0.41097  Biso   1.000  N
  N40      1.0000 0.03335  0.37366  0.41133  Biso   1.000  N
  N41      1.0000 0.09498  0.37230  0.39766  Biso   1.000  N
  N42      1.0000 0.06059  0.42790  0.39329  Biso   1.000  N
  N43      1.0000 0.88571  0.63065  0.30241  Biso   1.000  N
  N44      1.0000 0.94739  0.64820  0.33095  Biso   1.000  N
  N45      1.0000 0.85883  0.67458  0.34934  Biso   1.000  N
  N46      1.0000 0.20605  0.69759  0.35092  Biso   1.000  N
  N47      1.0000 0.11407  0.66187  0.33571  Biso   1.000  N
  N48      1.0000 0.09328  0.69056  0.29996  Biso   1.000  N
  N49      1.0000 0.17580  0.87594  0.30510  Biso   1.000  N
  H73      1.0000 0.18210  0.89240  0.28380  Biso   1.000  H
  H74      1.0000 0.13710  0.87500  0.31280  Biso   1.000  H
  N50      1.0000 0.13150  0.83296  0.17670  Biso   1.000  N
  H75      1.0000 0.09620  0.84710  0.17090  Biso   1.000  H
  H76      1.0000 0.16270  0.83680  0.16060  Biso   1.000  H
  N51      1.0000 0.82490  0.58509  0.45360  Biso   1.000  N
  H77      1.0000 0.83330  0.60210  0.47750  Biso   1.000  H
  H78      1.0000 0.78560  0.57370  0.44510  Biso   1.000  H
  N52      1.0000 0.24130  0.44838  0.19210  Biso   1.000  N
  H79      1.0000 0.22400  0.42880  0.17630  Biso   1.000  H
  H80      1.0000 0.28070  0.45600  0.18990  Biso   1.000  H
  N53      1.0000 0.14560  0.77246  0.46180  Biso   1.000  N
  H81      1.0000 0.18460  0.76550  0.48640  Biso   1.000  H
  H82      1.0000 0.14070  0.79410  0.45120  Biso   1.000  H
  N54      1.0000 0.57630  0.59373  0.39850  Biso   1.000  N
  H83      1.0000 0.58250  0.57250  0.41140  Biso   1.000  H
  H84      1.0000 0.54650  0.59790  0.36550  Biso   1.000  H
  N55      1.0000 0.50910  0.58717  0.50960  Biso   1.000  N
  H85      1.0000 0.54120  0.58250  0.54130  Biso   1.000  H
  H86      1.0000 0.48720  0.57030  0.48780  Biso   1.000  H
  N56      1.0000 0.97810  0.77396  0.82569  Biso   1.000  N
  H87      1.0000 0.98330  0.79570  0.83600  Biso   1.000  H
  H88      1.0000 0.00280  0.75790  0.84770  Biso   1.000  H
  N57      1.0000 0.35210  0.57704  0.53860  Biso   1.000  N
  H89      1.0000 0.37250  0.58530  0.57200  Biso   1.000  H
  H90      1.0000 0.35700  0.55520  0.53170  Biso   1.000  H
  N58      1.0000 0.36650  0.44282  0.35550  Biso   1.000  N
  H91      1.0000 0.38380  0.42980  0.33530  Biso   1.000  H
  H92      1.0000 0.38950  0.46100  0.37250  Biso   1.000  H
  N59      1.0000 0.79530  0.46480  0.47720  Biso   1.000  N
  H93      1.0000 0.79720  0.48670  0.48650  Biso   1.000  H
  H94      1.0000 0.76000  0.45210  0.47770  Biso   1.000  H
  N60      1.0000 0.56800  0.58130  0.21770  Biso   1.000  N
  H95      1.0000 0.55410  0.57550  0.18250  Biso   1.000  H
  H96      1.0000 0.54210  0.57640  0.23810  Biso   1.000  H
  C85      1.0000 0.71661  0.70600  0.54046  Biso   1.000  C
  C86      1.0000 0.64250  0.68350  0.44541  Biso   1.000  C
  H97      1.0000 0.63640  0.70640  0.43130  Biso   1.000  H
  C87      1.0000 0.61460  0.62149  0.43150  Biso   1.000  C
  C88      1.0000 0.66280  0.61504  0.48490  Biso   1.000  C
  H98      1.0000 0.67200  0.59200  0.49780  Biso   1.000  H
  C89      1.0000 0.68682  0.67739  0.50043  Biso   1.000  C
  C90      1.0000 0.69710  0.64264  0.51901  Biso   1.000  C
  H99      1.0000 0.72780  0.63790  0.55520  Biso   1.000  H
  C91      1.0000 0.60720  0.65594  0.41124  Biso   1.000  C
  H100     1.0000 0.57820  0.66050  0.37440  Biso   1.000  H
  C92      1.0000 0.78093  0.73466  0.61314  Biso   1.000  C
  C93      1.0000 0.83512  0.74495  0.66643  Biso   1.000  C
  C94      1.0000 0.87530  0.71982  0.70402  Biso   1.000  C
  H101     1.0000 0.87070  0.69620  0.69380  Biso   1.000  H
  C95      1.0000 0.92230  0.72964  0.75650  Biso   1.000  C
  H102     1.0000 0.94910  0.71250  0.78080  Biso   1.000  H
  C96      1.0000 0.84290  0.78005  0.68392  Biso   1.000  C
  H103     1.0000 0.81650  0.79730  0.65970  Biso   1.000  H
  C97      1.0000 0.92970  0.76477  0.77310  Biso   1.000  C
  C98      1.0000 0.88930  0.78988  0.73680  Biso   1.000  C
  H104     1.0000 0.89310  0.81340  0.74760  Biso   1.000  H
  C99      1.0000 0.11014  0.40500  0.38766  Biso   1.000  C
  C100     1.0000 0.17420  0.41545  0.37584  Biso   1.000  C
  C101     1.0000 0.20150  0.39599  0.34150  Biso   1.000  C
  H105     1.0000 0.17730  0.37610  0.32330  Biso   1.000  H
  C102     1.0000 0.26420  0.40555  0.33370  Biso   1.000  C
  H106     1.0000 0.28150  0.39230  0.31000  Biso   1.000  H
  C103     1.0000 0.21150  0.44517  0.40210  Biso   1.000  C
  H107     1.0000 0.19380  0.45890  0.42510  Biso   1.000  H
  C104     1.0000 0.30120  0.43451  0.36070  Biso   1.000  C
  C105     1.0000 0.27390  0.45456  0.39480  Biso   1.000  C
  H108     1.0000 0.29810  0.47450  0.41270  Biso   1.000  H
  C106     1.0000 0.01485  0.40742  0.40934  Biso   1.000  C
  C107     1.0000 0.95740  0.45674  0.44260  Biso   1.000  C
  H109     1.0000 0.99440  0.47130  0.44170  Biso   1.000  H
  C108     1.0000 0.90520  0.47024  0.46030  Biso   1.000  C
  H110     1.0000 0.90790  0.49360  0.47190  Biso   1.000  H
  C109     1.0000 0.95670  0.42146  0.42600  Biso   1.000  C
  C110     1.0000 0.90230  0.40078  0.43050  Biso   1.000  C
  H111     1.0000 0.90180  0.37690  0.42220  Biso   1.000  H
  C111     1.0000 0.84880  0.41447  0.44680  Biso   1.000  C
  H112     1.0000 0.81200  0.40000  0.44840  Biso   1.000  H
  C112     1.0000 0.84910  0.45009  0.46120  Biso   1.000  C
  C113     1.0000 0.22505  0.64308  0.41061  Biso   1.000  C
  C114     1.0000 0.26110  0.65567  0.46396  Biso   1.000  C
  H113     1.0000 0.25710  0.67930  0.47200  Biso   1.000  H
  C115     1.0000 0.23140  0.60781  0.40080  Biso   1.000  C
  H114     1.0000 0.20630  0.59840  0.36550  Biso   1.000  H
  C116     1.0000 0.18159  0.66685  0.36568  Biso   1.000  C
  C117     1.0000 0.30320  0.63373  0.50600  Biso   1.000  C
  H115     1.0000 0.32630  0.64280  0.54180  Biso   1.000  H
  C118     1.0000 0.27470  0.58588  0.44250  Biso   1.000  C
  H116     1.0000 0.27910  0.56220  0.43470  Biso   1.000  H
  C119     1.0000 0.31110  0.59915  0.49540  Biso   1.000  C
  C120     1.0000 0.14846  0.74409  0.27879  Biso   1.000  C
  C121     1.0000 0.19940  0.75112  0.25408  Biso   1.000  C
  H117     1.0000 0.23720  0.73570  0.25950  Biso   1.000  H
  C122     1.0000 0.19450  0.78083  0.22160  Biso   1.000  C
  H118     1.0000 0.22960  0.78540  0.20580  Biso   1.000  H
  C123     1.0000 0.09334  0.76818  0.27072  Biso   1.000  C
  H119     1.0000 0.05920  0.76420  0.28780  Biso   1.000  H
  C124     1.0000 0.14942  0.71131  0.30986  Biso   1.000  C
  C125     1.0000 0.13820  0.80410  0.21192  Biso   1.000  C
  C126     1.0000 0.08870  0.79756  0.23808  Biso   1.000  C
  H120     1.0000 0.05170  0.81340  0.23350  Biso   1.000  H
  C127     1.0000 0.09305  0.52926  0.30547  Biso   1.000  C
  C128     1.0000 0.13370  0.50665  0.28027  Biso   1.000  C
  C129     1.0000 0.10710  0.47462  0.25441  Biso   1.000  C
  H121     1.0000 0.06470  0.46590  0.25690  Biso   1.000  H
  C130     1.0000 0.20540  0.46775  0.22150  Biso   1.000  C
  C131     1.0000 0.19790  0.51806  0.27730  Biso   1.000  C
  H122     1.0000 0.21710  0.53910  0.29480  Biso   1.000  H
  C132     1.0000 0.14260  0.45572  0.22530  Biso   1.000  C
  H123     1.0000 0.12370  0.43460  0.20800  Biso   1.000  H
  C133     1.0000 0.23380  0.49900  0.24900  Biso   1.000  C
  H124     1.0000 0.27730  0.50700  0.24820  Biso   1.000  H
  C134     1.0000 0.91430  0.53803  0.36791  Biso   1.000  C
  H125     1.0000 0.90600  0.51910  0.34310  Biso   1.000  H
  C135     1.0000 0.93820  0.59386  0.44196  Biso   1.000  C
  H126     1.0000 0.94680  0.61280  0.46680  Biso   1.000  H
  C136     1.0000 0.97780  0.55616  0.38126  Biso   1.000  C
  C137     1.0000 0.02730  0.55054  0.35052  Biso   1.000  C
  C138     1.0000 0.98860  0.58430  0.41932  Biso   1.000  C
  H127     1.0000 0.03100  0.59670  0.42930  Biso   1.000  H
  C139     1.0000 0.87460  0.57598  0.42890  Biso   1.000  C
  C140     1.0000 0.86330  0.54763  0.39070  Biso   1.000  C
  H128     1.0000 0.82080  0.53530  0.38080  Biso   1.000  H
  C141     1.0000 0.46186  0.69243  0.45944  Biso   1.000  C
  C142     1.0000 0.51260  0.68378  0.51122  Biso   1.000  C
  H129     1.0000 0.53710  0.70170  0.53490  Biso   1.000  H
  C143     1.0000 0.42660  0.66477  0.42530  Biso   1.000  C
  H130     1.0000 0.39220  0.66960  0.39070  Biso   1.000  H
  C144     1.0000 0.44200  0.63004  0.44220  Biso   1.000  C
  H131     1.0000 0.41810  0.61190  0.41850  Biso   1.000  H
  C145     1.0000 0.44686  0.72917  0.44176  Biso   1.000  C
  C146     1.0000 0.52700  0.64928  0.52809  Biso   1.000  C
  H132     1.0000 0.56040  0.64430  0.56310  Biso   1.000  H
  C147     1.0000 0.49240  0.62193  0.49360  Biso   1.000  C
  C148     1.0000 0.39187  0.77651  0.40388  Biso   1.000  C
  C149     1.0000 0.27060  0.80016  0.38546  Biso   1.000  C
  H133     1.0000 0.26300  0.78260  0.40860  Biso   1.000  H
  C150     1.0000 0.21820  0.82446  0.36200  Biso   1.000  C
  H134     1.0000 0.17580  0.82320  0.36950  Biso   1.000  H
  C151     1.0000 0.22800  0.85088  0.32710  Biso   1.000  C
  C152     1.0000 0.29070  0.85170  0.31550  Biso   1.000  C
  H135     1.0000 0.29750  0.86890  0.29130  Biso   1.000  H
  C153     1.0000 0.34370  0.82731  0.33916  Biso   1.000  C
  H136     1.0000 0.38550  0.82830  0.33080  Biso   1.000  H
  C154     1.0000 0.33480  0.80139  0.37535  Biso   1.000  C
  C155     1.0000 0.83379  0.64709  0.31365  Biso   1.000  C
  C156     1.0000 0.76079  0.63409  0.28946  Biso   1.000  C
  C157     1.0000 0.73670  0.62434  0.23360  Biso   1.000  C
  H137     1.0000 0.76370  0.62980  0.21080  Biso   1.000  H
  C158     1.0000 0.71960  0.62734  0.32250  Biso   1.000  C
  H138     1.0000 0.73450  0.63420  0.36030  Biso   1.000  H
  C159     1.0000 0.67340  0.60658  0.21050  Biso   1.000  C
  H139     1.0000 0.65870  0.59990  0.17270  Biso   1.000  H
  C160     1.0000 0.63310  0.59880  0.24180  Biso   1.000  C
  C161     1.0000 0.65510  0.61010  0.29870  Biso   1.000  C
  H140     1.0000 0.62630  0.60600  0.32050  Biso   1.000  H
  C162     1.0000 0.98231  0.70008  0.39066  Biso   1.000  C
  C163     1.0000 0.97410  0.73533  0.37535  Biso   1.000  C
  H141     1.0000 0.93190  0.74290  0.34890  Biso   1.000  H
  C164     1.0000 0.02740  0.75925  0.39870  Biso   1.000  C
  H142     1.0000 0.02140  0.78270  0.38750  Biso   1.000  H
  C165     1.0000 0.09770  0.71374  0.45560  Biso   1.000  C
  H143     1.0000 0.13920  0.70640  0.48320  Biso   1.000  H
  C166     1.0000 0.09010  0.74842  0.43890  Biso   1.000  C
  C167     1.0000 0.92949  0.67419  0.35834  Biso   1.000  C
  C168     1.0000 0.04410  0.68944  0.43148  Biso   1.000  C
  H144     1.0000 0.05000  0.66600  0.44290  Biso   1.000  H
  Cu17     1.0000 0.46138  0.12826  0.16806  Biso   1.000  Cu
  Cu18     1.0000 0.44693  0.97457  0.13229  Biso   1.000  Cu
  Cu19     1.0000 0.90701  0.25492  0.00332  Biso   1.000  Cu
  Cu20     1.0000 0.20499  0.21825  0.11885  Biso   1.000  Cu
  Cu21     1.0000 0.99368  0.32893  0.06770  Biso   1.000  Cu
  Cu22     1.0000 0.68311  0.20606  0.11228  Biso   1.000  Cu
  Cu23     1.0000 0.84760  0.33111  0.08711  Biso   1.000  Cu
  Cu24     1.0000 0.39106  0.09461  0.25359  Biso   1.000  Cu
  Cl3      1.0000 0.87489  0.31878  0.99199  Biso   1.000  Cl
  N61      1.0000 0.44999  0.07761  0.17231  Biso   1.000  N
  N62      1.0000 0.44655  0.01954  0.16193  Biso   1.000  N
  N63      1.0000 0.40832  0.06401  0.20158  Biso   1.000  N
  N64      1.0000 0.72108  0.20439  0.91617  Biso   1.000  N
  N65      1.0000 0.77620  0.25430  0.91116  Biso   1.000  N
  N66      1.0000 0.81752  0.23586  0.95830  Biso   1.000  N
  N67      1.0000 0.00524  0.25470  0.04770  Biso   1.000  N
  N68      1.0000 0.04084  0.28523  0.07201  Biso   1.000  N
  N69      1.0000 0.11861  0.24166  0.08903  Biso   1.000  N
  N70      1.0000 0.46665  0.87366  0.08867  Biso   1.000  N
  N71      1.0000 0.40502  0.87230  0.10234  Biso   1.000  N
  N72      1.0000 0.43941  0.92790  0.10671  Biso   1.000  N
  N73      1.0000 0.61429  0.13065  0.19759  Biso   1.000  N
  N74      1.0000 0.55261  0.14820  0.16905  Biso   1.000  N
  N75      1.0000 0.64117  0.17458  0.15066  Biso   1.000  N
  N76      1.0000 0.29395  0.19759  0.14908  Biso   1.000  N
  N77      1.0000 0.38593  0.16187  0.16429  Biso   1.000  N
  N78      1.0000 0.40672  0.19056  0.20004  Biso   1.000  N
  N79      1.0000 0.32420  0.37594  0.19490  Biso   1.000  N
  H145     1.0000 0.31790  0.39240  0.21620  Biso   1.000  H
  H146     1.0000 0.36290  0.37500  0.18720  Biso   1.000  H
  N80      1.0000 0.36850  0.33296  0.32330  Biso   1.000  N
  H147     1.0000 0.40380  0.34710  0.32910  Biso   1.000  H
  H148     1.0000 0.33730  0.33680  0.33940  Biso   1.000  H
  N81      1.0000 0.67510  0.08509  0.04640  Biso   1.000  N
  H149     1.0000 0.66670  0.10210  0.02250  Biso   1.000  H
  H150     1.0000 0.71440  0.07370  0.05490  Biso   1.000  H
  N82      1.0000 0.25870  0.94838  0.30790  Biso   1.000  N
  H151     1.0000 0.27600  0.92880  0.32370  Biso   1.000  H
  H152     1.0000 0.21930  0.95600  0.31010  Biso   1.000  H
  N83      1.0000 0.35440  0.27246  0.03820  Biso   1.000  N
  H153     1.0000 0.31540  0.26550  0.01360  Biso   1.000  H
  H154     1.0000 0.35930  0.29410  0.04880  Biso   1.000  H
  N84      1.0000 0.92370  0.09373  0.10150  Biso   1.000  N
  H155     1.0000 0.91750  0.07250  0.08860  Biso   1.000  H
  H156     1.0000 0.95350  0.09790  0.13450  Biso   1.000  H
  N85      1.0000 0.99090  0.08717  0.99040  Biso   1.000  N
  H157     1.0000 0.95880  0.08250  0.95870  Biso   1.000  H
  H158     1.0000 0.01280  0.07030  0.01220  Biso   1.000  H
  N86      1.0000 0.52190  0.27396  0.67431  Biso   1.000  N
  H159     1.0000 0.51670  0.29570  0.66400  Biso   1.000  H
  H160     1.0000 0.49720  0.25790  0.65230  Biso   1.000  H
  N87      1.0000 0.14790  0.07704  0.96140  Biso   1.000  N
  H161     1.0000 0.12750  0.08530  0.92800  Biso   1.000  H
  H162     1.0000 0.14300  0.05520  0.96830  Biso   1.000  H
  N88      1.0000 0.13350  0.94282  0.14450  Biso   1.000  N
  H163     1.0000 0.11620  0.92980  0.16470  Biso   1.000  H
  H164     1.0000 0.11050  0.96100  0.12750  Biso   1.000  H
  N89      1.0000 0.70470  0.96480  0.02280  Biso   1.000  N
  H165     1.0000 0.70280  0.98670  0.01350  Biso   1.000  H
  H166     1.0000 0.74000  0.95210  0.02230  Biso   1.000  H
  N90      1.0000 0.93200  0.08130  0.28230  Biso   1.000  N
  H167     1.0000 0.94590  0.07550  0.31750  Biso   1.000  H
  H168     1.0000 0.95790  0.07640  0.26190  Biso   1.000  H
  C169     1.0000 0.78339  0.20600  0.95954  Biso   1.000  C
  C170     1.0000 0.85750  0.18350  0.05459  Biso   1.000  C
  H169     1.0000 0.86360  0.20640  0.06870  Biso   1.000  H
  C171     1.0000 0.88540  0.12149  0.06850  Biso   1.000  C
  C172     1.0000 0.83720  0.11504  0.01510  Biso   1.000  C
  H170     1.0000 0.82800  0.09200  0.00220  Biso   1.000  H
  C173     1.0000 0.81318  0.17739  0.99957  Biso   1.000  C
  C174     1.0000 0.80290  0.14264  0.98099  Biso   1.000  C
  H171     1.0000 0.77220  0.13790  0.94480  Biso   1.000  H
  C175     1.0000 0.89280  0.15594  0.08876  Biso   1.000  C
  H172     1.0000 0.92180  0.16050  0.12560  Biso   1.000  H
  C176     1.0000 0.71907  0.23466  0.88686  Biso   1.000  C
  C177     1.0000 0.66488  0.24495  0.83357  Biso   1.000  C
  C178     1.0000 0.62470  0.21982  0.79598  Biso   1.000  C
  H173     1.0000 0.62930  0.19620  0.80620  Biso   1.000  H
  C179     1.0000 0.57770  0.22964  0.74350  Biso   1.000  C
  H174     1.0000 0.55090  0.21250  0.71920  Biso   1.000  H
  C180     1.0000 0.65710  0.28005  0.81608  Biso   1.000  C
  H175     1.0000 0.68350  0.29730  0.84030  Biso   1.000  H
  C181     1.0000 0.57030  0.26477  0.72690  Biso   1.000  C
  C182     1.0000 0.61070  0.28988  0.76320  Biso   1.000  C
  H176     1.0000 0.60690  0.31340  0.75240  Biso   1.000  H
  C183     1.0000 0.38986  0.90500  0.11234  Biso   1.000  C
  C184     1.0000 0.32580  0.91545  0.12416  Biso   1.000  C
  C185     1.0000 0.29850  0.89599  0.15850  Biso   1.000  C
  H177     1.0000 0.32270  0.87610  0.17670  Biso   1.000  H
  C186     1.0000 0.23580  0.90555  0.16630  Biso   1.000  C
  H178     1.0000 0.21850  0.89230  0.19000  Biso   1.000  H
  C187     1.0000 0.28850  0.94517  0.09790  Biso   1.000  C
  H179     1.0000 0.30620  0.95890  0.07490  Biso   1.000  H
  C188     1.0000 0.19880  0.93451  0.13930  Biso   1.000  C
  C189     1.0000 0.22610  0.95456  0.10520  Biso   1.000  C
  H180     1.0000 0.20190  0.97450  0.08730  Biso   1.000  H
  C190     1.0000 0.48515  0.90742  0.09066  Biso   1.000  C
  C191     1.0000 0.54260  0.95674  0.05740  Biso   1.000  C
  H181     1.0000 0.50560  0.97130  0.05830  Biso   1.000  H
  C192     1.0000 0.59480  0.97024  0.03970  Biso   1.000  C
  H182     1.0000 0.59210  0.99360  0.02810  Biso   1.000  H
  C193     1.0000 0.54330  0.92146  0.07400  Biso   1.000  C
  C194     1.0000 0.59770  0.90078  0.06950  Biso   1.000  C
  H183     1.0000 0.59820  0.87690  0.07780  Biso   1.000  H
  C195     1.0000 0.65120  0.91447  0.05320  Biso   1.000  C
  H184     1.0000 0.68800  0.90000  0.05160  Biso   1.000  H
  C196     1.0000 0.65090  0.95009  0.03880  Biso   1.000  C
  C197     1.0000 0.27495  0.14308  0.08939  Biso   1.000  C
  C198     1.0000 0.23890  0.15567  0.03604  Biso   1.000  C
  H185     1.0000 0.24290  0.17930  0.02800  Biso   1.000  H
  C199     1.0000 0.26860  0.10781  0.09920  Biso   1.000  C
  H186     1.0000 0.29370  0.09840  0.13450  Biso   1.000  H
  C200     1.0000 0.31841  0.16685  0.13432  Biso   1.000  C
  C201     1.0000 0.19680  0.13373  0.99400  Biso   1.000  C
  H187     1.0000 0.17370  0.14280  0.95820  Biso   1.000  H
  C202     1.0000 0.22530  0.08588  0.05750  Biso   1.000  C
  H188     1.0000 0.22090  0.06220  0.06530  Biso   1.000  H
  C203     1.0000 0.18890  0.09915  0.00460  Biso   1.000  C
  C204     1.0000 0.35154  0.24409  0.22121  Biso   1.000  C
  C205     1.0000 0.30060  0.25112  0.24592  Biso   1.000  C
  H189     1.0000 0.26280  0.23570  0.24050  Biso   1.000  H
  C206     1.0000 0.30550  0.28083  0.27840  Biso   1.000  C
  H190     1.0000 0.27040  0.28540  0.29420  Biso   1.000  H
  C207     1.0000 0.40666  0.26818  0.22928  Biso   1.000  C
  H191     1.0000 0.44080  0.26420  0.21220  Biso   1.000  H
  C208     1.0000 0.35058  0.21131  0.19014  Biso   1.000  C
  C209     1.0000 0.36180  0.30410  0.28808  Biso   1.000  C
  C210     1.0000 0.41130  0.29756  0.26192  Biso   1.000  C
  H192     1.0000 0.44830  0.31340  0.26650  Biso   1.000  H
  C211     1.0000 0.40695  0.02926  0.19453  Biso   1.000  C
  C212     1.0000 0.36630  0.00665  0.21973  Biso   1.000  C
  C213     1.0000 0.39290  0.97462  0.24559  Biso   1.000  C
  H193     1.0000 0.43530  0.96590  0.24310  Biso   1.000  H
  C214     1.0000 0.29460  0.96775  0.27850  Biso   1.000  C
  C215     1.0000 0.30210  0.01806  0.22270  Biso   1.000  C
  H194     1.0000 0.28290  0.03910  0.20520  Biso   1.000  H
  C216     1.0000 0.35740  0.95572  0.27470  Biso   1.000  C
  H195     1.0000 0.37630  0.93460  0.29200  Biso   1.000  H
  C217     1.0000 0.26620  0.99900  0.25100  Biso   1.000  C
  H196     1.0000 0.22270  0.00700  0.25180  Biso   1.000  H
  C218     1.0000 0.58570  0.03803  0.13209  Biso   1.000  C
  H197     1.0000 0.59400  0.01910  0.15690  Biso   1.000  H
  C219     1.0000 0.56180  0.09386  0.05804  Biso   1.000  C
  H198     1.0000 0.55320  0.11280  0.03320  Biso   1.000  H
  C220     1.0000 0.52220  0.05616  0.11874  Biso   1.000  C
  C221     1.0000 0.47270  0.05054  0.14948  Biso   1.000  C
  C222     1.0000 0.51140  0.08430  0.08068  Biso   1.000  C
  H199     1.0000 0.46900  0.09670  0.07070  Biso   1.000  H
  C223     1.0000 0.62540  0.07598  0.07110  Biso   1.000  C
  C224     1.0000 0.63670  0.04763  0.10930  Biso   1.000  C
  H200     1.0000 0.67920  0.03530  0.11920  Biso   1.000  H
  C225     1.0000 0.03814  0.19243  0.04056  Biso   1.000  C
  C226     1.0000 0.98740  0.18378  0.98878  Biso   1.000  C
  H201     1.0000 0.96290  0.20170  0.96510  Biso   1.000  H
  C227     1.0000 0.07340  0.16477  0.07470  Biso   1.000  C
  H202     1.0000 0.10780  0.16960  0.10930  Biso   1.000  H
  C228     1.0000 0.05800  0.13004  0.05780  Biso   1.000  C
  H203     1.0000 0.08190  0.11190  0.08150  Biso   1.000  H
  C229     1.0000 0.05314  0.22917  0.05824  Biso   1.000  C
  C230     1.0000 0.97300  0.14928  0.97191  Biso   1.000  C
  H204     1.0000 0.93960  0.14430  0.93690  Biso   1.000  H
  C231     1.0000 0.00760  0.12193  0.00640  Biso   1.000  C
  C232     1.0000 0.10813  0.27651  0.09612  Biso   1.000  C
  C233     1.0000 0.22940  0.30016  0.11454  Biso   1.000  C
  H205     1.0000 0.23700  0.28260  0.09140  Biso   1.000  H
  C234     1.0000 0.28180  0.32446  0.13800  Biso   1.000  C
  H206     1.0000 0.32420  0.32320  0.13050  Biso   1.000  H
  C235     1.0000 0.27200  0.35088  0.17290  Biso   1.000  C
  C236     1.0000 0.20930  0.35170  0.18450  Biso   1.000  C
  H207     1.0000 0.20250  0.36890  0.20870  Biso   1.000  H
  C237     1.0000 0.15630  0.32731  0.16084  Biso   1.000  C
  H208     1.0000 0.11450  0.32830  0.16920  Biso   1.000  H
  C238     1.0000 0.16520  0.30139  0.12465  Biso   1.000  C
  C239     1.0000 0.66621  0.14709  0.18635  Biso   1.000  C
  C240     1.0000 0.73921  0.13409  0.21054  Biso   1.000  C
  C241     1.0000 0.76330  0.12434  0.26640  Biso   1.000  C
  H209     1.0000 0.73630  0.12980  0.28920  Biso   1.000  H
  C242     1.0000 0.78040  0.12734  0.17750  Biso   1.000  C
  H210     1.0000 0.76550  0.13420  0.13970  Biso   1.000  H
  C243     1.0000 0.82660  0.10658  0.28950  Biso   1.000  C
  H211     1.0000 0.84130  0.09990  0.32730  Biso   1.000  H
  C244     1.0000 0.86690  0.09880  0.25820  Biso   1.000  C
  C245     1.0000 0.84490  0.11010  0.20130  Biso   1.000  C
  H212     1.0000 0.87370  0.10600  0.17950  Biso   1.000  H
  C246     1.0000 0.51769  0.20008  0.10934  Biso   1.000  C
  C247     1.0000 0.52590  0.23533  0.12465  Biso   1.000  C
  H213     1.0000 0.56810  0.24290  0.15110  Biso   1.000  H
  C248     1.0000 0.47260  0.25925  0.10130  Biso   1.000  C
  H214     1.0000 0.47860  0.28270  0.11250  Biso   1.000  H
  C249     1.0000 0.40230  0.21374  0.04440  Biso   1.000  C
  H215     1.0000 0.36080  0.20640  0.01680  Biso   1.000  H
  C250     1.0000 0.40990  0.24842  0.06110  Biso   1.000  C
  C251     1.0000 0.57051  0.17419  0.14166  Biso   1.000  C
  C252     1.0000 0.45590  0.18944  0.06852  Biso   1.000  C
  H216     1.0000 0.45000  0.16600  0.05710  Biso   1.000  H
  Cu25     1.0000 0.96138  0.62826  0.16806  Biso   1.000  Cu
  Cu26     1.0000 0.94693  0.47457  0.13229  Biso   1.000  Cu
  Cu27     1.0000 0.40701  0.75492  0.00332  Biso   1.000  Cu
  Cu28     1.0000 0.70499  0.71825  0.11885  Biso   1.000  Cu
  Cu29     1.0000 0.49368  0.82893  0.06770  Biso   1.000  Cu
  Cu30     1.0000 0.18311  0.70606  0.11228  Biso   1.000  Cu
  Cu31     1.0000 0.34760  0.83111  0.08711  Biso   1.000  Cu
  Cu32     1.0000 0.89106  0.59461  0.25359  Biso   1.000  Cu
  Cl4      1.0000 0.37489  0.81878  0.99199  Biso   1.000  Cl
  N91      1.0000 0.94999  0.57761  0.17231  Biso   1.000  N
  N92      1.0000 0.94655  0.51954  0.16193  Biso   1.000  N
  N93      1.0000 0.90832  0.56401  0.20158  Biso   1.000  N
  N94      1.0000 0.22108  0.70439  0.91617  Biso   1.000  N
  N95      1.0000 0.27620  0.75430  0.91116  Biso   1.000  N
  N96      1.0000 0.31752  0.73586  0.95830  Biso   1.000  N
  N97      1.0000 0.50524  0.75470  0.04770  Biso   1.000  N
  N98      1.0000 0.54084  0.78523  0.07201  Biso   1.000  N
  N99      1.0000 0.61861  0.74166  0.08903  Biso   1.000  N
  N100     1.0000 0.96665  0.37366  0.08867  Biso   1.000  N
  N101     1.0000 0.90502  0.37230  0.10234  Biso   1.000  N
  N102     1.0000 0.93941  0.42790  0.10671  Biso   1.000  N
  N103     1.0000 0.11429  0.63065  0.19759  Biso   1.000  N
  N104     1.0000 0.05261  0.64820  0.16905  Biso   1.000  N
  N105     1.0000 0.14117  0.67458  0.15066  Biso   1.000  N
  N106     1.0000 0.79395  0.69759  0.14908  Biso   1.000  N
  N107     1.0000 0.88593  0.66187  0.16429  Biso   1.000  N
  N108     1.0000 0.90672  0.69056  0.20004  Biso   1.000  N
  N109     1.0000 0.82420  0.87594  0.19490  Biso   1.000  N
  H217     1.0000 0.81790  0.89240  0.21620  Biso   1.000  H
  H218     1.0000 0.86290  0.87500  0.18720  Biso   1.000  H
  N110     1.0000 0.86850  0.83296  0.32330  Biso   1.000  N
  H219     1.0000 0.90380  0.84710  0.32910  Biso   1.000  H
  H220     1.0000 0.83730  0.83680  0.33940  Biso   1.000  H
  N111     1.0000 0.17510  0.58509  0.04640  Biso   1.000  N
  H221     1.0000 0.16670  0.60210  0.02250  Biso   1.000  H
  H222     1.0000 0.21440  0.57370  0.05490  Biso   1.000  H
  N112     1.0000 0.75870  0.44838  0.30790  Biso   1.000  N
  H223     1.0000 0.77600  0.42880  0.32370  Biso   1.000  H
  H224     1.0000 0.71930  0.45600  0.31010  Biso   1.000  H
  N113     1.0000 0.85440  0.77246  0.03820  Biso   1.000  N
  H225     1.0000 0.81540  0.76550  0.01360  Biso   1.000  H
  H226     1.0000 0.85930  0.79410  0.04880  Biso   1.000  H
  N114     1.0000 0.42370  0.59373  0.10150  Biso   1.000  N
  H227     1.0000 0.41750  0.57250  0.08860  Biso   1.000  H
  H228     1.0000 0.45350  0.59790  0.13450  Biso   1.000  H
  N115     1.0000 0.49090  0.58717  0.99040  Biso   1.000  N
  H229     1.0000 0.45880  0.58250  0.95870  Biso   1.000  H
  H230     1.0000 0.51280  0.57030  0.01220  Biso   1.000  H
  N116     1.0000 0.02190  0.77396  0.67431  Biso   1.000  N
  H231     1.0000 0.01670  0.79570  0.66400  Biso   1.000  H
  H232     1.0000 0.99720  0.75790  0.65230  Biso   1.000  H
  N117     1.0000 0.64790  0.57704  0.96140  Biso   1.000  N
  H233     1.0000 0.62750  0.58530  0.92800  Biso   1.000  H
  H234     1.0000 0.64300  0.55520  0.96830  Biso   1.000  H
  N118     1.0000 0.63350  0.44282  0.14450  Biso   1.000  N
  H235     1.0000 0.61620  0.42980  0.16470  Biso   1.000  H
  H236     1.0000 0.61050  0.46100  0.12750  Biso   1.000  H
  N119     1.0000 0.20470  0.46480  0.02280  Biso   1.000  N
  H237     1.0000 0.20280  0.48670  0.01350  Biso   1.000  H
  H238     1.0000 0.24000  0.45210  0.02230  Biso   1.000  H
  N120     1.0000 0.43200  0.58130  0.28230  Biso   1.000  N
  H239     1.0000 0.44590  0.57550  0.31750  Biso   1.000  H
  H240     1.0000 0.45790  0.57640  0.26190  Biso   1.000  H
  C253     1.0000 0.28339  0.70600  0.95954  Biso   1.000  C
  C254     1.0000 0.35750  0.68350  0.05459  Biso   1.000  C
  H241     1.0000 0.36360  0.70640  0.06870  Biso   1.000  H
  C255     1.0000 0.38540  0.62149  0.06850  Biso   1.000  C
  C256     1.0000 0.33720  0.61504  0.01510  Biso   1.000  C
  H242     1.0000 0.32800  0.59200  0.00220  Biso   1.000  H
  C257     1.0000 0.31318  0.67739  0.99957  Biso   1.000  C
  C258     1.0000 0.30290  0.64264  0.98099  Biso   1.000  C
  H243     1.0000 0.27220  0.63790  0.94480  Biso   1.000  H
  C259     1.0000 0.39280  0.65594  0.08876  Biso   1.000  C
  H244     1.0000 0.42180  0.66050  0.12560  Biso   1.000  H
  C260     1.0000 0.21907  0.73466  0.88686  Biso   1.000  C
  C261     1.0000 0.16488  0.74495  0.83357  Biso   1.000  C
  C262     1.0000 0.12470  0.71982  0.79598  Biso   1.000  C
  H245     1.0000 0.12930  0.69620  0.80620  Biso   1.000  H
  C263     1.0000 0.07770  0.72964  0.74350  Biso   1.000  C
  H246     1.0000 0.05090  0.71250  0.71920  Biso   1.000  H
  C264     1.0000 0.15710  0.78005  0.81608  Biso   1.000  C
  H247     1.0000 0.18350  0.79730  0.84030  Biso   1.000  H
  C265     1.0000 0.07030  0.76477  0.72690  Biso   1.000  C
  C266     1.0000 0.11070  0.78988  0.76320  Biso   1.000  C
  H248     1.0000 0.10690  0.81340  0.75240  Biso   1.000  H
  C267     1.0000 0.88986  0.40500  0.11234  Biso   1.000  C
  C268     1.0000 0.82580  0.41545  0.12416  Biso   1.000  C
  C269     1.0000 0.79850  0.39599  0.15850  Biso   1.000  C
  H249     1.0000 0.82270  0.37610  0.17670  Biso   1.000  H
  C270     1.0000 0.73580  0.40555  0.16630  Biso   1.000  C
  H250     1.0000 0.71850  0.39230  0.19000  Biso   1.000  H
  C271     1.0000 0.78850  0.44517  0.09790  Biso   1.000  C
  H251     1.0000 0.80620  0.45890  0.07490  Biso   1.000  H
  C272     1.0000 0.69880  0.43451  0.13930  Biso   1.000  C
  C273     1.0000 0.72610  0.45456  0.10520  Biso   1.000  C
  H252     1.0000 0.70190  0.47450  0.08730  Biso   1.000  H
  C274     1.0000 0.98515  0.40742  0.09066  Biso   1.000  C
  C275     1.0000 0.04260  0.45674  0.05740  Biso   1.000  C
  H253     1.0000 0.00560  0.47130  0.05830  Biso   1.000  H
  C276     1.0000 0.09480  0.47024  0.03970  Biso   1.000  C
  H254     1.0000 0.09210  0.49360  0.02810  Biso   1.000  H
  C277     1.0000 0.04330  0.42146  0.07400  Biso   1.000  C
  C278     1.0000 0.09770  0.40078  0.06950  Biso   1.000  C
  H255     1.0000 0.09820  0.37690  0.07780  Biso   1.000  H
  C279     1.0000 0.15120  0.41447  0.05320  Biso   1.000  C
  H256     1.0000 0.18800  0.40000  0.05160  Biso   1.000  H
  C280     1.0000 0.15090  0.45009  0.03880  Biso   1.000  C
  C281     1.0000 0.77495  0.64308  0.08939  Biso   1.000  C
  C282     1.0000 0.73890  0.65567  0.03604  Biso   1.000  C
  H257     1.0000 0.74290  0.67930  0.02800  Biso   1.000  H
  C283     1.0000 0.76860  0.60781  0.09920  Biso   1.000  C
  H258     1.0000 0.79370  0.59840  0.13450  Biso   1.000  H
  C284     1.0000 0.81841  0.66685  0.13432  Biso   1.000  C
  C285     1.0000 0.69680  0.63373  0.99400  Biso   1.000  C
  H259     1.0000 0.67370  0.64280  0.95820  Biso   1.000  H
  C286     1.0000 0.72530  0.58588  0.05750  Biso   1.000  C
  H260     1.0000 0.72090  0.56220  0.06530  Biso   1.000  H
  C287     1.0000 0.68890  0.59915  0.00460  Biso   1.000  C
  C288     1.0000 0.85154  0.74409  0.22121  Biso   1.000  C
  C289     1.0000 0.80060  0.75112  0.24592  Biso   1.000  C
  H261     1.0000 0.76280  0.73570  0.24050  Biso   1.000  H
  C290     1.0000 0.80550  0.78083  0.27840  Biso   1.000  C
  H262     1.0000 0.77040  0.78540  0.29420  Biso   1.000  H
  C291     1.0000 0.90666  0.76818  0.22928  Biso   1.000  C
  H263     1.0000 0.94080  0.76420  0.21220  Biso   1.000  H
  C292     1.0000 0.85058  0.71131  0.19014  Biso   1.000  C
  C293     1.0000 0.86180  0.80410  0.28808  Biso   1.000  C
  C294     1.0000 0.91130  0.79756  0.26192  Biso   1.000  C
  H264     1.0000 0.94830  0.81340  0.26650  Biso   1.000  H
  C295     1.0000 0.90695  0.52926  0.19453  Biso   1.000  C
  C296     1.0000 0.86630  0.50665  0.21973  Biso   1.000  C
  C297     1.0000 0.89290  0.47462  0.24559  Biso   1.000  C
  H265     1.0000 0.93530  0.46590  0.24310  Biso   1.000  H
  C298     1.0000 0.79460  0.46775  0.27850  Biso   1.000  C
  C299     1.0000 0.80210  0.51806  0.22270  Biso   1.000  C
  H266     1.0000 0.78290  0.53910  0.20520  Biso   1.000  H
  C300     1.0000 0.85740  0.45572  0.27470  Biso   1.000  C
  H267     1.0000 0.87630  0.43460  0.29200  Biso   1.000  H
  C301     1.0000 0.76620  0.49900  0.25100  Biso   1.000  C
  H268     1.0000 0.72270  0.50700  0.25180  Biso   1.000  H
  C302     1.0000 0.08570  0.53803  0.13209  Biso   1.000  C
  H269     1.0000 0.09400  0.51910  0.15690  Biso   1.000  H
  C303     1.0000 0.06180  0.59386  0.05804  Biso   1.000  C
  H270     1.0000 0.05320  0.61280  0.03320  Biso   1.000  H
  C304     1.0000 0.02220  0.55616  0.11874  Biso   1.000  C
  C305     1.0000 0.97270  0.55054  0.14948  Biso   1.000  C
  C306     1.0000 0.01140  0.58430  0.08068  Biso   1.000  C
  H271     1.0000 0.96900  0.59670  0.07070  Biso   1.000  H
  C307     1.0000 0.12540  0.57598  0.07110  Biso   1.000  C
  C308     1.0000 0.13670  0.54763  0.10930  Biso   1.000  C
  H272     1.0000 0.17920  0.53530  0.11920  Biso   1.000  H
  C309     1.0000 0.53814  0.69243  0.04056  Biso   1.000  C
  C310     1.0000 0.48740  0.68378  0.98878  Biso   1.000  C
  H273     1.0000 0.46290  0.70170  0.96510  Biso   1.000  H
  C311     1.0000 0.57340  0.66477  0.07470  Biso   1.000  C
  H274     1.0000 0.60780  0.66960  0.10930  Biso   1.000  H
  C312     1.0000 0.55800  0.63004  0.05780  Biso   1.000  C
  H275     1.0000 0.58190  0.61190  0.08150  Biso   1.000  H
  C313     1.0000 0.55314  0.72917  0.05824  Biso   1.000  C
  C314     1.0000 0.47300  0.64928  0.97191  Biso   1.000  C
  H276     1.0000 0.43960  0.64430  0.93690  Biso   1.000  H
  C315     1.0000 0.50760  0.62193  0.00640  Biso   1.000  C
  C316     1.0000 0.60813  0.77651  0.09612  Biso   1.000  C
  C317     1.0000 0.72940  0.80016  0.11454  Biso   1.000  C
  H277     1.0000 0.73700  0.78260  0.09140  Biso   1.000  H
  C318     1.0000 0.78180  0.82446  0.13800  Biso   1.000  C
  H278     1.0000 0.82420  0.82320  0.13050  Biso   1.000  H
  C319     1.0000 0.77200  0.85088  0.17290  Biso   1.000  C
  C320     1.0000 0.70930  0.85170  0.18450  Biso   1.000  C
  H279     1.0000 0.70250  0.86890  0.20870  Biso   1.000  H
  C321     1.0000 0.65630  0.82731  0.16084  Biso   1.000  C
  H280     1.0000 0.61450  0.82830  0.16920  Biso   1.000  H
  C322     1.0000 0.66520  0.80139  0.12465  Biso   1.000  C
  C323     1.0000 0.16621  0.64709  0.18635  Biso   1.000  C
  C324     1.0000 0.23921  0.63409  0.21054  Biso   1.000  C
  C325     1.0000 0.26330  0.62434  0.26640  Biso   1.000  C
  H281     1.0000 0.23630  0.62980  0.28920  Biso   1.000  H
  C326     1.0000 0.28040  0.62734  0.17750  Biso   1.000  C
  H282     1.0000 0.26550  0.63420  0.13970  Biso   1.000  H
  C327     1.0000 0.32660  0.60658  0.28950  Biso   1.000  C
  H283     1.0000 0.34130  0.59990  0.32730  Biso   1.000  H
  C328     1.0000 0.36690  0.59880  0.25820  Biso   1.000  C
  C329     1.0000 0.34490  0.61010  0.20130  Biso   1.000  C
  H284     1.0000 0.37370  0.60600  0.17950  Biso   1.000  H
  C330     1.0000 0.01769  0.70008  0.10934  Biso   1.000  C
  C331     1.0000 0.02590  0.73533  0.12465  Biso   1.000  C
  H285     1.0000 0.06810  0.74290  0.15110  Biso   1.000  H
  C332     1.0000 0.97260  0.75925  0.10130  Biso   1.000  C
  H286     1.0000 0.97860  0.78270  0.11250  Biso   1.000  H
  C333     1.0000 0.90230  0.71374  0.04440  Biso   1.000  C
  H287     1.0000 0.86080  0.70640  0.01680  Biso   1.000  H
  C334     1.0000 0.90990  0.74842  0.06110  Biso   1.000  C
  C335     1.0000 0.07051  0.67419  0.14166  Biso   1.000  C
  C336     1.0000 0.95590  0.68944  0.06852  Biso   1.000  C
  H288     1.0000 0.95000  0.66600  0.05710  Biso   1.000  H
  Cu33     1.0000 0.46138  0.87174  0.66806  Biso   1.000  Cu
  Cu34     1.0000 0.44693  0.02543  0.63229  Biso   1.000  Cu
  Cu35     1.0000 0.90701  0.74508  0.50332  Biso   1.000  Cu
  Cu36     1.0000 0.20499  0.78175  0.61885  Biso   1.000  Cu
  Cu37     1.0000 0.99368  0.67107  0.56770  Biso   1.000  Cu
  Cu38     1.0000 0.68311  0.79394  0.61228  Biso   1.000  Cu
  Cu39     1.0000 0.84760  0.66889  0.58711  Biso   1.000  Cu
  Cu40     1.0000 0.39106  0.90539  0.75359  Biso   1.000  Cu
  Cl5      1.0000 0.87489  0.68122  0.49199  Biso   1.000  Cl
  N121     1.0000 0.44999  0.92239  0.67231  Biso   1.000  N
  N122     1.0000 0.44655  0.98046  0.66193  Biso   1.000  N
  N123     1.0000 0.40832  0.93599  0.70158  Biso   1.000  N
  N124     1.0000 0.72108  0.79561  0.41617  Biso   1.000  N
  N125     1.0000 0.77620  0.74570  0.41116  Biso   1.000  N
  N126     1.0000 0.81752  0.76414  0.45830  Biso   1.000  N
  N127     1.0000 0.00524  0.74530  0.54770  Biso   1.000  N
  N128     1.0000 0.04084  0.71477  0.57201  Biso   1.000  N
  N129     1.0000 0.11861  0.75834  0.58903  Biso   1.000  N
  N130     1.0000 0.46665  0.12634  0.58867  Biso   1.000  N
  N131     1.0000 0.40502  0.12770  0.60234  Biso   1.000  N
  N132     1.0000 0.43941  0.07210  0.60671  Biso   1.000  N
  N133     1.0000 0.61429  0.86935  0.69759  Biso   1.000  N
  N134     1.0000 0.55261  0.85180  0.66905  Biso   1.000  N
  N135     1.0000 0.64117  0.82542  0.65066  Biso   1.000  N
  N136     1.0000 0.29395  0.80241  0.64908  Biso   1.000  N
  N137     1.0000 0.38593  0.83813  0.66429  Biso   1.000  N
  N138     1.0000 0.40672  0.80944  0.70004  Biso   1.000  N
  N139     1.0000 0.32420  0.62406  0.69490  Biso   1.000  N
  H289     1.0000 0.31790  0.60760  0.71620  Biso   1.000  H
  H290     1.0000 0.36290  0.62500  0.68720  Biso   1.000  H
  N140     1.0000 0.36850  0.66704  0.82330  Biso   1.000  N
  H291     1.0000 0.40380  0.65290  0.82910  Biso   1.000  H
  H292     1.0000 0.33730  0.66320  0.83940  Biso   1.000  H
  N141     1.0000 0.67510  0.91491  0.54640  Biso   1.000  N
  H293     1.0000 0.66670  0.89790  0.52250  Biso   1.000  H
  H294     1.0000 0.71440  0.92630  0.55490  Biso   1.000  H
  N142     1.0000 0.25870  0.05162  0.80790  Biso   1.000  N
  H295     1.0000 0.27600  0.07120  0.82370  Biso   1.000  H
  H296     1.0000 0.21930  0.04400  0.81010  Biso   1.000  H
  N143     1.0000 0.35440  0.72754  0.53820  Biso   1.000  N
  H297     1.0000 0.31540  0.73450  0.51360  Biso   1.000  H
  H298     1.0000 0.35930  0.70590  0.54880  Biso   1.000  H
  N144     1.0000 0.92370  0.90627  0.60150  Biso   1.000  N
  H299     1.0000 0.91750  0.92750  0.58860  Biso   1.000  H
  H300     1.0000 0.95350  0.90210  0.63450  Biso   1.000  H
  N145     1.0000 0.99090  0.91283  0.49040  Biso   1.000  N
  H301     1.0000 0.95880  0.91750  0.45870  Biso   1.000  H
  H302     1.0000 0.01280  0.92970  0.51220  Biso   1.000  H
  N146     1.0000 0.52190  0.72604  0.17431  Biso   1.000  N
  H303     1.0000 0.51670  0.70430  0.16400  Biso   1.000  H
  H304     1.0000 0.49720  0.74210  0.15230  Biso   1.000  H
  N147     1.0000 0.14790  0.92296  0.46140  Biso   1.000  N
  H305     1.0000 0.12750  0.91470  0.42800  Biso   1.000  H
  H306     1.0000 0.14300  0.94480  0.46830  Biso   1.000  H
  N148     1.0000 0.13350  0.05718  0.64450  Biso   1.000  N
  H307     1.0000 0.11620  0.07020  0.66470  Biso   1.000  H
  H308     1.0000 0.11050  0.03900  0.62750  Biso   1.000  H
  N149     1.0000 0.70470  0.03520  0.52280  Biso   1.000  N
  H309     1.0000 0.70280  0.01330  0.51350  Biso   1.000  H
  H310     1.0000 0.74000  0.04790  0.52230  Biso   1.000  H
  N150     1.0000 0.93200  0.91870  0.78230  Biso   1.000  N
  H311     1.0000 0.94590  0.92450  0.81750  Biso   1.000  H
  H312     1.0000 0.95790  0.92360  0.76190  Biso   1.000  H
  C337     1.0000 0.78339  0.79400  0.45954  Biso   1.000  C
  C338     1.0000 0.85750  0.81650  0.55459  Biso   1.000  C
  H313     1.0000 0.86360  0.79360  0.56870  Biso   1.000  H
  C339     1.0000 0.88540  0.87851  0.56850  Biso   1.000  C
  C340     1.0000 0.83720  0.88496  0.51510  Biso   1.000  C
  H314     1.0000 0.82800  0.90800  0.50220  Biso   1.000  H
  C341     1.0000 0.81318  0.82261  0.49957  Biso   1.000  C
  C342     1.0000 0.80290  0.85736  0.48099  Biso   1.000  C
  H315     1.0000 0.77220  0.86210  0.44480  Biso   1.000  H
  C343     1.0000 0.89280  0.84406  0.58876  Biso   1.000  C
  H316     1.0000 0.92180  0.83950  0.62560  Biso   1.000  H
  C344     1.0000 0.71907  0.76534  0.38686  Biso   1.000  C
  C345     1.0000 0.66488  0.75505  0.33357  Biso   1.000  C
  C346     1.0000 0.62470  0.78018  0.29598  Biso   1.000  C
  H317     1.0000 0.62930  0.80380  0.30620  Biso   1.000  H
  C347     1.0000 0.57770  0.77036  0.24350  Biso   1.000  C
  H318     1.0000 0.55090  0.78750  0.21920  Biso   1.000  H
  C348     1.0000 0.65710  0.71995  0.31608  Biso   1.000  C
  H319     1.0000 0.68350  0.70270  0.34030  Biso   1.000  H
  C349     1.0000 0.57030  0.73523  0.22690  Biso   1.000  C
  C350     1.0000 0.61070  0.71012  0.26320  Biso   1.000  C
  H320     1.0000 0.60690  0.68660  0.25240  Biso   1.000  H
  C351     1.0000 0.38986  0.09500  0.61234  Biso   1.000  C
  C352     1.0000 0.32580  0.08455  0.62416  Biso   1.000  C
  C353     1.0000 0.29850  0.10401  0.65850  Biso   1.000  C
  H321     1.0000 0.32270  0.12390  0.67670  Biso   1.000  H
  C354     1.0000 0.23580  0.09445  0.66630  Biso   1.000  C
  H322     1.0000 0.21850  0.10770  0.69000  Biso   1.000  H
  C355     1.0000 0.28850  0.05483  0.59790  Biso   1.000  C
  H323     1.0000 0.30620  0.04110  0.57490  Biso   1.000  H
  C356     1.0000 0.19880  0.06549  0.63930  Biso   1.000  C
  C357     1.0000 0.22610  0.04544  0.60520  Biso   1.000  C
  H324     1.0000 0.20190  0.02550  0.58730  Biso   1.000  H
  C358     1.0000 0.48515  0.09258  0.59066  Biso   1.000  C
  C359     1.0000 0.54260  0.04326  0.55740  Biso   1.000  C
  H325     1.0000 0.50560  0.02870  0.55830  Biso   1.000  H
  C360     1.0000 0.59480  0.02976  0.53970  Biso   1.000  C
  H326     1.0000 0.59210  0.00640  0.52810  Biso   1.000  H
  C361     1.0000 0.54330  0.07854  0.57400  Biso   1.000  C
  C362     1.0000 0.59770  0.09922  0.56950  Biso   1.000  C
  H327     1.0000 0.59820  0.12310  0.57780  Biso   1.000  H
  C363     1.0000 0.65120  0.08553  0.55320  Biso   1.000  C
  H328     1.0000 0.68800  0.10000  0.55160  Biso   1.000  H
  C364     1.0000 0.65090  0.04991  0.53880  Biso   1.000  C
  C365     1.0000 0.27495  0.85692  0.58939  Biso   1.000  C
  C366     1.0000 0.23890  0.84433  0.53604  Biso   1.000  C
  H329     1.0000 0.24290  0.82070  0.52800  Biso   1.000  H
  C367     1.0000 0.26860  0.89219  0.59920  Biso   1.000  C
  H330     1.0000 0.29370  0.90160  0.63450  Biso   1.000  H
  C368     1.0000 0.31841  0.83315  0.63432  Biso   1.000  C
  C369     1.0000 0.19680  0.86627  0.49400  Biso   1.000  C
  H331     1.0000 0.17370  0.85720  0.45820  Biso   1.000  H
  C370     1.0000 0.22530  0.91412  0.55750  Biso   1.000  C
  H332     1.0000 0.22090  0.93780  0.56530  Biso   1.000  H
  C371     1.0000 0.18890  0.90085  0.50460  Biso   1.000  C
  C372     1.0000 0.35154  0.75591  0.72121  Biso   1.000  C
  C373     1.0000 0.30060  0.74888  0.74592  Biso   1.000  C
  H333     1.0000 0.26280  0.76430  0.74050  Biso   1.000  H
  C374     1.0000 0.30550  0.71917  0.77840  Biso   1.000  C
  H334     1.0000 0.27040  0.71460  0.79420  Biso   1.000  H
  C375     1.0000 0.40666  0.73182  0.72928  Biso   1.000  C
  H335     1.0000 0.44080  0.73580  0.71220  Biso   1.000  H
  C376     1.0000 0.35058  0.78869  0.69014  Biso   1.000  C
  C377     1.0000 0.36180  0.69590  0.78808  Biso   1.000  C
  C378     1.0000 0.41130  0.70244  0.76192  Biso   1.000  C
  H336     1.0000 0.44830  0.68660  0.76650  Biso   1.000  H
  C379     1.0000 0.40695  0.97074  0.69453  Biso   1.000  C
  C380     1.0000 0.36630  0.99335  0.71973  Biso   1.000  C
  C381     1.0000 0.39290  0.02538  0.74559  Biso   1.000  C
  H337     1.0000 0.43530  0.03410  0.74310  Biso   1.000  H
  C382     1.0000 0.29460  0.03225  0.77850  Biso   1.000  C
  C383     1.0000 0.30210  0.98194  0.72270  Biso   1.000  C
  H338     1.0000 0.28290  0.96090  0.70520  Biso   1.000  H
  C384     1.0000 0.35740  0.04428  0.77470  Biso   1.000  C
  H339     1.0000 0.37630  0.06540  0.79200  Biso   1.000  H
  C385     1.0000 0.26620  0.00100  0.75100  Biso   1.000  C
  H340     1.0000 0.22270  0.99300  0.75180  Biso   1.000  H
  C386     1.0000 0.58570  0.96197  0.63209  Biso   1.000  C
  H341     1.0000 0.59400  0.98090  0.65690  Biso   1.000  H
  C387     1.0000 0.56180  0.90614  0.55804  Biso   1.000  C
  H342     1.0000 0.55320  0.88720  0.53320  Biso   1.000  H
  C388     1.0000 0.52220  0.94384  0.61874  Biso   1.000  C
  C389     1.0000 0.47270  0.94946  0.64948  Biso   1.000  C
  C390     1.0000 0.51140  0.91570  0.58068  Biso   1.000  C
  H343     1.0000 0.46900  0.90330  0.57070  Biso   1.000  H
  C391     1.0000 0.62540  0.92402  0.57110  Biso   1.000  C
  C392     1.0000 0.63670  0.95237  0.60930  Biso   1.000  C
  H344     1.0000 0.67920  0.96470  0.61920  Biso   1.000  H
  C393     1.0000 0.03814  0.80757  0.54056  Biso   1.000  C
  C394     1.0000 0.98740  0.81622  0.48878  Biso   1.000  C
  H345     1.0000 0.96290  0.79830  0.46510  Biso   1.000  H
  C395     1.0000 0.07340  0.83523  0.57470  Biso   1.000  C
  H346     1.0000 0.10780  0.83040  0.60930  Biso   1.000  H
  C396     1.0000 0.05800  0.86996  0.55780  Biso   1.000  C
  H347     1.0000 0.08190  0.88810  0.58150  Biso   1.000  H
  C397     1.0000 0.05314  0.77083  0.55824  Biso   1.000  C
  C398     1.0000 0.97300  0.85072  0.47191  Biso   1.000  C
  H348     1.0000 0.93960  0.85570  0.43690  Biso   1.000  H
  C399     1.0000 0.00760  0.87807  0.50640  Biso   1.000  C
  C400     1.0000 0.10813  0.72349  0.59612  Biso   1.000  C
  C401     1.0000 0.22940  0.69984  0.61454  Biso   1.000  C
  H349     1.0000 0.23700  0.71740  0.59140  Biso   1.000  H
  C402     1.0000 0.28180  0.67554  0.63800  Biso   1.000  C
  H350     1.0000 0.32420  0.67680  0.63050  Biso   1.000  H
  C403     1.0000 0.27200  0.64912  0.67290  Biso   1.000  C
  C404     1.0000 0.20930  0.64830  0.68450  Biso   1.000  C
  H351     1.0000 0.20250  0.63110  0.70870  Biso   1.000  H
  C405     1.0000 0.15630  0.67269  0.66084  Biso   1.000  C
  H352     1.0000 0.11450  0.67170  0.66920  Biso   1.000  H
  C406     1.0000 0.16520  0.69861  0.62465  Biso   1.000  C
  C407     1.0000 0.66621  0.85291  0.68635  Biso   1.000  C
  C408     1.0000 0.73921  0.86591  0.71054  Biso   1.000  C
  C409     1.0000 0.76330  0.87566  0.76640  Biso   1.000  C
  H353     1.0000 0.73630  0.87020  0.78920  Biso   1.000  H
  C410     1.0000 0.78040  0.87266  0.67750  Biso   1.000  C
  H354     1.0000 0.76550  0.86580  0.63970  Biso   1.000  H
  C411     1.0000 0.82660  0.89342  0.78950  Biso   1.000  C
  H355     1.0000 0.84130  0.90010  0.82730  Biso   1.000  H
  C412     1.0000 0.86690  0.90120  0.75820  Biso   1.000  C
  C413     1.0000 0.84490  0.88990  0.70130  Biso   1.000  C
  H356     1.0000 0.87370  0.89400  0.67950  Biso   1.000  H
  C414     1.0000 0.51769  0.79992  0.60934  Biso   1.000  C
  C415     1.0000 0.52590  0.76467  0.62465  Biso   1.000  C
  H357     1.0000 0.56810  0.75710  0.65110  Biso   1.000  H
  C416     1.0000 0.47260  0.74075  0.60130  Biso   1.000  C
  H358     1.0000 0.47860  0.71730  0.61250  Biso   1.000  H
  C417     1.0000 0.40230  0.78626  0.54440  Biso   1.000  C
  H359     1.0000 0.36080  0.79360  0.51680  Biso   1.000  H
  C418     1.0000 0.40990  0.75158  0.56110  Biso   1.000  C
  C419     1.0000 0.57051  0.82581  0.64166  Biso   1.000  C
  C420     1.0000 0.45590  0.81056  0.56852  Biso   1.000  C
  H360     1.0000 0.45000  0.83400  0.55710  Biso   1.000  H
  Cu41     1.0000 0.96138  0.37174  0.66806  Biso   1.000  Cu
  Cu42     1.0000 0.94693  0.52543  0.63229  Biso   1.000  Cu
  Cu43     1.0000 0.40701  0.24508  0.50332  Biso   1.000  Cu
  Cu44     1.0000 0.70499  0.28175  0.61885  Biso   1.000  Cu
  Cu45     1.0000 0.49368  0.17107  0.56770  Biso   1.000  Cu
  Cu46     1.0000 0.18311  0.29394  0.61228  Biso   1.000  Cu
  Cu47     1.0000 0.34760  0.16889  0.58711  Biso   1.000  Cu
  Cu48     1.0000 0.89106  0.40539  0.75359  Biso   1.000  Cu
  Cl6      1.0000 0.37489  0.18122  0.49199  Biso   1.000  Cl
  N151     1.0000 0.94999  0.42239  0.67231  Biso   1.000  N
  N152     1.0000 0.94655  0.48046  0.66193  Biso   1.000  N
  N153     1.0000 0.90832  0.43599  0.70158  Biso   1.000  N
  N154     1.0000 0.22108  0.29561  0.41617  Biso   1.000  N
  N155     1.0000 0.27620  0.24570  0.41116  Biso   1.000  N
  N156     1.0000 0.31752  0.26414  0.45830  Biso   1.000  N
  N157     1.0000 0.50524  0.24530  0.54770  Biso   1.000  N
  N158     1.0000 0.54084  0.21477  0.57201  Biso   1.000  N
  N159     1.0000 0.61861  0.25834  0.58903  Biso   1.000  N
  N160     1.0000 0.96665  0.62634  0.58867  Biso   1.000  N
  N161     1.0000 0.90502  0.62770  0.60234  Biso   1.000  N
  N162     1.0000 0.93941  0.57210  0.60671  Biso   1.000  N
  N163     1.0000 0.11429  0.36935  0.69759  Biso   1.000  N
  N164     1.0000 0.05261  0.35180  0.66905  Biso   1.000  N
  N165     1.0000 0.14117  0.32542  0.65066  Biso   1.000  N
  N166     1.0000 0.79395  0.30241  0.64908  Biso   1.000  N
  N167     1.0000 0.88593  0.33813  0.66429  Biso   1.000  N
  N168     1.0000 0.90672  0.30944  0.70004  Biso   1.000  N
  N169     1.0000 0.82420  0.12406  0.69490  Biso   1.000  N
  H361     1.0000 0.81790  0.10760  0.71620  Biso   1.000  H
  H362     1.0000 0.86290  0.12500  0.68720  Biso   1.000  H
  N170     1.0000 0.86850  0.16704  0.82330  Biso   1.000  N
  H363     1.0000 0.90380  0.15290  0.82910  Biso   1.000  H
  H364     1.0000 0.83730  0.16320  0.83940  Biso   1.000  H
  N171     1.0000 0.17510  0.41491  0.54640  Biso   1.000  N
  H365     1.0000 0.16670  0.39790  0.52250  Biso   1.000  H
  H366     1.0000 0.21440  0.42630  0.55490  Biso   1.000  H
  N172     1.0000 0.75870  0.55162  0.80790  Biso   1.000  N
  H367     1.0000 0.77600  0.57120  0.82370  Biso   1.000  H
  H368     1.0000 0.71930  0.54400  0.81010  Biso   1.000  H
  N173     1.0000 0.85440  0.22754  0.53820  Biso   1.000  N
  H369     1.0000 0.81540  0.23450  0.51360  Biso   1.000  H
  H370     1.0000 0.85930  0.20590  0.54880  Biso   1.000  H
  N174     1.0000 0.42370  0.40627  0.60150  Biso   1.000  N
  H371     1.0000 0.41750  0.42750  0.58860  Biso   1.000  H
  H372     1.0000 0.45350  0.40210  0.63450  Biso   1.000  H
  N175     1.0000 0.49090  0.41283  0.49040  Biso   1.000  N
  H373     1.0000 0.45880  0.41750  0.45870  Biso   1.000  H
  H374     1.0000 0.51280  0.42970  0.51220  Biso   1.000  H
  N176     1.0000 0.02190  0.22604  0.17431  Biso   1.000  N
  H375     1.0000 0.01670  0.20430  0.16400  Biso   1.000  H
  H376     1.0000 0.99720  0.24210  0.15230  Biso   1.000  H
  N177     1.0000 0.64790  0.42296  0.46140  Biso   1.000  N
  H377     1.0000 0.62750  0.41470  0.42800  Biso   1.000  H
  H378     1.0000 0.64300  0.44480  0.46830  Biso   1.000  H
  N178     1.0000 0.63350  0.55718  0.64450  Biso   1.000  N
  H379     1.0000 0.61620  0.57020  0.66470  Biso   1.000  H
  H380     1.0000 0.61050  0.53900  0.62750  Biso   1.000  H
  N179     1.0000 0.20470  0.53520  0.52280  Biso   1.000  N
  H381     1.0000 0.20280  0.51330  0.51350  Biso   1.000  H
  H382     1.0000 0.24000  0.54790  0.52230  Biso   1.000  H
  N180     1.0000 0.43200  0.41870  0.78230  Biso   1.000  N
  H383     1.0000 0.44590  0.42450  0.81750  Biso   1.000  H
  H384     1.0000 0.45790  0.42360  0.76190  Biso   1.000  H
  C421     1.0000 0.28339  0.29400  0.45954  Biso   1.000  C
  C422     1.0000 0.35750  0.31650  0.55459  Biso   1.000  C
  H385     1.0000 0.36360  0.29360  0.56870  Biso   1.000  H
  C423     1.0000 0.38540  0.37851  0.56850  Biso   1.000  C
  C424     1.0000 0.33720  0.38496  0.51510  Biso   1.000  C
  H386     1.0000 0.32800  0.40800  0.50220  Biso   1.000  H
  C425     1.0000 0.31318  0.32261  0.49957  Biso   1.000  C
  C426     1.0000 0.30290  0.35736  0.48099  Biso   1.000  C
  H387     1.0000 0.27220  0.36210  0.44480  Biso   1.000  H
  C427     1.0000 0.39280  0.34406  0.58876  Biso   1.000  C
  H388     1.0000 0.42180  0.33950  0.62560  Biso   1.000  H
  C428     1.0000 0.21907  0.26534  0.38686  Biso   1.000  C
  C429     1.0000 0.16488  0.25505  0.33357  Biso   1.000  C
  C430     1.0000 0.12470  0.28018  0.29598  Biso   1.000  C
  H389     1.0000 0.12930  0.30380  0.30620  Biso   1.000  H
  C431     1.0000 0.07770  0.27036  0.24350  Biso   1.000  C
  H390     1.0000 0.05090  0.28750  0.21920  Biso   1.000  H
  C432     1.0000 0.15710  0.21995  0.31608  Biso   1.000  C
  H391     1.0000 0.18350  0.20270  0.34030  Biso   1.000  H
  C433     1.0000 0.07030  0.23523  0.22690  Biso   1.000  C
  C434     1.0000 0.11070  0.21012  0.26320  Biso   1.000  C
  H392     1.0000 0.10690  0.18660  0.25240  Biso   1.000  H
  C435     1.0000 0.88986  0.59500  0.61234  Biso   1.000  C
  C436     1.0000 0.82580  0.58455  0.62416  Biso   1.000  C
  C437     1.0000 0.79850  0.60401  0.65850  Biso   1.000  C
  H393     1.0000 0.82270  0.62390  0.67670  Biso   1.000  H
  C438     1.0000 0.73580  0.59445  0.66630  Biso   1.000  C
  H394     1.0000 0.71850  0.60770  0.69000  Biso   1.000  H
  C439     1.0000 0.78850  0.55483  0.59790  Biso   1.000  C
  H395     1.0000 0.80620  0.54110  0.57490  Biso   1.000  H
  C440     1.0000 0.69880  0.56549  0.63930  Biso   1.000  C
  C441     1.0000 0.72610  0.54544  0.60520  Biso   1.000  C
  H396     1.0000 0.70190  0.52550  0.58730  Biso   1.000  H
  C442     1.0000 0.98515  0.59258  0.59066  Biso   1.000  C
  C443     1.0000 0.04260  0.54326  0.55740  Biso   1.000  C
  H397     1.0000 0.00560  0.52870  0.55830  Biso   1.000  H
  C444     1.0000 0.09480  0.52976  0.53970  Biso   1.000  C
  H398     1.0000 0.09210  0.50640  0.52810  Biso   1.000  H
  C445     1.0000 0.04330  0.57854  0.57400  Biso   1.000  C
  C446     1.0000 0.09770  0.59922  0.56950  Biso   1.000  C
  H399     1.0000 0.09820  0.62310  0.57780  Biso   1.000  H
  C447     1.0000 0.15120  0.58553  0.55320  Biso   1.000  C
  H400     1.0000 0.18800  0.60000  0.55160  Biso   1.000  H
  C448     1.0000 0.15090  0.54991  0.53880  Biso   1.000  C
  C449     1.0000 0.77495  0.35692  0.58939  Biso   1.000  C
  C450     1.0000 0.73890  0.34433  0.53604  Biso   1.000  C
  H401     1.0000 0.74290  0.32070  0.52800  Biso   1.000  H
  C451     1.0000 0.76860  0.39219  0.59920  Biso   1.000  C
  H402     1.0000 0.79370  0.40160  0.63450  Biso   1.000  H
  C452     1.0000 0.81841  0.33315  0.63432  Biso   1.000  C
  C453     1.0000 0.69680  0.36627  0.49400  Biso   1.000  C
  H403     1.0000 0.67370  0.35720  0.45820  Biso   1.000  H
  C454     1.0000 0.72530  0.41412  0.55750  Biso   1.000  C
  H404     1.0000 0.72090  0.43780  0.56530  Biso   1.000  H
  C455     1.0000 0.68890  0.40085  0.50460  Biso   1.000  C
  C456     1.0000 0.85154  0.25591  0.72121  Biso   1.000  C
  C457     1.0000 0.80060  0.24888  0.74592  Biso   1.000  C
  H405     1.0000 0.76280  0.26430  0.74050  Biso   1.000  H
  C458     1.0000 0.80550  0.21917  0.77840  Biso   1.000  C
  H406     1.0000 0.77040  0.21460  0.79420  Biso   1.000  H
  C459     1.0000 0.90666  0.23182  0.72928  Biso   1.000  C
  H407     1.0000 0.94080  0.23580  0.71220  Biso   1.000  H
  C460     1.0000 0.85058  0.28869  0.69014  Biso   1.000  C
  C461     1.0000 0.86180  0.19590  0.78808  Biso   1.000  C
  C462     1.0000 0.91130  0.20244  0.76192  Biso   1.000  C
  H408     1.0000 0.94830  0.18660  0.76650  Biso   1.000  H
  C463     1.0000 0.90695  0.47074  0.69453  Biso   1.000  C
  C464     1.0000 0.86630  0.49335  0.71973  Biso   1.000  C
  C465     1.0000 0.89290  0.52538  0.74559  Biso   1.000  C
  H409     1.0000 0.93530  0.53410  0.74310  Biso   1.000  H
  C466     1.0000 0.79460  0.53225  0.77850  Biso   1.000  C
  C467     1.0000 0.80210  0.48194  0.72270  Biso   1.000  C
  H410     1.0000 0.78290  0.46090  0.70520  Biso   1.000  H
  C468     1.0000 0.85740  0.54428  0.77470  Biso   1.000  C
  H411     1.0000 0.87630  0.56540  0.79200  Biso   1.000  H
  C469     1.0000 0.76620  0.50100  0.75100  Biso   1.000  C
  H412     1.0000 0.72270  0.49300  0.75180  Biso   1.000  H
  C470     1.0000 0.08570  0.46197  0.63209  Biso   1.000  C
  H413     1.0000 0.09400  0.48090  0.65690  Biso   1.000  H
  C471     1.0000 0.06180  0.40614  0.55804  Biso   1.000  C
  H414     1.0000 0.05320  0.38720  0.53320  Biso   1.000  H
  C472     1.0000 0.02220  0.44384  0.61874  Biso   1.000  C
  C473     1.0000 0.97270  0.44946  0.64948  Biso   1.000  C
  C474     1.0000 0.01140  0.41570  0.58068  Biso   1.000  C
  H415     1.0000 0.96900  0.40330  0.57070  Biso   1.000  H
  C475     1.0000 0.12540  0.42402  0.57110  Biso   1.000  C
  C476     1.0000 0.13670  0.45237  0.60930  Biso   1.000  C
  H416     1.0000 0.17920  0.46470  0.61920  Biso   1.000  H
  C477     1.0000 0.53814  0.30757  0.54056  Biso   1.000  C
  C478     1.0000 0.48740  0.31622  0.48878  Biso   1.000  C
  H417     1.0000 0.46290  0.29830  0.46510  Biso   1.000  H
  C479     1.0000 0.57340  0.33523  0.57470  Biso   1.000  C
  H418     1.0000 0.60780  0.33040  0.60930  Biso   1.000  H
  C480     1.0000 0.55800  0.36996  0.55780  Biso   1.000  C
  H419     1.0000 0.58190  0.38810  0.58150  Biso   1.000  H
  C481     1.0000 0.55314  0.27083  0.55824  Biso   1.000  C
  C482     1.0000 0.47300  0.35072  0.47191  Biso   1.000  C
  H420     1.0000 0.43960  0.35570  0.43690  Biso   1.000  H
  C483     1.0000 0.50760  0.37807  0.50640  Biso   1.000  C
  C484     1.0000 0.60813  0.22349  0.59612  Biso   1.000  C
  C485     1.0000 0.72940  0.19984  0.61454  Biso   1.000  C
  H421     1.0000 0.73700  0.21740  0.59140  Biso   1.000  H
  C486     1.0000 0.78180  0.17554  0.63800  Biso   1.000  C
  H422     1.0000 0.82420  0.17680  0.63050  Biso   1.000  H
  C487     1.0000 0.77200  0.14912  0.67290  Biso   1.000  C
  C488     1.0000 0.70930  0.14830  0.68450  Biso   1.000  C
  H423     1.0000 0.70250  0.13110  0.70870  Biso   1.000  H
  C489     1.0000 0.65630  0.17269  0.66084  Biso   1.000  C
  H424     1.0000 0.61450  0.17170  0.66920  Biso   1.000  H
  C490     1.0000 0.66520  0.19861  0.62465  Biso   1.000  C
  C491     1.0000 0.16621  0.35291  0.68635  Biso   1.000  C
  C492     1.0000 0.23921  0.36591  0.71054  Biso   1.000  C
  C493     1.0000 0.26330  0.37566  0.76640  Biso   1.000  C
  H425     1.0000 0.23630  0.37020  0.78920  Biso   1.000  H
  C494     1.0000 0.28040  0.37266  0.67750  Biso   1.000  C
  H426     1.0000 0.26550  0.36580  0.63970  Biso   1.000  H
  C495     1.0000 0.32660  0.39342  0.78950  Biso   1.000  C
  H427     1.0000 0.34130  0.40010  0.82730  Biso   1.000  H
  C496     1.0000 0.36690  0.40120  0.75820  Biso   1.000  C
  C497     1.0000 0.34490  0.38990  0.70130  Biso   1.000  C
  H428     1.0000 0.37370  0.39400  0.67950  Biso   1.000  H
  C498     1.0000 0.01769  0.29992  0.60934  Biso   1.000  C
  C499     1.0000 0.02590  0.26467  0.62465  Biso   1.000  C
  H429     1.0000 0.06810  0.25710  0.65110  Biso   1.000  H
  C500     1.0000 0.97260  0.24075  0.60130  Biso   1.000  C
  H430     1.0000 0.97860  0.21730  0.61250  Biso   1.000  H
  C501     1.0000 0.90230  0.28626  0.54440  Biso   1.000  C
  H431     1.0000 0.86080  0.29360  0.51680  Biso   1.000  H
  C502     1.0000 0.90990  0.25158  0.56110  Biso   1.000  C
  C503     1.0000 0.07051  0.32581  0.64166  Biso   1.000  C
  C504     1.0000 0.95590  0.31056  0.56852  Biso   1.000  C
  H432     1.0000 0.95000  0.33400  0.55710  Biso   1.000  H
  Cu49     1.0000 0.53862  0.87174  0.83194  Biso   1.000  Cu
  Cu50     1.0000 0.55307  0.02543  0.86771  Biso   1.000  Cu
  Cu51     1.0000 0.09299  0.74508  0.99668  Biso   1.000  Cu
  Cu52     1.0000 0.79501  0.78175  0.88115  Biso   1.000  Cu
  Cu53     1.0000 0.00632  0.67107  0.93230  Biso   1.000  Cu
  Cu54     1.0000 0.31689  0.79394  0.88772  Biso   1.000  Cu
  Cu55     1.0000 0.15240  0.66889  0.91289  Biso   1.000  Cu
  Cu56     1.0000 0.60894  0.90539  0.74641  Biso   1.000  Cu
  Cl7      1.0000 0.12511  0.68122  0.00801  Biso   1.000  Cl
  N181     1.0000 0.55001  0.92239  0.82769  Biso   1.000  N
  N182     1.0000 0.55345  0.98046  0.83807  Biso   1.000  N
  N183     1.0000 0.59168  0.93599  0.79842  Biso   1.000  N
  N184     1.0000 0.27892  0.79561  0.08383  Biso   1.000  N
  N185     1.0000 0.22380  0.74570  0.08884  Biso   1.000  N
  N186     1.0000 0.18248  0.76414  0.04170  Biso   1.000  N
  N187     1.0000 0.99476  0.74530  0.95230  Biso   1.000  N
  N188     1.0000 0.95916  0.71477  0.92799  Biso   1.000  N
  N189     1.0000 0.88139  0.75834  0.91097  Biso   1.000  N
  N190     1.0000 0.53335  0.12634  0.91133  Biso   1.000  N
  N191     1.0000 0.59498  0.12770  0.89766  Biso   1.000  N
  N192     1.0000 0.56059  0.07210  0.89329  Biso   1.000  N
  N193     1.0000 0.38571  0.86935  0.80241  Biso   1.000  N
  N194     1.0000 0.44739  0.85180  0.83095  Biso   1.000  N
  N195     1.0000 0.35883  0.82542  0.84934  Biso   1.000  N
  N196     1.0000 0.70605  0.80241  0.85092  Biso   1.000  N
  N197     1.0000 0.61407  0.83813  0.83571  Biso   1.000  N
  N198     1.0000 0.59328  0.80944  0.79996  Biso   1.000  N
  N199     1.0000 0.67580  0.62406  0.80510  Biso   1.000  N
  H433     1.0000 0.68210  0.60760  0.78380  Biso   1.000  H
  H434     1.0000 0.63710  0.62500  0.81280  Biso   1.000  H
  N200     1.0000 0.63150  0.66704  0.67670  Biso   1.000  N
  H435     1.0000 0.59620  0.65290  0.67090  Biso   1.000  H
  H436     1.0000 0.66270  0.66320  0.66060  Biso   1.000  H
  N201     1.0000 0.32490  0.91491  0.95360  Biso   1.000  N
  H437     1.0000 0.33330  0.89790  0.97750  Biso   1.000  H
  H438     1.0000 0.28560  0.92630  0.94510  Biso   1.000  H
  N202     1.0000 0.74130  0.05162  0.69210  Biso   1.000  N
  H439     1.0000 0.72400  0.07120  0.67630  Biso   1.000  H
  H440     1.0000 0.78070  0.04400  0.68990  Biso   1.000  H
  N203     1.0000 0.64560  0.72754  0.96180  Biso   1.000  N
  H441     1.0000 0.68460  0.73450  0.98640  Biso   1.000  H
  H442     1.0000 0.64070  0.70590  0.95120  Biso   1.000  H
  N204     1.0000 0.07630  0.90627  0.89850  Biso   1.000  N
  H443     1.0000 0.08250  0.92750  0.91140  Biso   1.000  H
  H444     1.0000 0.04650  0.90210  0.86550  Biso   1.000  H
  N205     1.0000 0.00910  0.91283  0.00960  Biso   1.000  N
  H445     1.0000 0.04120  0.91750  0.04130  Biso   1.000  H
  H446     1.0000 0.98720  0.92970  0.98780  Biso   1.000  H
  N206     1.0000 0.47810  0.72604  0.32569  Biso   1.000  N
  H447     1.0000 0.48330  0.70430  0.33600  Biso   1.000  H
  H448     1.0000 0.50280  0.74210  0.34770  Biso   1.000  H
  N207     1.0000 0.85210  0.92296  0.03860  Biso   1.000  N
  H449     1.0000 0.87250  0.91470  0.07200  Biso   1.000  H
  H450     1.0000 0.85700  0.94480  0.03170  Biso   1.000  H
  N208     1.0000 0.86650  0.05718  0.85550  Biso   1.000  N
  H451     1.0000 0.88380  0.07020  0.83530  Biso   1.000  H
  H452     1.0000 0.88950  0.03900  0.87250  Biso   1.000  H
  N209     1.0000 0.29530  0.03520  0.97720  Biso   1.000  N
  H453     1.0000 0.29720  0.01330  0.98650  Biso   1.000  H
  H454     1.0000 0.26000  0.04790  0.97770  Biso   1.000  H
  N210     1.0000 0.06800  0.91870  0.71770  Biso   1.000  N
  H455     1.0000 0.05410  0.92450  0.68250  Biso   1.000  H
  H456     1.0000 0.04210  0.92360  0.73810  Biso   1.000  H
  C505     1.0000 0.21661  0.79400  0.04046  Biso   1.000  C
  C506     1.0000 0.14250  0.81650  0.94541  Biso   1.000  C
  H457     1.0000 0.13640  0.79360  0.93130  Biso   1.000  H
  C507     1.0000 0.11460  0.87851  0.93150  Biso   1.000  C
  C508     1.0000 0.16280  0.88496  0.98490  Biso   1.000  C
  H458     1.0000 0.17200  0.90800  0.99780  Biso   1.000  H
  C509     1.0000 0.18682  0.82261  0.00043  Biso   1.000  C
  C510     1.0000 0.19710  0.85736  0.01901  Biso   1.000  C
  H459     1.0000 0.22780  0.86210  0.05520  Biso   1.000  H
  C511     1.0000 0.10720  0.84406  0.91124  Biso   1.000  C
  H460     1.0000 0.07820  0.83950  0.87440  Biso   1.000  H
  C512     1.0000 0.28093  0.76534  0.11314  Biso   1.000  C
  C513     1.0000 0.33512  0.75505  0.16643  Biso   1.000  C
  C514     1.0000 0.37530  0.78018  0.20402  Biso   1.000  C
  H461     1.0000 0.37070  0.80380  0.19380  Biso   1.000  H
  C515     1.0000 0.42230  0.77036  0.25650  Biso   1.000  C
  H462     1.0000 0.44910  0.78750  0.28080  Biso   1.000  H
  C516     1.0000 0.34290  0.71995  0.18392  Biso   1.000  C
  H463     1.0000 0.31650  0.70270  0.15970  Biso   1.000  H
  C517     1.0000 0.42970  0.73523  0.27310  Biso   1.000  C
  C518     1.0000 0.38930  0.71012  0.23680  Biso   1.000  C
  H464     1.0000 0.39310  0.68660  0.24760  Biso   1.000  H
  C519     1.0000 0.61014  0.09500  0.88766  Biso   1.000  C
  C520     1.0000 0.67420  0.08455  0.87584  Biso   1.000  C
  C521     1.0000 0.70150  0.10401  0.84150  Biso   1.000  C
  H465     1.0000 0.67730  0.12390  0.82330  Biso   1.000  H
  C522     1.0000 0.76420  0.09445  0.83370  Biso   1.000  C
  H466     1.0000 0.78150  0.10770  0.81000  Biso   1.000  H
  C523     1.0000 0.71150  0.05483  0.90210  Biso   1.000  C
  H467     1.0000 0.69380  0.04110  0.92510  Biso   1.000  H
  C524     1.0000 0.80120  0.06549  0.86070  Biso   1.000  C
  C525     1.0000 0.77390  0.04544  0.89480  Biso   1.000  C
  H468     1.0000 0.79810  0.02550  0.91270  Biso   1.000  H
  C526     1.0000 0.51485  0.09258  0.90934  Biso   1.000  C
  C527     1.0000 0.45740  0.04326  0.94260  Biso   1.000  C
  H469     1.0000 0.49440  0.02870  0.94170  Biso   1.000  H
  C528     1.0000 0.40520  0.02976  0.96030  Biso   1.000  C
  H470     1.0000 0.40790  0.00640  0.97190  Biso   1.000  H
  C529     1.0000 0.45670  0.07854  0.92600  Biso   1.000  C
  C530     1.0000 0.40230  0.09922  0.93050  Biso   1.000  C
  H471     1.0000 0.40180  0.12310  0.92220  Biso   1.000  H
  C531     1.0000 0.34880  0.08553  0.94680  Biso   1.000  C
  H472     1.0000 0.31200  0.10000  0.94840  Biso   1.000  H
  C532     1.0000 0.34910  0.04991  0.96120  Biso   1.000  C
  C533     1.0000 0.72505  0.85692  0.91061  Biso   1.000  C
  C534     1.0000 0.76110  0.84433  0.96396  Biso   1.000  C
  H473     1.0000 0.75710  0.82070  0.97200  Biso   1.000  H
  C535     1.0000 0.73140  0.89219  0.90080  Biso   1.000  C
  H474     1.0000 0.70630  0.90160  0.86550  Biso   1.000  H
  C536     1.0000 0.68159  0.83315  0.86568  Biso   1.000  C
  C537     1.0000 0.80320  0.86627  0.00600  Biso   1.000  C
  H475     1.0000 0.82630  0.85720  0.04180  Biso   1.000  H
  C538     1.0000 0.77470  0.91412  0.94250  Biso   1.000  C
  H476     1.0000 0.77910  0.93780  0.93470  Biso   1.000  H
  C539     1.0000 0.81110  0.90085  0.99540  Biso   1.000  C
  C540     1.0000 0.64846  0.75591  0.77879  Biso   1.000  C
  C541     1.0000 0.69940  0.74888  0.75408  Biso   1.000  C
  H477     1.0000 0.73720  0.76430  0.75950  Biso   1.000  H
  C542     1.0000 0.69450  0.71917  0.72160  Biso   1.000  C
  H478     1.0000 0.72960  0.71460  0.70580  Biso   1.000  H
  C543     1.0000 0.59334  0.73182  0.77072  Biso   1.000  C
  H479     1.0000 0.55920  0.73580  0.78780  Biso   1.000  H
  C544     1.0000 0.64942  0.78869  0.80986  Biso   1.000  C
  C545     1.0000 0.63820  0.69590  0.71192  Biso   1.000  C
  C546     1.0000 0.58870  0.70244  0.73808  Biso   1.000  C
  H480     1.0000 0.55170  0.68660  0.73350  Biso   1.000  H
  C547     1.0000 0.59305  0.97074  0.80547  Biso   1.000  C
  C548     1.0000 0.63370  0.99335  0.78027  Biso   1.000  C
  C549     1.0000 0.60710  0.02538  0.75441  Biso   1.000  C
  H481     1.0000 0.56470  0.03410  0.75690  Biso   1.000  H
  C550     1.0000 0.70540  0.03225  0.72150  Biso   1.000  C
  C551     1.0000 0.69790  0.98194  0.77730  Biso   1.000  C
  H482     1.0000 0.71710  0.96090  0.79480  Biso   1.000  H
  C552     1.0000 0.64260  0.04428  0.72530  Biso   1.000  C
  H483     1.0000 0.62370  0.06540  0.70800  Biso   1.000  H
  C553     1.0000 0.73380  0.00100  0.74900  Biso   1.000  C
  H484     1.0000 0.77730  0.99300  0.74820  Biso   1.000  H
  C554     1.0000 0.41430  0.96197  0.86791  Biso   1.000  C
  H485     1.0000 0.40600  0.98090  0.84310  Biso   1.000  H
  C555     1.0000 0.43820  0.90614  0.94196  Biso   1.000  C
  H486     1.0000 0.44680  0.88720  0.96680  Biso   1.000  H
  C556     1.0000 0.47780  0.94384  0.88126  Biso   1.000  C
  C557     1.0000 0.52730  0.94946  0.85052  Biso   1.000  C
  C558     1.0000 0.48860  0.91570  0.91932  Biso   1.000  C
  H487     1.0000 0.53100  0.90330  0.92930  Biso   1.000  H
  C559     1.0000 0.37460  0.92402  0.92890  Biso   1.000  C
  C560     1.0000 0.36330  0.95237  0.89070  Biso   1.000  C
  H488     1.0000 0.32080  0.96470  0.88080  Biso   1.000  H
  C561     1.0000 0.96186  0.80757  0.95944  Biso   1.000  C
  C562     1.0000 0.01260  0.81622  0.01122  Biso   1.000  C
  H489     1.0000 0.03710  0.79830  0.03490  Biso   1.000  H
  C563     1.0000 0.92660  0.83523  0.92530  Biso   1.000  C
  H490     1.0000 0.89220  0.83040  0.89070  Biso   1.000  H
  C564     1.0000 0.94200  0.86996  0.94220  Biso   1.000  C
  H491     1.0000 0.91810  0.88810  0.91850  Biso   1.000  H
  C565     1.0000 0.94686  0.77083  0.94176  Biso   1.000  C
  C566     1.0000 0.02700  0.85072  0.02809  Biso   1.000  C
  H492     1.0000 0.06040  0.85570  0.06310  Biso   1.000  H
  C567     1.0000 0.99240  0.87807  0.99360  Biso   1.000  C
  C568     1.0000 0.89187  0.72349  0.90388  Biso   1.000  C
  C569     1.0000 0.77060  0.69984  0.88546  Biso   1.000  C
  H493     1.0000 0.76300  0.71740  0.90860  Biso   1.000  H
  C570     1.0000 0.71820  0.67554  0.86200  Biso   1.000  C
  H494     1.0000 0.67580  0.67680  0.86950  Biso   1.000  H
  C571     1.0000 0.72800  0.64912  0.82710  Biso   1.000  C
  C572     1.0000 0.79070  0.64830  0.81550  Biso   1.000  C
  H495     1.0000 0.79750  0.63110  0.79130  Biso   1.000  H
  C573     1.0000 0.84370  0.67269  0.83916  Biso   1.000  C
  H496     1.0000 0.88550  0.67170  0.83080  Biso   1.000  H
  C574     1.0000 0.83480  0.69861  0.87535  Biso   1.000  C
  C575     1.0000 0.33379  0.85291  0.81365  Biso   1.000  C
  C576     1.0000 0.26079  0.86591  0.78946  Biso   1.000  C
  C577     1.0000 0.23670  0.87566  0.73360  Biso   1.000  C
  H497     1.0000 0.26370  0.87020  0.71080  Biso   1.000  H
  C578     1.0000 0.21960  0.87266  0.82250  Biso   1.000  C
  H498     1.0000 0.23450  0.86580  0.86030  Biso   1.000  H
  C579     1.0000 0.17340  0.89342  0.71050  Biso   1.000  C
  H499     1.0000 0.15870  0.90010  0.67270  Biso   1.000  H
  C580     1.0000 0.13310  0.90120  0.74180  Biso   1.000  C
  C581     1.0000 0.15510  0.88990  0.79870  Biso   1.000  C
  H500     1.0000 0.12630  0.89400  0.82050  Biso   1.000  H
  C582     1.0000 0.48231  0.79992  0.89066  Biso   1.000  C
  C583     1.0000 0.47410  0.76467  0.87535  Biso   1.000  C
  H501     1.0000 0.43190  0.75710  0.84890  Biso   1.000  H
  C584     1.0000 0.52740  0.74075  0.89870  Biso   1.000  C
  H502     1.0000 0.52140  0.71730  0.88750  Biso   1.000  H
  C585     1.0000 0.59770  0.78626  0.95560  Biso   1.000  C
  H503     1.0000 0.63920  0.79360  0.98320  Biso   1.000  H
  C586     1.0000 0.59010  0.75158  0.93890  Biso   1.000  C
  C587     1.0000 0.42949  0.82581  0.85834  Biso   1.000  C
  C588     1.0000 0.54410  0.81056  0.93148  Biso   1.000  C
  H504     1.0000 0.55000  0.83400  0.94290  Biso   1.000  H
  Cu57     1.0000 0.03862  0.37174  0.83194  Biso   1.000  Cu
  Cu58     1.0000 0.05307  0.52543  0.86771  Biso   1.000  Cu
  Cu59     1.0000 0.59299  0.24508  0.99668  Biso   1.000  Cu
  Cu60     1.0000 0.29501  0.28175  0.88115  Biso   1.000  Cu
  Cu61     1.0000 0.50632  0.17107  0.93230  Biso   1.000  Cu
  Cu62     1.0000 0.81689  0.29394  0.88772  Biso   1.000  Cu
  Cu63     1.0000 0.65240  0.16889  0.91289  Biso   1.000  Cu
  Cu64     1.0000 0.10894  0.40539  0.74641  Biso   1.000  Cu
  Cl8      1.0000 0.62511  0.18122  0.00801  Biso   1.000  Cl
  N211     1.0000 0.05001  0.42239  0.82769  Biso   1.000  N
  N212     1.0000 0.05345  0.48046  0.83807  Biso   1.000  N
  N213     1.0000 0.09168  0.43599  0.79842  Biso   1.000  N
  N214     1.0000 0.77892  0.29561  0.08383  Biso   1.000  N
  N215     1.0000 0.72380  0.24570  0.08884  Biso   1.000  N
  N216     1.0000 0.68248  0.26414  0.04170  Biso   1.000  N
  N217     1.0000 0.49476  0.24530  0.95230  Biso   1.000  N
  N218     1.0000 0.45916  0.21477  0.92799  Biso   1.000  N
  N219     1.0000 0.38139  0.25834  0.91097  Biso   1.000  N
  N220     1.0000 0.03335  0.62634  0.91133  Biso   1.000  N
  N221     1.0000 0.09498  0.62770  0.89766  Biso   1.000  N
  N222     1.0000 0.06059  0.57210  0.89329  Biso   1.000  N
  N223     1.0000 0.88571  0.36935  0.80241  Biso   1.000  N
  N224     1.0000 0.94739  0.35180  0.83095  Biso   1.000  N
  N225     1.0000 0.85883  0.32542  0.84934  Biso   1.000  N
  N226     1.0000 0.20605  0.30241  0.85092  Biso   1.000  N
  N227     1.0000 0.11407  0.33813  0.83571  Biso   1.000  N
  N228     1.0000 0.09328  0.30944  0.79996  Biso   1.000  N
  N229     1.0000 0.17580  0.12406  0.80510  Biso   1.000  N
  H505     1.0000 0.18210  0.10760  0.78380  Biso   1.000  H
  H506     1.0000 0.13710  0.12500  0.81280  Biso   1.000  H
  N230     1.0000 0.13150  0.16704  0.67670  Biso   1.000  N
  H507     1.0000 0.09620  0.15290  0.67090  Biso   1.000  H
  H508     1.0000 0.16270  0.16320  0.66060  Biso   1.000  H
  N231     1.0000 0.82490  0.41491  0.95360  Biso   1.000  N
  H509     1.0000 0.83330  0.39790  0.97750  Biso   1.000  H
  H510     1.0000 0.78560  0.42630  0.94510  Biso   1.000  H
  N232     1.0000 0.24130  0.55162  0.69210  Biso   1.000  N
  H511     1.0000 0.22400  0.57120  0.67630  Biso   1.000  H
  H512     1.0000 0.28070  0.54400  0.68990  Biso   1.000  H
  N233     1.0000 0.14560  0.22754  0.96180  Biso   1.000  N
  H513     1.0000 0.18460  0.23450  0.98640  Biso   1.000  H
  H514     1.0000 0.14070  0.20590  0.95120  Biso   1.000  H
  N234     1.0000 0.57630  0.40627  0.89850  Biso   1.000  N
  H515     1.0000 0.58250  0.42750  0.91140  Biso   1.000  H
  H516     1.0000 0.54650  0.40210  0.86550  Biso   1.000  H
  N235     1.0000 0.50910  0.41283  0.00960  Biso   1.000  N
  H517     1.0000 0.54120  0.41750  0.04130  Biso   1.000  H
  H518     1.0000 0.48720  0.42970  0.98780  Biso   1.000  H
  N236     1.0000 0.97810  0.22604  0.32569  Biso   1.000  N
  H519     1.0000 0.98330  0.20430  0.33600  Biso   1.000  H
  H520     1.0000 0.00280  0.24210  0.34770  Biso   1.000  H
  N237     1.0000 0.35210  0.42296  0.03860  Biso   1.000  N
  H521     1.0000 0.37250  0.41470  0.07200  Biso   1.000  H
  H522     1.0000 0.35700  0.44480  0.03170  Biso   1.000  H
  N238     1.0000 0.36650  0.55718  0.85550  Biso   1.000  N
  H523     1.0000 0.38380  0.57020  0.83530  Biso   1.000  H
  H524     1.0000 0.38950  0.53900  0.87250  Biso   1.000  H
  N239     1.0000 0.79530  0.53520  0.97720  Biso   1.000  N
  H525     1.0000 0.79720  0.51330  0.98650  Biso   1.000  H
  H526     1.0000 0.76000  0.54790  0.97770  Biso   1.000  H
  N240     1.0000 0.56800  0.41870  0.71770  Biso   1.000  N
  H527     1.0000 0.55410  0.42450  0.68250  Biso   1.000  H
  H528     1.0000 0.54210  0.42360  0.73810  Biso   1.000  H
  C589     1.0000 0.71661  0.29400  0.04046  Biso   1.000  C
  C590     1.0000 0.64250  0.31650  0.94541  Biso   1.000  C
  H529     1.0000 0.63640  0.29360  0.93130  Biso   1.000  H
  C591     1.0000 0.61460  0.37851  0.93150  Biso   1.000  C
  C592     1.0000 0.66280  0.38496  0.98490  Biso   1.000  C
  H530     1.0000 0.67200  0.40800  0.99780  Biso   1.000  H
  C593     1.0000 0.68682  0.32261  0.00043  Biso   1.000  C
  C594     1.0000 0.69710  0.35736  0.01901  Biso   1.000  C
  H531     1.0000 0.72780  0.36210  0.05520  Biso   1.000  H
  C595     1.0000 0.60720  0.34406  0.91124  Biso   1.000  C
  H532     1.0000 0.57820  0.33950  0.87440  Biso   1.000  H
  C596     1.0000 0.78093  0.26534  0.11314  Biso   1.000  C
  C597     1.0000 0.83512  0.25505  0.16643  Biso   1.000  C
  C598     1.0000 0.87530  0.28018  0.20402  Biso   1.000  C
  H533     1.0000 0.87070  0.30380  0.19380  Biso   1.000  H
  C599     1.0000 0.92230  0.27036  0.25650  Biso   1.000  C
  H534     1.0000 0.94910  0.28750  0.28080  Biso   1.000  H
  C600     1.0000 0.84290  0.21995  0.18392  Biso   1.000  C
  H535     1.0000 0.81650  0.20270  0.15970  Biso   1.000  H
  C601     1.0000 0.92970  0.23523  0.27310  Biso   1.000  C
  C602     1.0000 0.88930  0.21012  0.23680  Biso   1.000  C
  H536     1.0000 0.89310  0.18660  0.24760  Biso   1.000  H
  C603     1.0000 0.11014  0.59500  0.88766  Biso   1.000  C
  C604     1.0000 0.17420  0.58455  0.87584  Biso   1.000  C
  C605     1.0000 0.20150  0.60401  0.84150  Biso   1.000  C
  H537     1.0000 0.17730  0.62390  0.82330  Biso   1.000  H
  C606     1.0000 0.26420  0.59445  0.83370  Biso   1.000  C
  H538     1.0000 0.28150  0.60770  0.81000  Biso   1.000  H
  C607     1.0000 0.21150  0.55483  0.90210  Biso   1.000  C
  H539     1.0000 0.19380  0.54110  0.92510  Biso   1.000  H
  C608     1.0000 0.30120  0.56549  0.86070  Biso   1.000  C
  C609     1.0000 0.27390  0.54544  0.89480  Biso   1.000  C
  H540     1.0000 0.29810  0.52550  0.91270  Biso   1.000  H
  C610     1.0000 0.01485  0.59258  0.90934  Biso   1.000  C
  C611     1.0000 0.95740  0.54326  0.94260  Biso   1.000  C
  H541     1.0000 0.99440  0.52870  0.94170  Biso   1.000  H
  C612     1.0000 0.90520  0.52976  0.96030  Biso   1.000  C
  H542     1.0000 0.90790  0.50640  0.97190  Biso   1.000  H
  C613     1.0000 0.95670  0.57854  0.92600  Biso   1.000  C
  C614     1.0000 0.90230  0.59922  0.93050  Biso   1.000  C
  H543     1.0000 0.90180  0.62310  0.92220  Biso   1.000  H
  C615     1.0000 0.84880  0.58553  0.94680  Biso   1.000  C
  H544     1.0000 0.81200  0.60000  0.94840  Biso   1.000  H
  C616     1.0000 0.84910  0.54991  0.96120  Biso   1.000  C
  C617     1.0000 0.22505  0.35692  0.91061  Biso   1.000  C
  C618     1.0000 0.26110  0.34433  0.96396  Biso   1.000  C
  H545     1.0000 0.25710  0.32070  0.97200  Biso   1.000  H
  C619     1.0000 0.23140  0.39219  0.90080  Biso   1.000  C
  H546     1.0000 0.20630  0.40160  0.86550  Biso   1.000  H
  C620     1.0000 0.18159  0.33315  0.86568  Biso   1.000  C
  C621     1.0000 0.30320  0.36627  0.00600  Biso   1.000  C
  H547     1.0000 0.32630  0.35720  0.04180  Biso   1.000  H
  C622     1.0000 0.27470  0.41412  0.94250  Biso   1.000  C
  H548     1.0000 0.27910  0.43780  0.93470  Biso   1.000  H
  C623     1.0000 0.31110  0.40085  0.99540  Biso   1.000  C
  C624     1.0000 0.14846  0.25591  0.77879  Biso   1.000  C
  C625     1.0000 0.19940  0.24888  0.75408  Biso   1.000  C
  H549     1.0000 0.23720  0.26430  0.75950  Biso   1.000  H
  C626     1.0000 0.19450  0.21917  0.72160  Biso   1.000  C
  H550     1.0000 0.22960  0.21460  0.70580  Biso   1.000  H
  C627     1.0000 0.09334  0.23182  0.77072  Biso   1.000  C
  H551     1.0000 0.05920  0.23580  0.78780  Biso   1.000  H
  C628     1.0000 0.14942  0.28869  0.80986  Biso   1.000  C
  C629     1.0000 0.13820  0.19590  0.71192  Biso   1.000  C
  C630     1.0000 0.08870  0.20244  0.73808  Biso   1.000  C
  H552     1.0000 0.05170  0.18660  0.73350  Biso   1.000  H
  C631     1.0000 0.09305  0.47074  0.80547  Biso   1.000  C
  C632     1.0000 0.13370  0.49335  0.78027  Biso   1.000  C
  C633     1.0000 0.10710  0.52538  0.75441  Biso   1.000  C
  H553     1.0000 0.06470  0.53410  0.75690  Biso   1.000  H
  C634     1.0000 0.20540  0.53225  0.72150  Biso   1.000  C
  C635     1.0000 0.19790  0.48194  0.77730  Biso   1.000  C
  H554     1.0000 0.21710  0.46090  0.79480  Biso   1.000  H
  C636     1.0000 0.14260  0.54428  0.72530  Biso   1.000  C
  H555     1.0000 0.12370  0.56540  0.70800  Biso   1.000  H
  C637     1.0000 0.23380  0.50100  0.74900  Biso   1.000  C
  H556     1.0000 0.27730  0.49300  0.74820  Biso   1.000  H
  C638     1.0000 0.91430  0.46197  0.86791  Biso   1.000  C
  H557     1.0000 0.90600  0.48090  0.84310  Biso   1.000  H
  C639     1.0000 0.93820  0.40614  0.94196  Biso   1.000  C
  H558     1.0000 0.94680  0.38720  0.96680  Biso   1.000  H
  C640     1.0000 0.97780  0.44384  0.88126  Biso   1.000  C
  C641     1.0000 0.02730  0.44946  0.85052  Biso   1.000  C
  C642     1.0000 0.98860  0.41570  0.91932  Biso   1.000  C
  H559     1.0000 0.03100  0.40330  0.92930  Biso   1.000  H
  C643     1.0000 0.87460  0.42402  0.92890  Biso   1.000  C
  C644     1.0000 0.86330  0.45237  0.89070  Biso   1.000  C
  H560     1.0000 0.82080  0.46470  0.88080  Biso   1.000  H
  C645     1.0000 0.46186  0.30757  0.95944  Biso   1.000  C
  C646     1.0000 0.51260  0.31622  0.01122  Biso   1.000  C
  H561     1.0000 0.53710  0.29830  0.03490  Biso   1.000  H
  C647     1.0000 0.42660  0.33523  0.92530  Biso   1.000  C
  H562     1.0000 0.39220  0.33040  0.89070  Biso   1.000  H
  C648     1.0000 0.44200  0.36996  0.94220  Biso   1.000  C
  H563     1.0000 0.41810  0.38810  0.91850  Biso   1.000  H
  C649     1.0000 0.44686  0.27083  0.94176  Biso   1.000  C
  C650     1.0000 0.52700  0.35072  0.02809  Biso   1.000  C
  H564     1.0000 0.56040  0.35570  0.06310  Biso   1.000  H
  C651     1.0000 0.49240  0.37807  0.99360  Biso   1.000  C
  C652     1.0000 0.39187  0.22349  0.90388  Biso   1.000  C
  C653     1.0000 0.27060  0.19984  0.88546  Biso   1.000  C
  H565     1.0000 0.26300  0.21740  0.90860  Biso   1.000  H
  C654     1.0000 0.21820  0.17554  0.86200  Biso   1.000  C
  H566     1.0000 0.17580  0.17680  0.86950  Biso   1.000  H
  C655     1.0000 0.22800  0.14912  0.82710  Biso   1.000  C
  C656     1.0000 0.29070  0.14830  0.81550  Biso   1.000  C
  H567     1.0000 0.29750  0.13110  0.79130  Biso   1.000  H
  C657     1.0000 0.34370  0.17269  0.83916  Biso   1.000  C
  H568     1.0000 0.38550  0.17170  0.83080  Biso   1.000  H
  C658     1.0000 0.33480  0.19861  0.87535  Biso   1.000  C
  C659     1.0000 0.83379  0.35291  0.81365  Biso   1.000  C
  C660     1.0000 0.76079  0.36591  0.78946  Biso   1.000  C
  C661     1.0000 0.73670  0.37566  0.73360  Biso   1.000  C
  H569     1.0000 0.76370  0.37020  0.71080  Biso   1.000  H
  C662     1.0000 0.71960  0.37266  0.82250  Biso   1.000  C
  H570     1.0000 0.73450  0.36580  0.86030  Biso   1.000  H
  C663     1.0000 0.67340  0.39342  0.71050  Biso   1.000  C
  H571     1.0000 0.65870  0.40010  0.67270  Biso   1.000  H
  C664     1.0000 0.63310  0.40120  0.74180  Biso   1.000  C
  C665     1.0000 0.65510  0.38990  0.79870  Biso   1.000  C
  H572     1.0000 0.62630  0.39400  0.82050  Biso   1.000  H
  C666     1.0000 0.98231  0.29992  0.89066  Biso   1.000  C
  C667     1.0000 0.97410  0.26467  0.87535  Biso   1.000  C
  H573     1.0000 0.93190  0.25710  0.84890  Biso   1.000  H
  C668     1.0000 0.02740  0.24075  0.89870  Biso   1.000  C
  H574     1.0000 0.02140  0.21730  0.88750  Biso   1.000  H
  C669     1.0000 0.09770  0.28626  0.95560  Biso   1.000  C
  H575     1.0000 0.13920  0.29360  0.98320  Biso   1.000  H
  C670     1.0000 0.09010  0.25158  0.93890  Biso   1.000  C
  C671     1.0000 0.92949  0.32581  0.85834  Biso   1.000  C
  C672     1.0000 0.04410  0.31056  0.93148  Biso   1.000  C
  H576     1.0000 0.05000  0.33400  0.94290  Biso   1.000  H
  Cu65     1.0000 0.50000  0.19195  0.25000  Biso   1.000  Cu
  Cu66     1.0000 0.00000  0.69195  0.25000  Biso   1.000  Cu
  Cu67     1.0000 0.50000  0.80805  0.75000  Biso   1.000  Cu
  Cu68     1.0000 0.00000  0.30805  0.75000  Biso   1.000  Cu
