data_image0
_cell_length_a       20.015
_cell_length_b       38.064
_cell_length_c       25.197
_cell_angle_alpha    90
_cell_angle_beta     109.846
_cell_angle_gamma    90

_symmetry_space_group_name_H-M    "P 1"
_symmetry_int_tables_number       1

loop_
  _symmetry_equiv_pos_as_xyz
  'x, y, z'

loop_
  _atom_site_label
  _atom_site_occupancy
  _atom_site_fract_x
  _atom_site_fract_y
  _atom_site_fract_z
  _atom_site_thermal_displace_type
  _atom_site_B_iso_or_equiv
  _atom_site_type_symbol
  Cu1      1.0000 0.03921  0.12744  0.83152  Biso   1.000  Cu
  Cu2      1.0000 0.59375  0.25458  0.00012  Biso   1.000  Cu
  Cu3      1.0000 0.29550  0.21803  0.88224  Biso   1.000  Cu
  Cu4      1.0000 0.50675  0.32876  0.93212  Biso   1.000  Cu
  Cu5      1.0000 0.81646  0.20695  0.88293  Biso   1.000  Cu
  Cu6      1.0000 0.05204  0.97394  0.86547  Biso   1.000  Cu
  Cu7      1.0000 0.84942  0.16904  0.09197  Biso   1.000  Cu
  Cu8      1.0000 0.10917  0.09408  0.74664  Biso   1.000  Cu
  Br1      1.0000 0.63085  0.32094  0.01091  Biso   1.000  Br
  N1       1.0000 0.94814  0.14766  0.82977  Biso   1.000  N
  N2       1.0000 0.85925  0.17505  0.84647  Biso   1.000  N
  N3       1.0000 0.88599  0.13022  0.80145  Biso   1.000  N
  N4       1.0000 0.14620  0.27196  0.96230  Biso   1.000  N
  H1       1.0000 0.18510  0.26500  0.98720  Biso   1.000  H
  H2       1.0000 0.14120  0.29360  0.95210  Biso   1.000  H
  N5       1.0000 0.59179  0.37144  0.89273  Biso   1.000  N
  N6       1.0000 0.55861  0.42714  0.88954  Biso   1.000  N
  N7       1.0000 0.53131  0.37320  0.90792  Biso   1.000  N
  N8       1.0000 0.86550  0.43910  0.85100  Biso   1.000  N
  H3       1.0000 0.88940  0.45690  0.86840  Biso   1.000  H
  H4       1.0000 0.88190  0.42610  0.83030  Biso   1.000  H
  H5       1.0000 0.26760  0.45100  0.98550  Biso   1.000  H
  H6       1.0000 0.30410  0.48560  0.99160  Biso   1.000  H
  N9       1.0000 0.11444  0.16117  0.83578  Biso   1.000  N
  N10      1.0000 0.09392  0.18989  0.80005  Biso   1.000  N
  N11      1.0000 0.20664  0.19723  0.85181  Biso   1.000  N
  N12      1.0000 0.35270  0.07642  0.03880  Biso   1.000  N
  H7       1.0000 0.35640  0.05450  0.03230  Biso   1.000  H
  H8       1.0000 0.37460  0.08490  0.07180  Biso   1.000  H
  N13      1.0000 0.13210  0.33168  0.67790  Biso   1.000  N
  H9       1.0000 0.16350  0.33540  0.66230  Biso   1.000  H
  H10      1.0000 0.09660  0.34570  0.67170  Biso   1.000  H
  N14      1.0000 0.09215  0.06332  0.79825  Biso   1.000  N
  N15      1.0000 0.05073  0.07695  0.82753  Biso   1.000  N
  N16      1.0000 0.23850  0.94795  0.69050  Biso   1.000  N
  H11      1.0000 0.22080  0.92840  0.67480  Biso   1.000  H
  H12      1.0000 0.27760  0.95560  0.68780  Biso   1.000  H
  N17      1.0000 0.05385  0.01906  0.83713  Biso   1.000  N
  N18      1.0000 0.82660  0.08212  0.95370  Biso   1.000  N
  H13      1.0000 0.83520  0.09890  0.97790  Biso   1.000  H
  H14      1.0000 0.78740  0.07060  0.94540  Biso   1.000  H
  N19      1.0000 0.49575  0.25465  0.95433  Biso   1.000  N
  N20      1.0000 0.46008  0.28509  0.92957  Biso   1.000  N
  N21      1.0000 0.38158  0.24159  0.91237  Biso   1.000  N
  N22      1.0000 0.50870  0.08766  0.01130  Biso   1.000  N
  H15      1.0000 0.54000  0.08300  0.04360  Biso   1.000  H
  H16      1.0000 0.48740  0.07090  0.98930  Biso   1.000  H
  N23      1.0000 0.17630  0.37587  0.80460  Biso   1.000  N
  H17      1.0000 0.13710  0.37510  0.81150  Biso   1.000  H
  H18      1.0000 0.18320  0.39220  0.78340  Biso   1.000  H
  N24      1.0000 0.68263  0.23522  0.04670  Biso   1.000  N
  N25      1.0000 0.77996  0.20414  0.08833  Biso   1.000  N
  N26      1.0000 0.72413  0.25343  0.09380  Biso   1.000  N
  N27      1.0000 0.57770  0.09472  0.90050  Biso   1.000  N
  H19      1.0000 0.58270  0.07350  0.91300  Biso   1.000  H
  H20      1.0000 0.54880  0.09920  0.86720  Biso   1.000  H
  N28      1.0000 0.98150  0.27390  0.32870  Biso   1.000  N
  H21      1.0000 0.00660  0.25800  0.35090  Biso   1.000  H
  H22      1.0000 0.98650  0.29560  0.33880  Biso   1.000  H
  C1       1.0000 0.09120  0.24820  0.93870  Biso   1.000  C
  C2       1.0000 0.09860  0.21363  0.95470  Biso   1.000  C
  H23      1.0000 0.14010  0.20620  0.98260  Biso   1.000  H
  C3       1.0000 0.04510  0.18946  0.93000  Biso   1.000  C
  H24      1.0000 0.05110  0.16610  0.94120  Biso   1.000  H
  C4       1.0000 0.98290  0.20014  0.88869  Biso   1.000  C
  C5       1.0000 0.97480  0.23507  0.87390  Biso   1.000  C
  H25      1.0000 0.93250  0.24280  0.84740  Biso   1.000  H
  C6       1.0000 0.02860  0.25886  0.89800  Biso   1.000  C
  H26      1.0000 0.02280  0.28230  0.88670  Biso   1.000  H
  C7       1.0000 0.93000  0.17416  0.85617  Biso   1.000  C
  C8       1.0000 0.65630  0.11110  0.80040  Biso   1.000  C
  H27      1.0000 0.62850  0.10750  0.82290  Biso   1.000  H
  C9       1.0000 0.63220  0.09940  0.74340  Biso   1.000  C
  C10      1.0000 0.67070  0.10650  0.71160  Biso   1.000  C
  H28      1.0000 0.65450  0.09950  0.67400  Biso   1.000  H
  C11      1.0000 0.73490  0.12412  0.73300  Biso   1.000  C
  H29      1.0000 0.76090  0.12910  0.70950  Biso   1.000  H
  C12      1.0000 0.76070  0.13434  0.78899  Biso   1.000  C
  C13      1.0000 0.72070  0.12782  0.82220  Biso   1.000  C
  H30      1.0000 0.73710  0.13470  0.85990  Biso   1.000  H
  C14      1.0000 0.83360  0.14729  0.81167  Biso   1.000  C
  C15      1.0000 0.35260  0.44980  0.96400  Biso   1.000  C
  C16      1.0000 0.35120  0.41430  0.94870  Biso   1.000  C
  H31      1.0000 0.31450  0.40000  0.95080  Biso   1.000  H
  C17      1.0000 0.40320  0.40024  0.93070  Biso   1.000  C
  H32      1.0000 0.40230  0.37640  0.92220  Biso   1.000  H
  C18      1.0000 0.45680  0.42114  0.92510  Biso   1.000  C
  C19      1.0000 0.45880  0.45609  0.94140  Biso   1.000  C
  H33      1.0000 0.49530  0.47050  0.93930  Biso   1.000  H
  C20      1.0000 0.40760  0.46974  0.96060  Biso   1.000  C
  H34      1.0000 0.41050  0.49320  0.97160  Biso   1.000  H
  C21      1.0000 0.51320  0.40685  0.90628  Biso   1.000  C
  C22      1.0000 0.77270  0.45206  0.88930  Biso   1.000  C
  H35      1.0000 0.79740  0.47200  0.90660  Biso   1.000  H
  C23      1.0000 0.79930  0.43121  0.85620  Biso   1.000  C
  C24      1.0000 0.76040  0.40251  0.82860  Biso   1.000  C
  H36      1.0000 0.77670  0.38900  0.80470  Biso   1.000  H
  C25      1.0000 0.69760  0.39397  0.83660  Biso   1.000  C
  H37      1.0000 0.67250  0.37430  0.81870  Biso   1.000  H
  C26      1.0000 0.67110  0.41400  0.87070  Biso   1.000  C
  C27      1.0000 0.70970  0.44339  0.89680  Biso   1.000  C
  H38      1.0000 0.69270  0.45740  0.91970  Biso   1.000  H
  C28      1.0000 0.60690  0.40419  0.88284  Biso   1.000  C
  C29      1.0000 0.31100  0.09837  0.99560  Biso   1.000  C
  C30      1.0000 0.27540  0.08550  0.94250  Biso   1.000  C
  H39      1.0000 0.27990  0.06190  0.93470  Biso   1.000  H
  C31      1.0000 0.23280  0.10739  0.90060  Biso   1.000  C
  H40      1.0000 0.20850  0.09820  0.86500  Biso   1.000  H
  C32      1.0000 0.22580  0.14247  0.91070  Biso   1.000  C
  C33      1.0000 0.26140  0.15512  0.96440  Biso   1.000  C
  H41      1.0000 0.25680  0.17870  0.97240  Biso   1.000  H
  C34      1.0000 0.30350  0.13357  0.00640  Biso   1.000  C
  H42      1.0000 0.32710  0.14270  0.04210  Biso   1.000  H
  C35      1.0000 0.18210  0.16637  0.86608  Biso   1.000  C
  C36      1.0000 0.19550  0.28034  0.72340  Biso   1.000  C
  H43      1.0000 0.23090  0.28500  0.70830  Biso   1.000  H
  C37      1.0000 0.20040  0.25060  0.75610  Biso   1.000  C
  H44      1.0000 0.23850  0.23530  0.76210  Biso   1.000  H
  C38      1.0000 0.14870  0.24352  0.77997  Biso   1.000  C
  C39      1.0000 0.09350  0.26731  0.77191  Biso   1.000  C
  H45      1.0000 0.05950  0.26330  0.78880  Biso   1.000  H
  C40      1.0000 0.08880  0.29674  0.73900  Biso   1.000  C
  H46      1.0000 0.05170  0.31250  0.73420  Biso   1.000  H
  C41      1.0000 0.13860  0.30323  0.71290  Biso   1.000  C
  C42      1.0000 0.14950  0.21078  0.81076  Biso   1.000  C
  C43      1.0000 0.23290  0.99829  0.74790  Biso   1.000  C
  H47      1.0000 0.27620  0.00620  0.74660  Biso   1.000  H
  C44      1.0000 0.20370  0.96717  0.72030  Biso   1.000  C
  C45      1.0000 0.14130  0.95510  0.72490  Biso   1.000  C
  H48      1.0000 0.12220  0.93400  0.70790  Biso   1.000  H
  C46      1.0000 0.10610  0.97411  0.75450  Biso   1.000  C
  H49      1.0000 0.06400  0.96560  0.75750  Biso   1.000  H
  C47      1.0000 0.13380  0.00593  0.77977  Biso   1.000  C
  C48      1.0000 0.19800  0.01733  0.77700  Biso   1.000  C
  H50      1.0000 0.21800  0.03810  0.79500  Biso   1.000  H
  C49      1.0000 0.09340  0.02880  0.80507  Biso   1.000  C
  C50      1.0000 0.86440  0.04598  0.89020  Biso   1.000  C
  H51      1.0000 0.82220  0.03340  0.88020  Biso   1.000  H
  C51      1.0000 0.87540  0.07369  0.92830  Biso   1.000  C
  C52      1.0000 0.93830  0.09201  0.94130  Biso   1.000  C
  H52      1.0000 0.94630  0.11090  0.96620  Biso   1.000  H
  C53      1.0000 0.98950  0.08325  0.91847  Biso   1.000  C
  H53      1.0000 0.03180  0.09590  0.92860  Biso   1.000  H
  C54      1.0000 0.97840  0.05535  0.88013  Biso   1.000  C
  C55      1.0000 0.91570  0.03701  0.86720  Biso   1.000  C
  H54      1.0000 0.90760  0.01810  0.84230  Biso   1.000  H
  C56      1.0000 0.02810  0.04988  0.84981  Biso   1.000  C
  C57      1.0000 0.49260  0.12217  0.99500  Biso   1.000  C
  C58      1.0000 0.44210  0.13060  0.94290  Biso   1.000  C
  H55      1.0000 0.41820  0.11270  0.91880  Biso   1.000  H
  C59      1.0000 0.42710  0.16499  0.92650  Biso   1.000  C
  H56      1.0000 0.39300  0.16990  0.89160  Biso   1.000  H
  C60      1.0000 0.46230  0.19265  0.96115  Biso   1.000  C
  C61      1.0000 0.51200  0.18395  0.01320  Biso   1.000  C
  H57      1.0000 0.53620  0.20180  0.03720  Biso   1.000  H
  C62      1.0000 0.52630  0.14963  0.02990  Biso   1.000  C
  H58      1.0000 0.55920  0.14470  0.06530  Biso   1.000  H
  C63      1.0000 0.44750  0.22925  0.94343  Biso   1.000  C
  C64      1.0000 0.22820  0.35086  0.82760  Biso   1.000  C
  C65      1.0000 0.29200  0.35142  0.81660  Biso   1.000  C
  H59      1.0000 0.29900  0.36850  0.79250  Biso   1.000  H
  C66      1.0000 0.34470  0.32734  0.84060  Biso   1.000  C
  H60      1.0000 0.38700  0.32850  0.83300  Biso   1.000  H
  C67      1.0000 0.33560  0.30109  0.87614  Biso   1.000  C
  C68      1.0000 0.27060  0.30013  0.88570  Biso   1.000  C
  H61      1.0000 0.26260  0.28270  0.90880  Biso   1.000  H
  C69      1.0000 0.21860  0.32449  0.86160  Biso   1.000  C
  H62      1.0000 0.17580  0.32310  0.86850  Biso   1.000  H
  C70      1.0000 0.39240  0.27617  0.90484  Biso   1.000  C
  C71      1.0000 0.61040  0.15621  0.91480  Biso   1.000  C
  H63      1.0000 0.58210  0.16080  0.87770  Biso   1.000  H
  C72      1.0000 0.61700  0.12212  0.93470  Biso   1.000  C
  C73      1.0000 0.66350  0.11542  0.98810  Biso   1.000  C
  H64      1.0000 0.67210  0.09240  0.00070  Biso   1.000  H
  C74      1.0000 0.69740  0.14241  0.02270  Biso   1.000  C
  H65      1.0000 0.72740  0.13740  0.05910  Biso   1.000  H
  C75      1.0000 0.68780  0.17731  0.00467  Biso   1.000  C
  C76      1.0000 0.64560  0.18380  0.94960  Biso   1.000  C
  H66      1.0000 0.64050  0.20660  0.93560  Biso   1.000  H
  C77      1.0000 0.71710  0.20573  0.04489  Biso   1.000  C
  C78      1.0000 0.93230  0.26440  0.27610  Biso   1.000  C
  C79      1.0000 0.89180  0.28940  0.23920  Biso   1.000  C
  H67      1.0000 0.89630  0.31300  0.24960  Biso   1.000  H
  C80      1.0000 0.84490  0.27964  0.18730  Biso   1.000  C
  H68      1.0000 0.81840  0.29680  0.16290  Biso   1.000  H
  C81      1.0000 0.83650  0.24460  0.17065  Biso   1.000  C
  C82      1.0000 0.87730  0.21982  0.20840  Biso   1.000  C
  H69      1.0000 0.87260  0.19620  0.19840  Biso   1.000  H
  C83      1.0000 0.92480  0.22960  0.26040  Biso   1.000  C
  H70      1.0000 0.95170  0.21260  0.28490  Biso   1.000  H
  C84      1.0000 0.78180  0.23417  0.11771  Biso   1.000  C
  N29      1.0000 0.30250  0.46410  0.98310  Biso   1.000  N
  N30      1.0000 0.56550  0.08160  0.72090  Biso   1.000  N
  H71      1.0000 0.55010  0.07530  0.68610  Biso   1.000  H
  H72      1.0000 0.54090  0.07710  0.74220  Biso   1.000  H
  Cu9      1.0000 0.53921  0.62744  0.83152  Biso   1.000  Cu
  Cu10     1.0000 0.09375  0.75458  0.00012  Biso   1.000  Cu
  Cu11     1.0000 0.79550  0.71803  0.88224  Biso   1.000  Cu
  Cu12     1.0000 0.00675  0.82876  0.93212  Biso   1.000  Cu
  Cu13     1.0000 0.31646  0.70695  0.88293  Biso   1.000  Cu
  Cu14     1.0000 0.55204  0.47394  0.86547  Biso   1.000  Cu
  Cu15     1.0000 0.34942  0.66904  0.09197  Biso   1.000  Cu
  Cu16     1.0000 0.60917  0.59408  0.74664  Biso   1.000  Cu
  Br2      1.0000 0.13085  0.82094  0.01091  Biso   1.000  Br
  N31      1.0000 0.44814  0.64766  0.82977  Biso   1.000  N
  N32      1.0000 0.35925  0.67505  0.84647  Biso   1.000  N
  N33      1.0000 0.38599  0.63022  0.80145  Biso   1.000  N
  N34      1.0000 0.64620  0.77196  0.96230  Biso   1.000  N
  H73      1.0000 0.68510  0.76500  0.98720  Biso   1.000  H
  H74      1.0000 0.64120  0.79360  0.95210  Biso   1.000  H
  N35      1.0000 0.09179  0.87144  0.89273  Biso   1.000  N
  N36      1.0000 0.05861  0.92714  0.88954  Biso   1.000  N
  N37      1.0000 0.03131  0.87320  0.90792  Biso   1.000  N
  N38      1.0000 0.36550  0.93910  0.85100  Biso   1.000  N
  H75      1.0000 0.38940  0.95690  0.86840  Biso   1.000  H
  H76      1.0000 0.38190  0.92610  0.83030  Biso   1.000  H
  H77      1.0000 0.76760  0.95100  0.98550  Biso   1.000  H
  H78      1.0000 0.80410  0.98560  0.99160  Biso   1.000  H
  N39      1.0000 0.61444  0.66117  0.83578  Biso   1.000  N
  N40      1.0000 0.59392  0.68989  0.80005  Biso   1.000  N
  N41      1.0000 0.70664  0.69723  0.85181  Biso   1.000  N
  N42      1.0000 0.85270  0.57642  0.03880  Biso   1.000  N
  H79      1.0000 0.85640  0.55450  0.03230  Biso   1.000  H
  H80      1.0000 0.87460  0.58490  0.07180  Biso   1.000  H
  N43      1.0000 0.63210  0.83168  0.67790  Biso   1.000  N
  H81      1.0000 0.66350  0.83540  0.66230  Biso   1.000  H
  H82      1.0000 0.59660  0.84570  0.67170  Biso   1.000  H
  N44      1.0000 0.59215  0.56332  0.79825  Biso   1.000  N
  N45      1.0000 0.55073  0.57695  0.82753  Biso   1.000  N
  N46      1.0000 0.73850  0.44795  0.69050  Biso   1.000  N
  H83      1.0000 0.72080  0.42840  0.67480  Biso   1.000  H
  H84      1.0000 0.77760  0.45560  0.68780  Biso   1.000  H
  N47      1.0000 0.55385  0.51906  0.83713  Biso   1.000  N
  N48      1.0000 0.32660  0.58212  0.95370  Biso   1.000  N
  H85      1.0000 0.33520  0.59890  0.97790  Biso   1.000  H
  H86      1.0000 0.28740  0.57060  0.94540  Biso   1.000  H
  N49      1.0000 0.99575  0.75465  0.95433  Biso   1.000  N
  N50      1.0000 0.96008  0.78509  0.92957  Biso   1.000  N
  N51      1.0000 0.88158  0.74159  0.91237  Biso   1.000  N
  N52      1.0000 0.00870  0.58766  0.01130  Biso   1.000  N
  H87      1.0000 0.04000  0.58300  0.04360  Biso   1.000  H
  H88      1.0000 0.98740  0.57090  0.98930  Biso   1.000  H
  N53      1.0000 0.67630  0.87587  0.80460  Biso   1.000  N
  H89      1.0000 0.63710  0.87510  0.81150  Biso   1.000  H
  H90      1.0000 0.68320  0.89220  0.78340  Biso   1.000  H
  N54      1.0000 0.18263  0.73522  0.04670  Biso   1.000  N
  N55      1.0000 0.27996  0.70414  0.08833  Biso   1.000  N
  N56      1.0000 0.22413  0.75343  0.09380  Biso   1.000  N
  N57      1.0000 0.07770  0.59472  0.90050  Biso   1.000  N
  H91      1.0000 0.08270  0.57350  0.91300  Biso   1.000  H
  H92      1.0000 0.04880  0.59920  0.86720  Biso   1.000  H
  N58      1.0000 0.48150  0.77390  0.32870  Biso   1.000  N
  H93      1.0000 0.50660  0.75800  0.35090  Biso   1.000  H
  H94      1.0000 0.48650  0.79560  0.33880  Biso   1.000  H
  C85      1.0000 0.59120  0.74820  0.93870  Biso   1.000  C
  C86      1.0000 0.59860  0.71363  0.95470  Biso   1.000  C
  H95      1.0000 0.64010  0.70620  0.98260  Biso   1.000  H
  C87      1.0000 0.54510  0.68946  0.93000  Biso   1.000  C
  H96      1.0000 0.55110  0.66610  0.94120  Biso   1.000  H
  C88      1.0000 0.48290  0.70014  0.88869  Biso   1.000  C
  C89      1.0000 0.47480  0.73507  0.87390  Biso   1.000  C
  H97      1.0000 0.43250  0.74280  0.84740  Biso   1.000  H
  C90      1.0000 0.52860  0.75886  0.89800  Biso   1.000  C
  H98      1.0000 0.52280  0.78230  0.88670  Biso   1.000  H
  C91      1.0000 0.43000  0.67416  0.85617  Biso   1.000  C
  C92      1.0000 0.15630  0.61110  0.80040  Biso   1.000  C
  H99      1.0000 0.12850  0.60750  0.82290  Biso   1.000  H
  C93      1.0000 0.13220  0.59940  0.74340  Biso   1.000  C
  C94      1.0000 0.17070  0.60650  0.71160  Biso   1.000  C
  H100     1.0000 0.15450  0.59950  0.67400  Biso   1.000  H
  C95      1.0000 0.23490  0.62412  0.73300  Biso   1.000  C
  H101     1.0000 0.26090  0.62910  0.70950  Biso   1.000  H
  C96      1.0000 0.26070  0.63434  0.78899  Biso   1.000  C
  C97      1.0000 0.22070  0.62782  0.82220  Biso   1.000  C
  H102     1.0000 0.23710  0.63470  0.85990  Biso   1.000  H
  C98      1.0000 0.33360  0.64729  0.81167  Biso   1.000  C
  C99      1.0000 0.85260  0.94980  0.96400  Biso   1.000  C
  C100     1.0000 0.85120  0.91430  0.94870  Biso   1.000  C
  H103     1.0000 0.81450  0.90000  0.95080  Biso   1.000  H
  C101     1.0000 0.90320  0.90024  0.93070  Biso   1.000  C
  H104     1.0000 0.90230  0.87640  0.92220  Biso   1.000  H
  C102     1.0000 0.95680  0.92114  0.92510  Biso   1.000  C
  C103     1.0000 0.95880  0.95609  0.94140  Biso   1.000  C
  H105     1.0000 0.99530  0.97050  0.93930  Biso   1.000  H
  C104     1.0000 0.90760  0.96974  0.96060  Biso   1.000  C
  H106     1.0000 0.91050  0.99320  0.97160  Biso   1.000  H
  C105     1.0000 0.01320  0.90685  0.90628  Biso   1.000  C
  C106     1.0000 0.27270  0.95206  0.88930  Biso   1.000  C
  H107     1.0000 0.29740  0.97200  0.90660  Biso   1.000  H
  C107     1.0000 0.29930  0.93121  0.85620  Biso   1.000  C
  C108     1.0000 0.26040  0.90251  0.82860  Biso   1.000  C
  H108     1.0000 0.27670  0.88900  0.80470  Biso   1.000  H
  C109     1.0000 0.19760  0.89397  0.83660  Biso   1.000  C
  H109     1.0000 0.17250  0.87430  0.81870  Biso   1.000  H
  C110     1.0000 0.17110  0.91400  0.87070  Biso   1.000  C
  C111     1.0000 0.20970  0.94339  0.89680  Biso   1.000  C
  H110     1.0000 0.19270  0.95740  0.91970  Biso   1.000  H
  C112     1.0000 0.10690  0.90419  0.88284  Biso   1.000  C
  C113     1.0000 0.81100  0.59837  0.99560  Biso   1.000  C
  C114     1.0000 0.77540  0.58550  0.94250  Biso   1.000  C
  H111     1.0000 0.77990  0.56190  0.93470  Biso   1.000  H
  C115     1.0000 0.73280  0.60739  0.90060  Biso   1.000  C
  H112     1.0000 0.70850  0.59820  0.86500  Biso   1.000  H
  C116     1.0000 0.72580  0.64247  0.91070  Biso   1.000  C
  C117     1.0000 0.76140  0.65512  0.96440  Biso   1.000  C
  H113     1.0000 0.75680  0.67870  0.97240  Biso   1.000  H
  C118     1.0000 0.80350  0.63357  0.00640  Biso   1.000  C
  H114     1.0000 0.82710  0.64270  0.04210  Biso   1.000  H
  C119     1.0000 0.68210  0.66637  0.86608  Biso   1.000  C
  C120     1.0000 0.69550  0.78034  0.72340  Biso   1.000  C
  H115     1.0000 0.73090  0.78500  0.70830  Biso   1.000  H
  C121     1.0000 0.70040  0.75060  0.75610  Biso   1.000  C
  H116     1.0000 0.73850  0.73530  0.76210  Biso   1.000  H
  C122     1.0000 0.64870  0.74352  0.77997  Biso   1.000  C
  C123     1.0000 0.59350  0.76731  0.77191  Biso   1.000  C
  H117     1.0000 0.55950  0.76330  0.78880  Biso   1.000  H
  C124     1.0000 0.58880  0.79674  0.73900  Biso   1.000  C
  H118     1.0000 0.55170  0.81250  0.73420  Biso   1.000  H
  C125     1.0000 0.63860  0.80323  0.71290  Biso   1.000  C
  C126     1.0000 0.64950  0.71078  0.81076  Biso   1.000  C
  C127     1.0000 0.73290  0.49829  0.74790  Biso   1.000  C
  H119     1.0000 0.77620  0.50620  0.74660  Biso   1.000  H
  C128     1.0000 0.70370  0.46717  0.72030  Biso   1.000  C
  C129     1.0000 0.64130  0.45510  0.72490  Biso   1.000  C
  H120     1.0000 0.62220  0.43400  0.70790  Biso   1.000  H
  C130     1.0000 0.60610  0.47411  0.75450  Biso   1.000  C
  H121     1.0000 0.56400  0.46560  0.75750  Biso   1.000  H
  C131     1.0000 0.63380  0.50593  0.77977  Biso   1.000  C
  C132     1.0000 0.69800  0.51733  0.77700  Biso   1.000  C
  H122     1.0000 0.71800  0.53810  0.79500  Biso   1.000  H
  C133     1.0000 0.59340  0.52880  0.80507  Biso   1.000  C
  C134     1.0000 0.36440  0.54598  0.89020  Biso   1.000  C
  H123     1.0000 0.32220  0.53340  0.88020  Biso   1.000  H
  C135     1.0000 0.37540  0.57369  0.92830  Biso   1.000  C
  C136     1.0000 0.43830  0.59201  0.94130  Biso   1.000  C
  H124     1.0000 0.44630  0.61090  0.96620  Biso   1.000  H
  C137     1.0000 0.48950  0.58325  0.91847  Biso   1.000  C
  H125     1.0000 0.53180  0.59590  0.92860  Biso   1.000  H
  C138     1.0000 0.47840  0.55535  0.88013  Biso   1.000  C
  C139     1.0000 0.41570  0.53701  0.86720  Biso   1.000  C
  H126     1.0000 0.40760  0.51810  0.84230  Biso   1.000  H
  C140     1.0000 0.52810  0.54988  0.84981  Biso   1.000  C
  C141     1.0000 0.99260  0.62217  0.99500  Biso   1.000  C
  C142     1.0000 0.94210  0.63060  0.94290  Biso   1.000  C
  H127     1.0000 0.91820  0.61270  0.91880  Biso   1.000  H
  C143     1.0000 0.92710  0.66499  0.92650  Biso   1.000  C
  H128     1.0000 0.89300  0.66990  0.89160  Biso   1.000  H
  C144     1.0000 0.96230  0.69265  0.96115  Biso   1.000  C
  C145     1.0000 0.01200  0.68395  0.01320  Biso   1.000  C
  H129     1.0000 0.03620  0.70180  0.03720  Biso   1.000  H
  C146     1.0000 0.02630  0.64963  0.02990  Biso   1.000  C
  H130     1.0000 0.05920  0.64470  0.06530  Biso   1.000  H
  C147     1.0000 0.94750  0.72925  0.94343  Biso   1.000  C
  C148     1.0000 0.72820  0.85086  0.82760  Biso   1.000  C
  C149     1.0000 0.79200  0.85142  0.81660  Biso   1.000  C
  H131     1.0000 0.79900  0.86850  0.79250  Biso   1.000  H
  C150     1.0000 0.84470  0.82734  0.84060  Biso   1.000  C
  H132     1.0000 0.88700  0.82850  0.83300  Biso   1.000  H
  C151     1.0000 0.83560  0.80109  0.87614  Biso   1.000  C
  C152     1.0000 0.77060  0.80013  0.88570  Biso   1.000  C
  H133     1.0000 0.76260  0.78270  0.90880  Biso   1.000  H
  C153     1.0000 0.71860  0.82449  0.86160  Biso   1.000  C
  H134     1.0000 0.67580  0.82310  0.86850  Biso   1.000  H
  C154     1.0000 0.89240  0.77617  0.90484  Biso   1.000  C
  C155     1.0000 0.11040  0.65621  0.91480  Biso   1.000  C
  H135     1.0000 0.08210  0.66080  0.87770  Biso   1.000  H
  C156     1.0000 0.11700  0.62212  0.93470  Biso   1.000  C
  C157     1.0000 0.16350  0.61542  0.98810  Biso   1.000  C
  H136     1.0000 0.17210  0.59240  0.00070  Biso   1.000  H
  C158     1.0000 0.19740  0.64241  0.02270  Biso   1.000  C
  H137     1.0000 0.22740  0.63740  0.05910  Biso   1.000  H
  C159     1.0000 0.18780  0.67731  0.00467  Biso   1.000  C
  C160     1.0000 0.14560  0.68380  0.94960  Biso   1.000  C
  H138     1.0000 0.14050  0.70660  0.93560  Biso   1.000  H
  C161     1.0000 0.21710  0.70573  0.04489  Biso   1.000  C
  C162     1.0000 0.43230  0.76440  0.27610  Biso   1.000  C
  C163     1.0000 0.39180  0.78940  0.23920  Biso   1.000  C
  H139     1.0000 0.39630  0.81300  0.24960  Biso   1.000  H
  C164     1.0000 0.34490  0.77964  0.18730  Biso   1.000  C
  H140     1.0000 0.31840  0.79680  0.16290  Biso   1.000  H
  C165     1.0000 0.33650  0.74460  0.17065  Biso   1.000  C
  C166     1.0000 0.37730  0.71982  0.20840  Biso   1.000  C
  H141     1.0000 0.37260  0.69620  0.19840  Biso   1.000  H
  C167     1.0000 0.42480  0.72960  0.26040  Biso   1.000  C
  H142     1.0000 0.45170  0.71260  0.28490  Biso   1.000  H
  C168     1.0000 0.28180  0.73417  0.11771  Biso   1.000  C
  N59      1.0000 0.80250  0.96410  0.98310  Biso   1.000  N
  N60      1.0000 0.06550  0.58160  0.72090  Biso   1.000  N
  H143     1.0000 0.05010  0.57530  0.68610  Biso   1.000  H
  H144     1.0000 0.04090  0.57710  0.74220  Biso   1.000  H
  Cu17     1.0000 0.96079  0.12744  0.66848  Biso   1.000  Cu
  Cu18     1.0000 0.40625  0.25458  0.49988  Biso   1.000  Cu
  Cu19     1.0000 0.70450  0.21803  0.61776  Biso   1.000  Cu
  Cu20     1.0000 0.49325  0.32876  0.56788  Biso   1.000  Cu
  Cu21     1.0000 0.18354  0.20695  0.61707  Biso   1.000  Cu
  Cu22     1.0000 0.94796  0.97394  0.63453  Biso   1.000  Cu
  Cu23     1.0000 0.15058  0.16904  0.40803  Biso   1.000  Cu
  Cu24     1.0000 0.89083  0.09408  0.75336  Biso   1.000  Cu
  Br3      1.0000 0.36915  0.32094  0.48909  Biso   1.000  Br
  N61      1.0000 0.05186  0.14766  0.67023  Biso   1.000  N
  N62      1.0000 0.14075  0.17505  0.65353  Biso   1.000  N
  N63      1.0000 0.11401  0.13022  0.69855  Biso   1.000  N
  N64      1.0000 0.85380  0.27196  0.53770  Biso   1.000  N
  H145     1.0000 0.81490  0.26500  0.51280  Biso   1.000  H
  H146     1.0000 0.85880  0.29360  0.54790  Biso   1.000  H
  N65      1.0000 0.40821  0.37144  0.60727  Biso   1.000  N
  N66      1.0000 0.44139  0.42714  0.61046  Biso   1.000  N
  N67      1.0000 0.46869  0.37320  0.59208  Biso   1.000  N
  N68      1.0000 0.13450  0.43910  0.64900  Biso   1.000  N
  H147     1.0000 0.11060  0.45690  0.63160  Biso   1.000  H
  H148     1.0000 0.11810  0.42610  0.66970  Biso   1.000  H
  H149     1.0000 0.73240  0.45100  0.51450  Biso   1.000  H
  H150     1.0000 0.69590  0.48560  0.50840  Biso   1.000  H
  N69      1.0000 0.88556  0.16117  0.66422  Biso   1.000  N
  N70      1.0000 0.90608  0.18989  0.69995  Biso   1.000  N
  N71      1.0000 0.79336  0.19723  0.64819  Biso   1.000  N
  N72      1.0000 0.64730  0.07642  0.46120  Biso   1.000  N
  H151     1.0000 0.64360  0.05450  0.46770  Biso   1.000  H
  H152     1.0000 0.62540  0.08490  0.42820  Biso   1.000  H
  N73      1.0000 0.86790  0.33168  0.82210  Biso   1.000  N
  H153     1.0000 0.83650  0.33540  0.83770  Biso   1.000  H
  H154     1.0000 0.90340  0.34570  0.82830  Biso   1.000  H
  N74      1.0000 0.90785  0.06332  0.70175  Biso   1.000  N
  N75      1.0000 0.94927  0.07695  0.67247  Biso   1.000  N
  N76      1.0000 0.76150  0.94795  0.80950  Biso   1.000  N
  H155     1.0000 0.77920  0.92840  0.82520  Biso   1.000  H
  H156     1.0000 0.72240  0.95560  0.81220  Biso   1.000  H
  N77      1.0000 0.94615  0.01906  0.66287  Biso   1.000  N
  N78      1.0000 0.17340  0.08212  0.54630  Biso   1.000  N
  H157     1.0000 0.16480  0.09890  0.52210  Biso   1.000  H
  H158     1.0000 0.21260  0.07060  0.55460  Biso   1.000  H
  N79      1.0000 0.50425  0.25465  0.54567  Biso   1.000  N
  N80      1.0000 0.53992  0.28509  0.57043  Biso   1.000  N
  N81      1.0000 0.61842  0.24159  0.58763  Biso   1.000  N
  N82      1.0000 0.49130  0.08766  0.48870  Biso   1.000  N
  H159     1.0000 0.46000  0.08300  0.45640  Biso   1.000  H
  H160     1.0000 0.51260  0.07090  0.51070  Biso   1.000  H
  N83      1.0000 0.82370  0.37587  0.69540  Biso   1.000  N
  H161     1.0000 0.86290  0.37510  0.68850  Biso   1.000  H
  H162     1.0000 0.81680  0.39220  0.71660  Biso   1.000  H
  N84      1.0000 0.31737  0.23522  0.45330  Biso   1.000  N
  N85      1.0000 0.22004  0.20414  0.41167  Biso   1.000  N
  N86      1.0000 0.27587  0.25343  0.40620  Biso   1.000  N
  N87      1.0000 0.42230  0.09472  0.59950  Biso   1.000  N
  H163     1.0000 0.41730  0.07350  0.58700  Biso   1.000  H
  H164     1.0000 0.45120  0.09920  0.63280  Biso   1.000  H
  N88      1.0000 0.01850  0.27390  0.17130  Biso   1.000  N
  H165     1.0000 0.99340  0.25800  0.14910  Biso   1.000  H
  H166     1.0000 0.01350  0.29560  0.16120  Biso   1.000  H
  C169     1.0000 0.90880  0.24820  0.56130  Biso   1.000  C
  C170     1.0000 0.90140  0.21363  0.54530  Biso   1.000  C
  H167     1.0000 0.85990  0.20620  0.51740  Biso   1.000  H
  C171     1.0000 0.95490  0.18946  0.57000  Biso   1.000  C
  H168     1.0000 0.94890  0.16610  0.55880  Biso   1.000  H
  C172     1.0000 0.01710  0.20014  0.61131  Biso   1.000  C
  C173     1.0000 0.02520  0.23507  0.62610  Biso   1.000  C
  H169     1.0000 0.06750  0.24280  0.65260  Biso   1.000  H
  C174     1.0000 0.97140  0.25886  0.60200  Biso   1.000  C
  H170     1.0000 0.97720  0.28230  0.61330  Biso   1.000  H
  C175     1.0000 0.07000  0.17416  0.64383  Biso   1.000  C
  C176     1.0000 0.34370  0.11110  0.69960  Biso   1.000  C
  H171     1.0000 0.37150  0.10750  0.67710  Biso   1.000  H
  C177     1.0000 0.36780  0.09940  0.75660  Biso   1.000  C
  C178     1.0000 0.32930  0.10650  0.78840  Biso   1.000  C
  H172     1.0000 0.34550  0.09950  0.82600  Biso   1.000  H
  C179     1.0000 0.26510  0.12412  0.76700  Biso   1.000  C
  H173     1.0000 0.23910  0.12910  0.79050  Biso   1.000  H
  C180     1.0000 0.23930  0.13434  0.71101  Biso   1.000  C
  C181     1.0000 0.27930  0.12782  0.67780  Biso   1.000  C
  H174     1.0000 0.26290  0.13470  0.64010  Biso   1.000  H
  C182     1.0000 0.16640  0.14729  0.68833  Biso   1.000  C
  C183     1.0000 0.64740  0.44980  0.53600  Biso   1.000  C
  C184     1.0000 0.64880  0.41430  0.55130  Biso   1.000  C
  H175     1.0000 0.68550  0.40000  0.54920  Biso   1.000  H
  C185     1.0000 0.59680  0.40024  0.56930  Biso   1.000  C
  H176     1.0000 0.59770  0.37640  0.57780  Biso   1.000  H
  C186     1.0000 0.54320  0.42114  0.57490  Biso   1.000  C
  C187     1.0000 0.54120  0.45609  0.55860  Biso   1.000  C
  H177     1.0000 0.50470  0.47050  0.56070  Biso   1.000  H
  C188     1.0000 0.59240  0.46974  0.53940  Biso   1.000  C
  H178     1.0000 0.58950  0.49320  0.52840  Biso   1.000  H
  C189     1.0000 0.48680  0.40685  0.59372  Biso   1.000  C
  C190     1.0000 0.22730  0.45206  0.61070  Biso   1.000  C
  H179     1.0000 0.20260  0.47200  0.59340  Biso   1.000  H
  C191     1.0000 0.20070  0.43121  0.64380  Biso   1.000  C
  C192     1.0000 0.23960  0.40251  0.67140  Biso   1.000  C
  H180     1.0000 0.22330  0.38900  0.69530  Biso   1.000  H
  C193     1.0000 0.30240  0.39397  0.66340  Biso   1.000  C
  H181     1.0000 0.32750  0.37430  0.68130  Biso   1.000  H
  C194     1.0000 0.32890  0.41400  0.62930  Biso   1.000  C
  C195     1.0000 0.29030  0.44339  0.60320  Biso   1.000  C
  H182     1.0000 0.30730  0.45740  0.58030  Biso   1.000  H
  C196     1.0000 0.39310  0.40419  0.61716  Biso   1.000  C
  C197     1.0000 0.68900  0.09837  0.50440  Biso   1.000  C
  C198     1.0000 0.72460  0.08550  0.55750  Biso   1.000  C
  H183     1.0000 0.72010  0.06190  0.56530  Biso   1.000  H
  C199     1.0000 0.76720  0.10739  0.59940  Biso   1.000  C
  H184     1.0000 0.79150  0.09820  0.63500  Biso   1.000  H
  C200     1.0000 0.77420  0.14247  0.58930  Biso   1.000  C
  C201     1.0000 0.73860  0.15512  0.53560  Biso   1.000  C
  H185     1.0000 0.74320  0.17870  0.52760  Biso   1.000  H
  C202     1.0000 0.69650  0.13357  0.49360  Biso   1.000  C
  H186     1.0000 0.67290  0.14270  0.45790  Biso   1.000  H
  C203     1.0000 0.81790  0.16637  0.63392  Biso   1.000  C
  C204     1.0000 0.80450  0.28034  0.77660  Biso   1.000  C
  H187     1.0000 0.76910  0.28500  0.79170  Biso   1.000  H
  C205     1.0000 0.79960  0.25060  0.74390  Biso   1.000  C
  H188     1.0000 0.76150  0.23530  0.73790  Biso   1.000  H
  C206     1.0000 0.85130  0.24352  0.72003  Biso   1.000  C
  C207     1.0000 0.90650  0.26731  0.72809  Biso   1.000  C
  H189     1.0000 0.94050  0.26330  0.71120  Biso   1.000  H
  C208     1.0000 0.91120  0.29674  0.76100  Biso   1.000  C
  H190     1.0000 0.94830  0.31250  0.76580  Biso   1.000  H
  C209     1.0000 0.86140  0.30323  0.78710  Biso   1.000  C
  C210     1.0000 0.85050  0.21078  0.68924  Biso   1.000  C
  C211     1.0000 0.76710  0.99829  0.75210  Biso   1.000  C
  H191     1.0000 0.72380  0.00620  0.75340  Biso   1.000  H
  C212     1.0000 0.79630  0.96717  0.77970  Biso   1.000  C
  C213     1.0000 0.85870  0.95510  0.77510  Biso   1.000  C
  H192     1.0000 0.87780  0.93400  0.79210  Biso   1.000  H
  C214     1.0000 0.89390  0.97411  0.74550  Biso   1.000  C
  H193     1.0000 0.93600  0.96560  0.74250  Biso   1.000  H
  C215     1.0000 0.86620  0.00593  0.72023  Biso   1.000  C
  C216     1.0000 0.80200  0.01733  0.72300  Biso   1.000  C
  H194     1.0000 0.78200  0.03810  0.70500  Biso   1.000  H
  C217     1.0000 0.90660  0.02880  0.69493  Biso   1.000  C
  C218     1.0000 0.13560  0.04598  0.60980  Biso   1.000  C
  H195     1.0000 0.17780  0.03340  0.61980  Biso   1.000  H
  C219     1.0000 0.12460  0.07369  0.57170  Biso   1.000  C
  C220     1.0000 0.06170  0.09201  0.55870  Biso   1.000  C
  H196     1.0000 0.05370  0.11090  0.53380  Biso   1.000  H
  C221     1.0000 0.01050  0.08325  0.58153  Biso   1.000  C
  H197     1.0000 0.96820  0.09590  0.57140  Biso   1.000  H
  C222     1.0000 0.02160  0.05535  0.61987  Biso   1.000  C
  C223     1.0000 0.08430  0.03701  0.63280  Biso   1.000  C
  H198     1.0000 0.09240  0.01810  0.65770  Biso   1.000  H
  C224     1.0000 0.97190  0.04988  0.65019  Biso   1.000  C
  C225     1.0000 0.50740  0.12217  0.50500  Biso   1.000  C
  C226     1.0000 0.55790  0.13060  0.55710  Biso   1.000  C
  H199     1.0000 0.58180  0.11270  0.58120  Biso   1.000  H
  C227     1.0000 0.57290  0.16499  0.57350  Biso   1.000  C
  H200     1.0000 0.60700  0.16990  0.60840  Biso   1.000  H
  C228     1.0000 0.53770  0.19265  0.53885  Biso   1.000  C
  C229     1.0000 0.48800  0.18395  0.48680  Biso   1.000  C
  H201     1.0000 0.46380  0.20180  0.46280  Biso   1.000  H
  C230     1.0000 0.47370  0.14963  0.47010  Biso   1.000  C
  H202     1.0000 0.44080  0.14470  0.43470  Biso   1.000  H
  C231     1.0000 0.55250  0.22925  0.55657  Biso   1.000  C
  C232     1.0000 0.77180  0.35086  0.67240  Biso   1.000  C
  C233     1.0000 0.70800  0.35142  0.68340  Biso   1.000  C
  H203     1.0000 0.70100  0.36850  0.70750  Biso   1.000  H
  C234     1.0000 0.65530  0.32734  0.65940  Biso   1.000  C
  H204     1.0000 0.61300  0.32850  0.66700  Biso   1.000  H
  C235     1.0000 0.66440  0.30109  0.62386  Biso   1.000  C
  C236     1.0000 0.72940  0.30013  0.61430  Biso   1.000  C
  H205     1.0000 0.73740  0.28270  0.59120  Biso   1.000  H
  C237     1.0000 0.78140  0.32449  0.63840  Biso   1.000  C
  H206     1.0000 0.82420  0.32310  0.63150  Biso   1.000  H
  C238     1.0000 0.60760  0.27617  0.59516  Biso   1.000  C
  C239     1.0000 0.38960  0.15621  0.58520  Biso   1.000  C
  H207     1.0000 0.41790  0.16080  0.62230  Biso   1.000  H
  C240     1.0000 0.38300  0.12212  0.56530  Biso   1.000  C
  C241     1.0000 0.33650  0.11542  0.51190  Biso   1.000  C
  H208     1.0000 0.32790  0.09240  0.49930  Biso   1.000  H
  C242     1.0000 0.30260  0.14241  0.47730  Biso   1.000  C
  H209     1.0000 0.27260  0.13740  0.44090  Biso   1.000  H
  C243     1.0000 0.31220  0.17731  0.49533  Biso   1.000  C
  C244     1.0000 0.35440  0.18380  0.55040  Biso   1.000  C
  H210     1.0000 0.35950  0.20660  0.56440  Biso   1.000  H
  C245     1.0000 0.28290  0.20573  0.45511  Biso   1.000  C
  C246     1.0000 0.06770  0.26440  0.22390  Biso   1.000  C
  C247     1.0000 0.10820  0.28940  0.26080  Biso   1.000  C
  H211     1.0000 0.10370  0.31300  0.25040  Biso   1.000  H
  C248     1.0000 0.15510  0.27964  0.31270  Biso   1.000  C
  H212     1.0000 0.18160  0.29680  0.33710  Biso   1.000  H
  C249     1.0000 0.16350  0.24460  0.32935  Biso   1.000  C
  C250     1.0000 0.12270  0.21982  0.29160  Biso   1.000  C
  H213     1.0000 0.12740  0.19620  0.30160  Biso   1.000  H
  C251     1.0000 0.07520  0.22960  0.23960  Biso   1.000  C
  H214     1.0000 0.04830  0.21260  0.21510  Biso   1.000  H
  C252     1.0000 0.21820  0.23417  0.38229  Biso   1.000  C
  N89      1.0000 0.69750  0.46410  0.51690  Biso   1.000  N
  N90      1.0000 0.43450  0.08160  0.77910  Biso   1.000  N
  H215     1.0000 0.44990  0.07530  0.81390  Biso   1.000  H
  H216     1.0000 0.45910  0.07710  0.75780  Biso   1.000  H
  Cu25     1.0000 0.46079  0.62744  0.66848  Biso   1.000  Cu
  Cu26     1.0000 0.90625  0.75458  0.49988  Biso   1.000  Cu
  Cu27     1.0000 0.20450  0.71803  0.61776  Biso   1.000  Cu
  Cu28     1.0000 0.99325  0.82876  0.56788  Biso   1.000  Cu
  Cu29     1.0000 0.68354  0.70695  0.61707  Biso   1.000  Cu
  Cu30     1.0000 0.44796  0.47394  0.63453  Biso   1.000  Cu
  Cu31     1.0000 0.65058  0.66904  0.40803  Biso   1.000  Cu
  Cu32     1.0000 0.39083  0.59408  0.75336  Biso   1.000  Cu
  Br4      1.0000 0.86915  0.82094  0.48909  Biso   1.000  Br
  N91      1.0000 0.55186  0.64766  0.67023  Biso   1.000  N
  N92      1.0000 0.64075  0.67505  0.65353  Biso   1.000  N
  N93      1.0000 0.61401  0.63022  0.69855  Biso   1.000  N
  N94      1.0000 0.35380  0.77196  0.53770  Biso   1.000  N
  H217     1.0000 0.31490  0.76500  0.51280  Biso   1.000  H
  H218     1.0000 0.35880  0.79360  0.54790  Biso   1.000  H
  N95      1.0000 0.90821  0.87144  0.60727  Biso   1.000  N
  N96      1.0000 0.94139  0.92714  0.61046  Biso   1.000  N
  N97      1.0000 0.96869  0.87320  0.59208  Biso   1.000  N
  N98      1.0000 0.63450  0.93910  0.64900  Biso   1.000  N
  H219     1.0000 0.61060  0.95690  0.63160  Biso   1.000  H
  H220     1.0000 0.61810  0.92610  0.66970  Biso   1.000  H
  H221     1.0000 0.23240  0.95100  0.51450  Biso   1.000  H
  H222     1.0000 0.19590  0.98560  0.50840  Biso   1.000  H
  N99      1.0000 0.38556  0.66117  0.66422  Biso   1.000  N
  N100     1.0000 0.40608  0.68989  0.69995  Biso   1.000  N
  N101     1.0000 0.29336  0.69723  0.64819  Biso   1.000  N
  N102     1.0000 0.14730  0.57642  0.46120  Biso   1.000  N
  H223     1.0000 0.14360  0.55450  0.46770  Biso   1.000  H
  H224     1.0000 0.12540  0.58490  0.42820  Biso   1.000  H
  N103     1.0000 0.36790  0.83168  0.82210  Biso   1.000  N
  H225     1.0000 0.33650  0.83540  0.83770  Biso   1.000  H
  H226     1.0000 0.40340  0.84570  0.82830  Biso   1.000  H
  N104     1.0000 0.40785  0.56332  0.70175  Biso   1.000  N
  N105     1.0000 0.44927  0.57695  0.67247  Biso   1.000  N
  N106     1.0000 0.26150  0.44795  0.80950  Biso   1.000  N
  H227     1.0000 0.27920  0.42840  0.82520  Biso   1.000  H
  H228     1.0000 0.22240  0.45560  0.81220  Biso   1.000  H
  N107     1.0000 0.44615  0.51906  0.66287  Biso   1.000  N
  N108     1.0000 0.67340  0.58212  0.54630  Biso   1.000  N
  H229     1.0000 0.66480  0.59890  0.52210  Biso   1.000  H
  H230     1.0000 0.71260  0.57060  0.55460  Biso   1.000  H
  N109     1.0000 0.00425  0.75465  0.54567  Biso   1.000  N
  N110     1.0000 0.03992  0.78509  0.57043  Biso   1.000  N
  N111     1.0000 0.11842  0.74159  0.58763  Biso   1.000  N
  N112     1.0000 0.99130  0.58766  0.48870  Biso   1.000  N
  H231     1.0000 0.96000  0.58300  0.45640  Biso   1.000  H
  H232     1.0000 0.01260  0.57090  0.51070  Biso   1.000  H
  N113     1.0000 0.32370  0.87587  0.69540  Biso   1.000  N
  H233     1.0000 0.36290  0.87510  0.68850  Biso   1.000  H
  H234     1.0000 0.31680  0.89220  0.71660  Biso   1.000  H
  N114     1.0000 0.81737  0.73522  0.45330  Biso   1.000  N
  N115     1.0000 0.72004  0.70414  0.41167  Biso   1.000  N
  N116     1.0000 0.77587  0.75343  0.40620  Biso   1.000  N
  N117     1.0000 0.92230  0.59472  0.59950  Biso   1.000  N
  H235     1.0000 0.91730  0.57350  0.58700  Biso   1.000  H
  H236     1.0000 0.95120  0.59920  0.63280  Biso   1.000  H
  N118     1.0000 0.51850  0.77390  0.17130  Biso   1.000  N
  H237     1.0000 0.49340  0.75800  0.14910  Biso   1.000  H
  H238     1.0000 0.51350  0.79560  0.16120  Biso   1.000  H
  C253     1.0000 0.40880  0.74820  0.56130  Biso   1.000  C
  C254     1.0000 0.40140  0.71363  0.54530  Biso   1.000  C
  H239     1.0000 0.35990  0.70620  0.51740  Biso   1.000  H
  C255     1.0000 0.45490  0.68946  0.57000  Biso   1.000  C
  H240     1.0000 0.44890  0.66610  0.55880  Biso   1.000  H
  C256     1.0000 0.51710  0.70014  0.61131  Biso   1.000  C
  C257     1.0000 0.52520  0.73507  0.62610  Biso   1.000  C
  H241     1.0000 0.56750  0.74280  0.65260  Biso   1.000  H
  C258     1.0000 0.47140  0.75886  0.60200  Biso   1.000  C
  H242     1.0000 0.47720  0.78230  0.61330  Biso   1.000  H
  C259     1.0000 0.57000  0.67416  0.64383  Biso   1.000  C
  C260     1.0000 0.84370  0.61110  0.69960  Biso   1.000  C
  H243     1.0000 0.87150  0.60750  0.67710  Biso   1.000  H
  C261     1.0000 0.86780  0.59940  0.75660  Biso   1.000  C
  C262     1.0000 0.82930  0.60650  0.78840  Biso   1.000  C
  H244     1.0000 0.84550  0.59950  0.82600  Biso   1.000  H
  C263     1.0000 0.76510  0.62412  0.76700  Biso   1.000  C
  H245     1.0000 0.73910  0.62910  0.79050  Biso   1.000  H
  C264     1.0000 0.73930  0.63434  0.71101  Biso   1.000  C
  C265     1.0000 0.77930  0.62782  0.67780  Biso   1.000  C
  H246     1.0000 0.76290  0.63470  0.64010  Biso   1.000  H
  C266     1.0000 0.66640  0.64729  0.68833  Biso   1.000  C
  C267     1.0000 0.14740  0.94980  0.53600  Biso   1.000  C
  C268     1.0000 0.14880  0.91430  0.55130  Biso   1.000  C
  H247     1.0000 0.18550  0.90000  0.54920  Biso   1.000  H
  C269     1.0000 0.09680  0.90024  0.56930  Biso   1.000  C
  H248     1.0000 0.09770  0.87640  0.57780  Biso   1.000  H
  C270     1.0000 0.04320  0.92114  0.57490  Biso   1.000  C
  C271     1.0000 0.04120  0.95609  0.55860  Biso   1.000  C
  H249     1.0000 0.00470  0.97050  0.56070  Biso   1.000  H
  C272     1.0000 0.09240  0.96974  0.53940  Biso   1.000  C
  H250     1.0000 0.08950  0.99320  0.52840  Biso   1.000  H
  C273     1.0000 0.98680  0.90685  0.59372  Biso   1.000  C
  C274     1.0000 0.72730  0.95206  0.61070  Biso   1.000  C
  H251     1.0000 0.70260  0.97200  0.59340  Biso   1.000  H
  C275     1.0000 0.70070  0.93121  0.64380  Biso   1.000  C
  C276     1.0000 0.73960  0.90251  0.67140  Biso   1.000  C
  H252     1.0000 0.72330  0.88900  0.69530  Biso   1.000  H
  C277     1.0000 0.80240  0.89397  0.66340  Biso   1.000  C
  H253     1.0000 0.82750  0.87430  0.68130  Biso   1.000  H
  C278     1.0000 0.82890  0.91400  0.62930  Biso   1.000  C
  C279     1.0000 0.79030  0.94339  0.60320  Biso   1.000  C
  H254     1.0000 0.80730  0.95740  0.58030  Biso   1.000  H
  C280     1.0000 0.89310  0.90419  0.61716  Biso   1.000  C
  C281     1.0000 0.18900  0.59837  0.50440  Biso   1.000  C
  C282     1.0000 0.22460  0.58550  0.55750  Biso   1.000  C
  H255     1.0000 0.22010  0.56190  0.56530  Biso   1.000  H
  C283     1.0000 0.26720  0.60739  0.59940  Biso   1.000  C
  H256     1.0000 0.29150  0.59820  0.63500  Biso   1.000  H
  C284     1.0000 0.27420  0.64247  0.58930  Biso   1.000  C
  C285     1.0000 0.23860  0.65512  0.53560  Biso   1.000  C
  H257     1.0000 0.24320  0.67870  0.52760  Biso   1.000  H
  C286     1.0000 0.19650  0.63357  0.49360  Biso   1.000  C
  H258     1.0000 0.17290  0.64270  0.45790  Biso   1.000  H
  C287     1.0000 0.31790  0.66637  0.63392  Biso   1.000  C
  C288     1.0000 0.30450  0.78034  0.77660  Biso   1.000  C
  H259     1.0000 0.26910  0.78500  0.79170  Biso   1.000  H
  C289     1.0000 0.29960  0.75060  0.74390  Biso   1.000  C
  H260     1.0000 0.26150  0.73530  0.73790  Biso   1.000  H
  C290     1.0000 0.35130  0.74352  0.72003  Biso   1.000  C
  C291     1.0000 0.40650  0.76731  0.72809  Biso   1.000  C
  H261     1.0000 0.44050  0.76330  0.71120  Biso   1.000  H
  C292     1.0000 0.41120  0.79674  0.76100  Biso   1.000  C
  H262     1.0000 0.44830  0.81250  0.76580  Biso   1.000  H
  C293     1.0000 0.36140  0.80323  0.78710  Biso   1.000  C
  C294     1.0000 0.35050  0.71078  0.68924  Biso   1.000  C
  C295     1.0000 0.26710  0.49829  0.75210  Biso   1.000  C
  H263     1.0000 0.22380  0.50620  0.75340  Biso   1.000  H
  C296     1.0000 0.29630  0.46717  0.77970  Biso   1.000  C
  C297     1.0000 0.35870  0.45510  0.77510  Biso   1.000  C
  H264     1.0000 0.37780  0.43400  0.79210  Biso   1.000  H
  C298     1.0000 0.39390  0.47411  0.74550  Biso   1.000  C
  H265     1.0000 0.43600  0.46560  0.74250  Biso   1.000  H
  C299     1.0000 0.36620  0.50593  0.72023  Biso   1.000  C
  C300     1.0000 0.30200  0.51733  0.72300  Biso   1.000  C
  H266     1.0000 0.28200  0.53810  0.70500  Biso   1.000  H
  C301     1.0000 0.40660  0.52880  0.69493  Biso   1.000  C
  C302     1.0000 0.63560  0.54598  0.60980  Biso   1.000  C
  H267     1.0000 0.67780  0.53340  0.61980  Biso   1.000  H
  C303     1.0000 0.62460  0.57369  0.57170  Biso   1.000  C
  C304     1.0000 0.56170  0.59201  0.55870  Biso   1.000  C
  H268     1.0000 0.55370  0.61090  0.53380  Biso   1.000  H
  C305     1.0000 0.51050  0.58325  0.58153  Biso   1.000  C
  H269     1.0000 0.46820  0.59590  0.57140  Biso   1.000  H
  C306     1.0000 0.52160  0.55535  0.61987  Biso   1.000  C
  C307     1.0000 0.58430  0.53701  0.63280  Biso   1.000  C
  H270     1.0000 0.59240  0.51810  0.65770  Biso   1.000  H
  C308     1.0000 0.47190  0.54988  0.65019  Biso   1.000  C
  C309     1.0000 0.00740  0.62217  0.50500  Biso   1.000  C
  C310     1.0000 0.05790  0.63060  0.55710  Biso   1.000  C
  H271     1.0000 0.08180  0.61270  0.58120  Biso   1.000  H
  C311     1.0000 0.07290  0.66499  0.57350  Biso   1.000  C
  H272     1.0000 0.10700  0.66990  0.60840  Biso   1.000  H
  C312     1.0000 0.03770  0.69265  0.53885  Biso   1.000  C
  C313     1.0000 0.98800  0.68395  0.48680  Biso   1.000  C
  H273     1.0000 0.96380  0.70180  0.46280  Biso   1.000  H
  C314     1.0000 0.97370  0.64963  0.47010  Biso   1.000  C
  H274     1.0000 0.94080  0.64470  0.43470  Biso   1.000  H
  C315     1.0000 0.05250  0.72925  0.55657  Biso   1.000  C
  C316     1.0000 0.27180  0.85086  0.67240  Biso   1.000  C
  C317     1.0000 0.20800  0.85142  0.68340  Biso   1.000  C
  H275     1.0000 0.20100  0.86850  0.70750  Biso   1.000  H
  C318     1.0000 0.15530  0.82734  0.65940  Biso   1.000  C
  H276     1.0000 0.11300  0.82850  0.66700  Biso   1.000  H
  C319     1.0000 0.16440  0.80109  0.62386  Biso   1.000  C
  C320     1.0000 0.22940  0.80013  0.61430  Biso   1.000  C
  H277     1.0000 0.23740  0.78270  0.59120  Biso   1.000  H
  C321     1.0000 0.28140  0.82449  0.63840  Biso   1.000  C
  H278     1.0000 0.32420  0.82310  0.63150  Biso   1.000  H
  C322     1.0000 0.10760  0.77617  0.59516  Biso   1.000  C
  C323     1.0000 0.88960  0.65621  0.58520  Biso   1.000  C
  H279     1.0000 0.91790  0.66080  0.62230  Biso   1.000  H
  C324     1.0000 0.88300  0.62212  0.56530  Biso   1.000  C
  C325     1.0000 0.83650  0.61542  0.51190  Biso   1.000  C
  H280     1.0000 0.82790  0.59240  0.49930  Biso   1.000  H
  C326     1.0000 0.80260  0.64241  0.47730  Biso   1.000  C
  H281     1.0000 0.77260  0.63740  0.44090  Biso   1.000  H
  C327     1.0000 0.81220  0.67731  0.49533  Biso   1.000  C
  C328     1.0000 0.85440  0.68380  0.55040  Biso   1.000  C
  H282     1.0000 0.85950  0.70660  0.56440  Biso   1.000  H
  C329     1.0000 0.78290  0.70573  0.45511  Biso   1.000  C
  C330     1.0000 0.56770  0.76440  0.22390  Biso   1.000  C
  C331     1.0000 0.60820  0.78940  0.26080  Biso   1.000  C
  H283     1.0000 0.60370  0.81300  0.25040  Biso   1.000  H
  C332     1.0000 0.65510  0.77964  0.31270  Biso   1.000  C
  H284     1.0000 0.68160  0.79680  0.33710  Biso   1.000  H
  C333     1.0000 0.66350  0.74460  0.32935  Biso   1.000  C
  C334     1.0000 0.62270  0.71982  0.29160  Biso   1.000  C
  H285     1.0000 0.62740  0.69620  0.30160  Biso   1.000  H
  C335     1.0000 0.57520  0.72960  0.23960  Biso   1.000  C
  H286     1.0000 0.54830  0.71260  0.21510  Biso   1.000  H
  C336     1.0000 0.71820  0.73417  0.38229  Biso   1.000  C
  N119     1.0000 0.19750  0.96410  0.51690  Biso   1.000  N
  N120     1.0000 0.93450  0.58160  0.77910  Biso   1.000  N
  H287     1.0000 0.94990  0.57530  0.81390  Biso   1.000  H
  H288     1.0000 0.95910  0.57710  0.75780  Biso   1.000  H
  Cu33     1.0000 0.96079  0.87256  0.16848  Biso   1.000  Cu
  Cu34     1.0000 0.40625  0.74542  0.99988  Biso   1.000  Cu
  Cu35     1.0000 0.70450  0.78197  0.11776  Biso   1.000  Cu
  Cu36     1.0000 0.49325  0.67124  0.06788  Biso   1.000  Cu
  Cu37     1.0000 0.18354  0.79305  0.11707  Biso   1.000  Cu
  Cu38     1.0000 0.94796  0.02606  0.13453  Biso   1.000  Cu
  Cu39     1.0000 0.15058  0.83096  0.90803  Biso   1.000  Cu
  Cu40     1.0000 0.89083  0.90592  0.25336  Biso   1.000  Cu
  Br5      1.0000 0.36915  0.67906  0.98909  Biso   1.000  Br
  N121     1.0000 0.05186  0.85234  0.17023  Biso   1.000  N
  N122     1.0000 0.14075  0.82495  0.15353  Biso   1.000  N
  N123     1.0000 0.11401  0.86978  0.19855  Biso   1.000  N
  N124     1.0000 0.85380  0.72804  0.03770  Biso   1.000  N
  H289     1.0000 0.81490  0.73500  0.01280  Biso   1.000  H
  H290     1.0000 0.85880  0.70640  0.04790  Biso   1.000  H
  N125     1.0000 0.40821  0.62856  0.10727  Biso   1.000  N
  N126     1.0000 0.44139  0.57286  0.11046  Biso   1.000  N
  N127     1.0000 0.46869  0.62680  0.09208  Biso   1.000  N
  N128     1.0000 0.13450  0.56090  0.14900  Biso   1.000  N
  H291     1.0000 0.11060  0.54310  0.13160  Biso   1.000  H
  H292     1.0000 0.11810  0.57390  0.16970  Biso   1.000  H
  H293     1.0000 0.73240  0.54900  0.01450  Biso   1.000  H
  H294     1.0000 0.69590  0.51440  0.00840  Biso   1.000  H
  N129     1.0000 0.88556  0.83883  0.16422  Biso   1.000  N
  N130     1.0000 0.90608  0.81011  0.19995  Biso   1.000  N
  N131     1.0000 0.79336  0.80277  0.14819  Biso   1.000  N
  N132     1.0000 0.64730  0.92358  0.96120  Biso   1.000  N
  H295     1.0000 0.64360  0.94550  0.96770  Biso   1.000  H
  H296     1.0000 0.62540  0.91510  0.92820  Biso   1.000  H
  N133     1.0000 0.86790  0.66832  0.32210  Biso   1.000  N
  H297     1.0000 0.83650  0.66460  0.33770  Biso   1.000  H
  H298     1.0000 0.90340  0.65430  0.32830  Biso   1.000  H
  N134     1.0000 0.90785  0.93668  0.20175  Biso   1.000  N
  N135     1.0000 0.94927  0.92305  0.17247  Biso   1.000  N
  N136     1.0000 0.76150  0.05205  0.30950  Biso   1.000  N
  H299     1.0000 0.77920  0.07160  0.32520  Biso   1.000  H
  H300     1.0000 0.72240  0.04440  0.31220  Biso   1.000  H
  N137     1.0000 0.94615  0.98094  0.16287  Biso   1.000  N
  N138     1.0000 0.17340  0.91788  0.04630  Biso   1.000  N
  H301     1.0000 0.16480  0.90110  0.02210  Biso   1.000  H
  H302     1.0000 0.21260  0.92940  0.05460  Biso   1.000  H
  N139     1.0000 0.50425  0.74535  0.04567  Biso   1.000  N
  N140     1.0000 0.53992  0.71491  0.07043  Biso   1.000  N
  N141     1.0000 0.61842  0.75841  0.08763  Biso   1.000  N
  N142     1.0000 0.49130  0.91234  0.98870  Biso   1.000  N
  H303     1.0000 0.46000  0.91700  0.95640  Biso   1.000  H
  H304     1.0000 0.51260  0.92910  0.01070  Biso   1.000  H
  N143     1.0000 0.82370  0.62413  0.19540  Biso   1.000  N
  H305     1.0000 0.86290  0.62490  0.18850  Biso   1.000  H
  H306     1.0000 0.81680  0.60780  0.21660  Biso   1.000  H
  N144     1.0000 0.31737  0.76478  0.95330  Biso   1.000  N
  N145     1.0000 0.22004  0.79586  0.91167  Biso   1.000  N
  N146     1.0000 0.27587  0.74657  0.90620  Biso   1.000  N
  N147     1.0000 0.42230  0.90528  0.09950  Biso   1.000  N
  H307     1.0000 0.41730  0.92650  0.08700  Biso   1.000  H
  H308     1.0000 0.45120  0.90080  0.13280  Biso   1.000  H
  N148     1.0000 0.01850  0.72610  0.67130  Biso   1.000  N
  H309     1.0000 0.99340  0.74200  0.64910  Biso   1.000  H
  H310     1.0000 0.01350  0.70440  0.66120  Biso   1.000  H
  C337     1.0000 0.90880  0.75180  0.06130  Biso   1.000  C
  C338     1.0000 0.90140  0.78637  0.04530  Biso   1.000  C
  H311     1.0000 0.85990  0.79380  0.01740  Biso   1.000  H
  C339     1.0000 0.95490  0.81054  0.07000  Biso   1.000  C
  H312     1.0000 0.94890  0.83390  0.05880  Biso   1.000  H
  C340     1.0000 0.01710  0.79986  0.11131  Biso   1.000  C
  C341     1.0000 0.02520  0.76493  0.12610  Biso   1.000  C
  H313     1.0000 0.06750  0.75720  0.15260  Biso   1.000  H
  C342     1.0000 0.97140  0.74114  0.10200  Biso   1.000  C
  H314     1.0000 0.97720  0.71770  0.11330  Biso   1.000  H
  C343     1.0000 0.07000  0.82584  0.14383  Biso   1.000  C
  C344     1.0000 0.34370  0.88890  0.19960  Biso   1.000  C
  H315     1.0000 0.37150  0.89250  0.17710  Biso   1.000  H
  C345     1.0000 0.36780  0.90060  0.25660  Biso   1.000  C
  C346     1.0000 0.32930  0.89350  0.28840  Biso   1.000  C
  H316     1.0000 0.34550  0.90050  0.32600  Biso   1.000  H
  C347     1.0000 0.26510  0.87588  0.26700  Biso   1.000  C
  H317     1.0000 0.23910  0.87090  0.29050  Biso   1.000  H
  C348     1.0000 0.23930  0.86566  0.21101  Biso   1.000  C
  C349     1.0000 0.27930  0.87218  0.17780  Biso   1.000  C
  H318     1.0000 0.26290  0.86530  0.14010  Biso   1.000  H
  C350     1.0000 0.16640  0.85271  0.18833  Biso   1.000  C
  C351     1.0000 0.64740  0.55020  0.03600  Biso   1.000  C
  C352     1.0000 0.64880  0.58570  0.05130  Biso   1.000  C
  H319     1.0000 0.68550  0.60000  0.04920  Biso   1.000  H
  C353     1.0000 0.59680  0.59976  0.06930  Biso   1.000  C
  H320     1.0000 0.59770  0.62360  0.07780  Biso   1.000  H
  C354     1.0000 0.54320  0.57886  0.07490  Biso   1.000  C
  C355     1.0000 0.54120  0.54391  0.05860  Biso   1.000  C
  H321     1.0000 0.50470  0.52950  0.06070  Biso   1.000  H
  C356     1.0000 0.59240  0.53026  0.03940  Biso   1.000  C
  H322     1.0000 0.58950  0.50680  0.02840  Biso   1.000  H
  C357     1.0000 0.48680  0.59315  0.09372  Biso   1.000  C
  C358     1.0000 0.22730  0.54794  0.11070  Biso   1.000  C
  H323     1.0000 0.20260  0.52800  0.09340  Biso   1.000  H
  C359     1.0000 0.20070  0.56879  0.14380  Biso   1.000  C
  C360     1.0000 0.23960  0.59749  0.17140  Biso   1.000  C
  H324     1.0000 0.22330  0.61100  0.19530  Biso   1.000  H
  C361     1.0000 0.30240  0.60603  0.16340  Biso   1.000  C
  H325     1.0000 0.32750  0.62570  0.18130  Biso   1.000  H
  C362     1.0000 0.32890  0.58600  0.12930  Biso   1.000  C
  C363     1.0000 0.29030  0.55661  0.10320  Biso   1.000  C
  H326     1.0000 0.30730  0.54260  0.08030  Biso   1.000  H
  C364     1.0000 0.39310  0.59581  0.11716  Biso   1.000  C
  C365     1.0000 0.68900  0.90163  0.00440  Biso   1.000  C
  C366     1.0000 0.72460  0.91450  0.05750  Biso   1.000  C
  H327     1.0000 0.72010  0.93810  0.06530  Biso   1.000  H
  C367     1.0000 0.76720  0.89261  0.09940  Biso   1.000  C
  H328     1.0000 0.79150  0.90180  0.13500  Biso   1.000  H
  C368     1.0000 0.77420  0.85753  0.08930  Biso   1.000  C
  C369     1.0000 0.73860  0.84488  0.03560  Biso   1.000  C
  H329     1.0000 0.74320  0.82130  0.02760  Biso   1.000  H
  C370     1.0000 0.69650  0.86643  0.99360  Biso   1.000  C
  H330     1.0000 0.67290  0.85730  0.95790  Biso   1.000  H
  C371     1.0000 0.81790  0.83363  0.13392  Biso   1.000  C
  C372     1.0000 0.80450  0.71966  0.27660  Biso   1.000  C
  H331     1.0000 0.76910  0.71500  0.29170  Biso   1.000  H
  C373     1.0000 0.79960  0.74940  0.24390  Biso   1.000  C
  H332     1.0000 0.76150  0.76470  0.23790  Biso   1.000  H
  C374     1.0000 0.85130  0.75648  0.22003  Biso   1.000  C
  C375     1.0000 0.90650  0.73269  0.22809  Biso   1.000  C
  H333     1.0000 0.94050  0.73670  0.21120  Biso   1.000  H
  C376     1.0000 0.91120  0.70326  0.26100  Biso   1.000  C
  H334     1.0000 0.94830  0.68750  0.26580  Biso   1.000  H
  C377     1.0000 0.86140  0.69677  0.28710  Biso   1.000  C
  C378     1.0000 0.85050  0.78922  0.18924  Biso   1.000  C
  C379     1.0000 0.76710  0.00171  0.25210  Biso   1.000  C
  H335     1.0000 0.72380  0.99380  0.25340  Biso   1.000  H
  C380     1.0000 0.79630  0.03283  0.27970  Biso   1.000  C
  C381     1.0000 0.85870  0.04490  0.27510  Biso   1.000  C
  H336     1.0000 0.87780  0.06600  0.29210  Biso   1.000  H
  C382     1.0000 0.89390  0.02589  0.24550  Biso   1.000  C
  H337     1.0000 0.93600  0.03440  0.24250  Biso   1.000  H
  C383     1.0000 0.86620  0.99407  0.22023  Biso   1.000  C
  C384     1.0000 0.80200  0.98267  0.22300  Biso   1.000  C
  H338     1.0000 0.78200  0.96190  0.20500  Biso   1.000  H
  C385     1.0000 0.90660  0.97120  0.19493  Biso   1.000  C
  C386     1.0000 0.13560  0.95402  0.10980  Biso   1.000  C
  H339     1.0000 0.17780  0.96660  0.11980  Biso   1.000  H
  C387     1.0000 0.12460  0.92631  0.07170  Biso   1.000  C
  C388     1.0000 0.06170  0.90799  0.05870  Biso   1.000  C
  H340     1.0000 0.05370  0.88910  0.03380  Biso   1.000  H
  C389     1.0000 0.01050  0.91675  0.08153  Biso   1.000  C
  H341     1.0000 0.96820  0.90410  0.07140  Biso   1.000  H
  C390     1.0000 0.02160  0.94465  0.11987  Biso   1.000  C
  C391     1.0000 0.08430  0.96299  0.13280  Biso   1.000  C
  H342     1.0000 0.09240  0.98190  0.15770  Biso   1.000  H
  C392     1.0000 0.97190  0.95012  0.15019  Biso   1.000  C
  C393     1.0000 0.50740  0.87783  0.00500  Biso   1.000  C
  C394     1.0000 0.55790  0.86940  0.05710  Biso   1.000  C
  H343     1.0000 0.58180  0.88730  0.08120  Biso   1.000  H
  C395     1.0000 0.57290  0.83501  0.07350  Biso   1.000  C
  H344     1.0000 0.60700  0.83010  0.10840  Biso   1.000  H
  C396     1.0000 0.53770  0.80735  0.03885  Biso   1.000  C
  C397     1.0000 0.48800  0.81605  0.98680  Biso   1.000  C
  H345     1.0000 0.46380  0.79820  0.96280  Biso   1.000  H
  C398     1.0000 0.47370  0.85037  0.97010  Biso   1.000  C
  H346     1.0000 0.44080  0.85530  0.93470  Biso   1.000  H
  C399     1.0000 0.55250  0.77075  0.05657  Biso   1.000  C
  C400     1.0000 0.77180  0.64914  0.17240  Biso   1.000  C
  C401     1.0000 0.70800  0.64858  0.18340  Biso   1.000  C
  H347     1.0000 0.70100  0.63150  0.20750  Biso   1.000  H
  C402     1.0000 0.65530  0.67266  0.15940  Biso   1.000  C
  H348     1.0000 0.61300  0.67150  0.16700  Biso   1.000  H
  C403     1.0000 0.66440  0.69891  0.12386  Biso   1.000  C
  C404     1.0000 0.72940  0.69987  0.11430  Biso   1.000  C
  H349     1.0000 0.73740  0.71730  0.09120  Biso   1.000  H
  C405     1.0000 0.78140  0.67551  0.13840  Biso   1.000  C
  H350     1.0000 0.82420  0.67690  0.13150  Biso   1.000  H
  C406     1.0000 0.60760  0.72383  0.09516  Biso   1.000  C
  C407     1.0000 0.38960  0.84379  0.08520  Biso   1.000  C
  H351     1.0000 0.41790  0.83920  0.12230  Biso   1.000  H
  C408     1.0000 0.38300  0.87788  0.06530  Biso   1.000  C
  C409     1.0000 0.33650  0.88458  0.01190  Biso   1.000  C
  H352     1.0000 0.32790  0.90760  0.99930  Biso   1.000  H
  C410     1.0000 0.30260  0.85759  0.97730  Biso   1.000  C
  H353     1.0000 0.27260  0.86260  0.94090  Biso   1.000  H
  C411     1.0000 0.31220  0.82269  0.99533  Biso   1.000  C
  C412     1.0000 0.35440  0.81620  0.05040  Biso   1.000  C
  H354     1.0000 0.35950  0.79340  0.06440  Biso   1.000  H
  C413     1.0000 0.28290  0.79427  0.95511  Biso   1.000  C
  C414     1.0000 0.06770  0.73560  0.72390  Biso   1.000  C
  C415     1.0000 0.10820  0.71060  0.76080  Biso   1.000  C
  H355     1.0000 0.10370  0.68700  0.75040  Biso   1.000  H
  C416     1.0000 0.15510  0.72036  0.81270  Biso   1.000  C
  H356     1.0000 0.18160  0.70320  0.83710  Biso   1.000  H
  C417     1.0000 0.16350  0.75540  0.82935  Biso   1.000  C
  C418     1.0000 0.12270  0.78018  0.79160  Biso   1.000  C
  H357     1.0000 0.12740  0.80380  0.80160  Biso   1.000  H
  C419     1.0000 0.07520  0.77040  0.73960  Biso   1.000  C
  H358     1.0000 0.04830  0.78740  0.71510  Biso   1.000  H
  C420     1.0000 0.21820  0.76583  0.88229  Biso   1.000  C
  N149     1.0000 0.69750  0.53590  0.01690  Biso   1.000  N
  N150     1.0000 0.43450  0.91840  0.27910  Biso   1.000  N
  H359     1.0000 0.44990  0.92470  0.31390  Biso   1.000  H
  H360     1.0000 0.45910  0.92290  0.25780  Biso   1.000  H
  Cu41     1.0000 0.46079  0.37256  0.16848  Biso   1.000  Cu
  Cu42     1.0000 0.90625  0.24542  0.99988  Biso   1.000  Cu
  Cu43     1.0000 0.20450  0.28197  0.11776  Biso   1.000  Cu
  Cu44     1.0000 0.99325  0.17124  0.06788  Biso   1.000  Cu
  Cu45     1.0000 0.68354  0.29305  0.11707  Biso   1.000  Cu
  Cu46     1.0000 0.44796  0.52606  0.13453  Biso   1.000  Cu
  Cu47     1.0000 0.65058  0.33096  0.90803  Biso   1.000  Cu
  Cu48     1.0000 0.39083  0.40592  0.25336  Biso   1.000  Cu
  Br6      1.0000 0.86915  0.17906  0.98909  Biso   1.000  Br
  N151     1.0000 0.55186  0.35234  0.17023  Biso   1.000  N
  N152     1.0000 0.64075  0.32495  0.15353  Biso   1.000  N
  N153     1.0000 0.61401  0.36978  0.19855  Biso   1.000  N
  N154     1.0000 0.35380  0.22804  0.03770  Biso   1.000  N
  H361     1.0000 0.31490  0.23500  0.01280  Biso   1.000  H
  H362     1.0000 0.35880  0.20640  0.04790  Biso   1.000  H
  N155     1.0000 0.90821  0.12856  0.10727  Biso   1.000  N
  N156     1.0000 0.94139  0.07286  0.11046  Biso   1.000  N
  N157     1.0000 0.96869  0.12680  0.09208  Biso   1.000  N
  N158     1.0000 0.63450  0.06090  0.14900  Biso   1.000  N
  H363     1.0000 0.61060  0.04310  0.13160  Biso   1.000  H
  H364     1.0000 0.61810  0.07390  0.16970  Biso   1.000  H
  H365     1.0000 0.23240  0.04900  0.01450  Biso   1.000  H
  H366     1.0000 0.19590  0.01440  0.00840  Biso   1.000  H
  N159     1.0000 0.38556  0.33883  0.16422  Biso   1.000  N
  N160     1.0000 0.40608  0.31011  0.19995  Biso   1.000  N
  N161     1.0000 0.29336  0.30277  0.14819  Biso   1.000  N
  N162     1.0000 0.14730  0.42358  0.96120  Biso   1.000  N
  H367     1.0000 0.14360  0.44550  0.96770  Biso   1.000  H
  H368     1.0000 0.12540  0.41510  0.92820  Biso   1.000  H
  N163     1.0000 0.36790  0.16832  0.32210  Biso   1.000  N
  H369     1.0000 0.33650  0.16460  0.33770  Biso   1.000  H
  H370     1.0000 0.40340  0.15430  0.32830  Biso   1.000  H
  N164     1.0000 0.40785  0.43668  0.20175  Biso   1.000  N
  N165     1.0000 0.44927  0.42305  0.17247  Biso   1.000  N
  N166     1.0000 0.26150  0.55205  0.30950  Biso   1.000  N
  H371     1.0000 0.27920  0.57160  0.32520  Biso   1.000  H
  H372     1.0000 0.22240  0.54440  0.31220  Biso   1.000  H
  N167     1.0000 0.44615  0.48094  0.16287  Biso   1.000  N
  N168     1.0000 0.67340  0.41788  0.04630  Biso   1.000  N
  H373     1.0000 0.66480  0.40110  0.02210  Biso   1.000  H
  H374     1.0000 0.71260  0.42940  0.05460  Biso   1.000  H
  N169     1.0000 0.00425  0.24535  0.04567  Biso   1.000  N
  N170     1.0000 0.03992  0.21491  0.07043  Biso   1.000  N
  N171     1.0000 0.11842  0.25841  0.08763  Biso   1.000  N
  N172     1.0000 0.99130  0.41234  0.98870  Biso   1.000  N
  H375     1.0000 0.96000  0.41700  0.95640  Biso   1.000  H
  H376     1.0000 0.01260  0.42910  0.01070  Biso   1.000  H
  N173     1.0000 0.32370  0.12413  0.19540  Biso   1.000  N
  H377     1.0000 0.36290  0.12490  0.18850  Biso   1.000  H
  H378     1.0000 0.31680  0.10780  0.21660  Biso   1.000  H
  N174     1.0000 0.81737  0.26478  0.95330  Biso   1.000  N
  N175     1.0000 0.72004  0.29586  0.91167  Biso   1.000  N
  N176     1.0000 0.77587  0.24657  0.90620  Biso   1.000  N
  N177     1.0000 0.92230  0.40528  0.09950  Biso   1.000  N
  H379     1.0000 0.91730  0.42650  0.08700  Biso   1.000  H
  H380     1.0000 0.95120  0.40080  0.13280  Biso   1.000  H
  N178     1.0000 0.51850  0.22610  0.67130  Biso   1.000  N
  H381     1.0000 0.49340  0.24200  0.64910  Biso   1.000  H
  H382     1.0000 0.51350  0.20440  0.66120  Biso   1.000  H
  C421     1.0000 0.40880  0.25180  0.06130  Biso   1.000  C
  C422     1.0000 0.40140  0.28637  0.04530  Biso   1.000  C
  H383     1.0000 0.35990  0.29380  0.01740  Biso   1.000  H
  C423     1.0000 0.45490  0.31054  0.07000  Biso   1.000  C
  H384     1.0000 0.44890  0.33390  0.05880  Biso   1.000  H
  C424     1.0000 0.51710  0.29986  0.11131  Biso   1.000  C
  C425     1.0000 0.52520  0.26493  0.12610  Biso   1.000  C
  H385     1.0000 0.56750  0.25720  0.15260  Biso   1.000  H
  C426     1.0000 0.47140  0.24114  0.10200  Biso   1.000  C
  H386     1.0000 0.47720  0.21770  0.11330  Biso   1.000  H
  C427     1.0000 0.57000  0.32584  0.14383  Biso   1.000  C
  C428     1.0000 0.84370  0.38890  0.19960  Biso   1.000  C
  H387     1.0000 0.87150  0.39250  0.17710  Biso   1.000  H
  C429     1.0000 0.86780  0.40060  0.25660  Biso   1.000  C
  C430     1.0000 0.82930  0.39350  0.28840  Biso   1.000  C
  H388     1.0000 0.84550  0.40050  0.32600  Biso   1.000  H
  C431     1.0000 0.76510  0.37588  0.26700  Biso   1.000  C
  H389     1.0000 0.73910  0.37090  0.29050  Biso   1.000  H
  C432     1.0000 0.73930  0.36566  0.21101  Biso   1.000  C
  C433     1.0000 0.77930  0.37218  0.17780  Biso   1.000  C
  H390     1.0000 0.76290  0.36530  0.14010  Biso   1.000  H
  C434     1.0000 0.66640  0.35271  0.18833  Biso   1.000  C
  C435     1.0000 0.14740  0.05020  0.03600  Biso   1.000  C
  C436     1.0000 0.14880  0.08570  0.05130  Biso   1.000  C
  H391     1.0000 0.18550  0.10000  0.04920  Biso   1.000  H
  C437     1.0000 0.09680  0.09976  0.06930  Biso   1.000  C
  H392     1.0000 0.09770  0.12360  0.07780  Biso   1.000  H
  C438     1.0000 0.04320  0.07886  0.07490  Biso   1.000  C
  C439     1.0000 0.04120  0.04391  0.05860  Biso   1.000  C
  H393     1.0000 0.00470  0.02950  0.06070  Biso   1.000  H
  C440     1.0000 0.09240  0.03026  0.03940  Biso   1.000  C
  H394     1.0000 0.08950  0.00680  0.02840  Biso   1.000  H
  C441     1.0000 0.98680  0.09315  0.09372  Biso   1.000  C
  C442     1.0000 0.72730  0.04794  0.11070  Biso   1.000  C
  H395     1.0000 0.70260  0.02800  0.09340  Biso   1.000  H
  C443     1.0000 0.70070  0.06879  0.14380  Biso   1.000  C
  C444     1.0000 0.73960  0.09749  0.17140  Biso   1.000  C
  H396     1.0000 0.72330  0.11100  0.19530  Biso   1.000  H
  C445     1.0000 0.80240  0.10603  0.16340  Biso   1.000  C
  H397     1.0000 0.82750  0.12570  0.18130  Biso   1.000  H
  C446     1.0000 0.82890  0.08600  0.12930  Biso   1.000  C
  C447     1.0000 0.79030  0.05661  0.10320  Biso   1.000  C
  H398     1.0000 0.80730  0.04260  0.08030  Biso   1.000  H
  C448     1.0000 0.89310  0.09581  0.11716  Biso   1.000  C
  C449     1.0000 0.18900  0.40163  0.00440  Biso   1.000  C
  C450     1.0000 0.22460  0.41450  0.05750  Biso   1.000  C
  H399     1.0000 0.22010  0.43810  0.06530  Biso   1.000  H
  C451     1.0000 0.26720  0.39261  0.09940  Biso   1.000  C
  H400     1.0000 0.29150  0.40180  0.13500  Biso   1.000  H
  C452     1.0000 0.27420  0.35753  0.08930  Biso   1.000  C
  C453     1.0000 0.23860  0.34488  0.03560  Biso   1.000  C
  H401     1.0000 0.24320  0.32130  0.02760  Biso   1.000  H
  C454     1.0000 0.19650  0.36643  0.99360  Biso   1.000  C
  H402     1.0000 0.17290  0.35730  0.95790  Biso   1.000  H
  C455     1.0000 0.31790  0.33363  0.13392  Biso   1.000  C
  C456     1.0000 0.30450  0.21966  0.27660  Biso   1.000  C
  H403     1.0000 0.26910  0.21500  0.29170  Biso   1.000  H
  C457     1.0000 0.29960  0.24940  0.24390  Biso   1.000  C
  H404     1.0000 0.26150  0.26470  0.23790  Biso   1.000  H
  C458     1.0000 0.35130  0.25648  0.22003  Biso   1.000  C
  C459     1.0000 0.40650  0.23269  0.22809  Biso   1.000  C
  H405     1.0000 0.44050  0.23670  0.21120  Biso   1.000  H
  C460     1.0000 0.41120  0.20326  0.26100  Biso   1.000  C
  H406     1.0000 0.44830  0.18750  0.26580  Biso   1.000  H
  C461     1.0000 0.36140  0.19677  0.28710  Biso   1.000  C
  C462     1.0000 0.35050  0.28922  0.18924  Biso   1.000  C
  C463     1.0000 0.26710  0.50171  0.25210  Biso   1.000  C
  H407     1.0000 0.22380  0.49380  0.25340  Biso   1.000  H
  C464     1.0000 0.29630  0.53283  0.27970  Biso   1.000  C
  C465     1.0000 0.35870  0.54490  0.27510  Biso   1.000  C
  H408     1.0000 0.37780  0.56600  0.29210  Biso   1.000  H
  C466     1.0000 0.39390  0.52589  0.24550  Biso   1.000  C
  H409     1.0000 0.43600  0.53440  0.24250  Biso   1.000  H
  C467     1.0000 0.36620  0.49407  0.22023  Biso   1.000  C
  C468     1.0000 0.30200  0.48267  0.22300  Biso   1.000  C
  H410     1.0000 0.28200  0.46190  0.20500  Biso   1.000  H
  C469     1.0000 0.40660  0.47120  0.19493  Biso   1.000  C
  C470     1.0000 0.63560  0.45402  0.10980  Biso   1.000  C
  H411     1.0000 0.67780  0.46660  0.11980  Biso   1.000  H
  C471     1.0000 0.62460  0.42631  0.07170  Biso   1.000  C
  C472     1.0000 0.56170  0.40799  0.05870  Biso   1.000  C
  H412     1.0000 0.55370  0.38910  0.03380  Biso   1.000  H
  C473     1.0000 0.51050  0.41675  0.08153  Biso   1.000  C
  H413     1.0000 0.46820  0.40410  0.07140  Biso   1.000  H
  C474     1.0000 0.52160  0.44465  0.11987  Biso   1.000  C
  C475     1.0000 0.58430  0.46299  0.13280  Biso   1.000  C
  H414     1.0000 0.59240  0.48190  0.15770  Biso   1.000  H
  C476     1.0000 0.47190  0.45012  0.15019  Biso   1.000  C
  C477     1.0000 0.00740  0.37783  0.00500  Biso   1.000  C
  C478     1.0000 0.05790  0.36940  0.05710  Biso   1.000  C
  H415     1.0000 0.08180  0.38730  0.08120  Biso   1.000  H
  C479     1.0000 0.07290  0.33501  0.07350  Biso   1.000  C
  H416     1.0000 0.10700  0.33010  0.10840  Biso   1.000  H
  C480     1.0000 0.03770  0.30735  0.03885  Biso   1.000  C
  C481     1.0000 0.98800  0.31605  0.98680  Biso   1.000  C
  H417     1.0000 0.96380  0.29820  0.96280  Biso   1.000  H
  C482     1.0000 0.97370  0.35037  0.97010  Biso   1.000  C
  H418     1.0000 0.94080  0.35530  0.93470  Biso   1.000  H
  C483     1.0000 0.05250  0.27075  0.05657  Biso   1.000  C
  C484     1.0000 0.27180  0.14914  0.17240  Biso   1.000  C
  C485     1.0000 0.20800  0.14858  0.18340  Biso   1.000  C
  H419     1.0000 0.20100  0.13150  0.20750  Biso   1.000  H
  C486     1.0000 0.15530  0.17266  0.15940  Biso   1.000  C
  H420     1.0000 0.11300  0.17150  0.16700  Biso   1.000  H
  C487     1.0000 0.16440  0.19891  0.12386  Biso   1.000  C
  C488     1.0000 0.22940  0.19987  0.11430  Biso   1.000  C
  H421     1.0000 0.23740  0.21730  0.09120  Biso   1.000  H
  C489     1.0000 0.28140  0.17551  0.13840  Biso   1.000  C
  H422     1.0000 0.32420  0.17690  0.13150  Biso   1.000  H
  C490     1.0000 0.10760  0.22383  0.09516  Biso   1.000  C
  C491     1.0000 0.88960  0.34379  0.08520  Biso   1.000  C
  H423     1.0000 0.91790  0.33920  0.12230  Biso   1.000  H
  C492     1.0000 0.88300  0.37788  0.06530  Biso   1.000  C
  C493     1.0000 0.83650  0.38458  0.01190  Biso   1.000  C
  H424     1.0000 0.82790  0.40760  0.99930  Biso   1.000  H
  C494     1.0000 0.80260  0.35759  0.97730  Biso   1.000  C
  H425     1.0000 0.77260  0.36260  0.94090  Biso   1.000  H
  C495     1.0000 0.81220  0.32269  0.99533  Biso   1.000  C
  C496     1.0000 0.85440  0.31620  0.05040  Biso   1.000  C
  H426     1.0000 0.85950  0.29340  0.06440  Biso   1.000  H
  C497     1.0000 0.78290  0.29427  0.95511  Biso   1.000  C
  C498     1.0000 0.56770  0.23560  0.72390  Biso   1.000  C
  C499     1.0000 0.60820  0.21060  0.76080  Biso   1.000  C
  H427     1.0000 0.60370  0.18700  0.75040  Biso   1.000  H
  C500     1.0000 0.65510  0.22036  0.81270  Biso   1.000  C
  H428     1.0000 0.68160  0.20320  0.83710  Biso   1.000  H
  C501     1.0000 0.66350  0.25540  0.82935  Biso   1.000  C
  C502     1.0000 0.62270  0.28018  0.79160  Biso   1.000  C
  H429     1.0000 0.62740  0.30380  0.80160  Biso   1.000  H
  C503     1.0000 0.57520  0.27040  0.73960  Biso   1.000  C
  H430     1.0000 0.54830  0.28740  0.71510  Biso   1.000  H
  C504     1.0000 0.71820  0.26583  0.88229  Biso   1.000  C
  N179     1.0000 0.19750  0.03590  0.01690  Biso   1.000  N
  N180     1.0000 0.93450  0.41840  0.27910  Biso   1.000  N
  H431     1.0000 0.94990  0.42470  0.31390  Biso   1.000  H
  H432     1.0000 0.95910  0.42290  0.25780  Biso   1.000  H
  Cu49     1.0000 0.03921  0.87256  0.33152  Biso   1.000  Cu
  Cu50     1.0000 0.59375  0.74542  0.50012  Biso   1.000  Cu
  Cu51     1.0000 0.29550  0.78197  0.38224  Biso   1.000  Cu
  Cu52     1.0000 0.50675  0.67124  0.43212  Biso   1.000  Cu
  Cu53     1.0000 0.81646  0.79305  0.38293  Biso   1.000  Cu
  Cu54     1.0000 0.05204  0.02606  0.36547  Biso   1.000  Cu
  Cu55     1.0000 0.84942  0.83096  0.59197  Biso   1.000  Cu
  Cu56     1.0000 0.10917  0.90592  0.24664  Biso   1.000  Cu
  Br7      1.0000 0.63085  0.67906  0.51091  Biso   1.000  Br
  N181     1.0000 0.94814  0.85234  0.32977  Biso   1.000  N
  N182     1.0000 0.85925  0.82495  0.34647  Biso   1.000  N
  N183     1.0000 0.88599  0.86978  0.30145  Biso   1.000  N
  N184     1.0000 0.14620  0.72804  0.46230  Biso   1.000  N
  H433     1.0000 0.18510  0.73500  0.48720  Biso   1.000  H
  H434     1.0000 0.14120  0.70640  0.45210  Biso   1.000  H
  N185     1.0000 0.59179  0.62856  0.39273  Biso   1.000  N
  N186     1.0000 0.55861  0.57286  0.38954  Biso   1.000  N
  N187     1.0000 0.53131  0.62680  0.40792  Biso   1.000  N
  N188     1.0000 0.86550  0.56090  0.35100  Biso   1.000  N
  H435     1.0000 0.88940  0.54310  0.36840  Biso   1.000  H
  H436     1.0000 0.88190  0.57390  0.33030  Biso   1.000  H
  H437     1.0000 0.26760  0.54900  0.48550  Biso   1.000  H
  H438     1.0000 0.30410  0.51440  0.49160  Biso   1.000  H
  N189     1.0000 0.11444  0.83883  0.33578  Biso   1.000  N
  N190     1.0000 0.09392  0.81011  0.30005  Biso   1.000  N
  N191     1.0000 0.20664  0.80277  0.35181  Biso   1.000  N
  N192     1.0000 0.35270  0.92358  0.53880  Biso   1.000  N
  H439     1.0000 0.35640  0.94550  0.53230  Biso   1.000  H
  H440     1.0000 0.37460  0.91510  0.57180  Biso   1.000  H
  N193     1.0000 0.13210  0.66832  0.17790  Biso   1.000  N
  H441     1.0000 0.16350  0.66460  0.16230  Biso   1.000  H
  H442     1.0000 0.09660  0.65430  0.17170  Biso   1.000  H
  N194     1.0000 0.09215  0.93668  0.29825  Biso   1.000  N
  N195     1.0000 0.05073  0.92305  0.32753  Biso   1.000  N
  N196     1.0000 0.23850  0.05205  0.19050  Biso   1.000  N
  H443     1.0000 0.22080  0.07160  0.17480  Biso   1.000  H
  H444     1.0000 0.27760  0.04440  0.18780  Biso   1.000  H
  N197     1.0000 0.05385  0.98094  0.33713  Biso   1.000  N
  N198     1.0000 0.82660  0.91788  0.45370  Biso   1.000  N
  H445     1.0000 0.83520  0.90110  0.47790  Biso   1.000  H
  H446     1.0000 0.78740  0.92940  0.44540  Biso   1.000  H
  N199     1.0000 0.49575  0.74535  0.45433  Biso   1.000  N
  N200     1.0000 0.46008  0.71491  0.42957  Biso   1.000  N
  N201     1.0000 0.38158  0.75841  0.41237  Biso   1.000  N
  N202     1.0000 0.50870  0.91234  0.51130  Biso   1.000  N
  H447     1.0000 0.54000  0.91700  0.54360  Biso   1.000  H
  H448     1.0000 0.48740  0.92910  0.48930  Biso   1.000  H
  N203     1.0000 0.17630  0.62413  0.30460  Biso   1.000  N
  H449     1.0000 0.13710  0.62490  0.31150  Biso   1.000  H
  H450     1.0000 0.18320  0.60780  0.28340  Biso   1.000  H
  N204     1.0000 0.68263  0.76478  0.54670  Biso   1.000  N
  N205     1.0000 0.77996  0.79586  0.58833  Biso   1.000  N
  N206     1.0000 0.72413  0.74657  0.59380  Biso   1.000  N
  N207     1.0000 0.57770  0.90528  0.40050  Biso   1.000  N
  H451     1.0000 0.58270  0.92650  0.41300  Biso   1.000  H
  H452     1.0000 0.54880  0.90080  0.36720  Biso   1.000  H
  N208     1.0000 0.98150  0.72610  0.82870  Biso   1.000  N
  H453     1.0000 0.00660  0.74200  0.85090  Biso   1.000  H
  H454     1.0000 0.98650  0.70440  0.83880  Biso   1.000  H
  C505     1.0000 0.09120  0.75180  0.43870  Biso   1.000  C
  C506     1.0000 0.09860  0.78637  0.45470  Biso   1.000  C
  H455     1.0000 0.14010  0.79380  0.48260  Biso   1.000  H
  C507     1.0000 0.04510  0.81054  0.43000  Biso   1.000  C
  H456     1.0000 0.05110  0.83390  0.44120  Biso   1.000  H
  C508     1.0000 0.98290  0.79986  0.38869  Biso   1.000  C
  C509     1.0000 0.97480  0.76493  0.37390  Biso   1.000  C
  H457     1.0000 0.93250  0.75720  0.34740  Biso   1.000  H
  C510     1.0000 0.02860  0.74114  0.39800  Biso   1.000  C
  H458     1.0000 0.02280  0.71770  0.38670  Biso   1.000  H
  C511     1.0000 0.93000  0.82584  0.35617  Biso   1.000  C
  C512     1.0000 0.65630  0.88890  0.30040  Biso   1.000  C
  H459     1.0000 0.62850  0.89250  0.32290  Biso   1.000  H
  C513     1.0000 0.63220  0.90060  0.24340  Biso   1.000  C
  C514     1.0000 0.67070  0.89350  0.21160  Biso   1.000  C
  H460     1.0000 0.65450  0.90050  0.17400  Biso   1.000  H
  C515     1.0000 0.73490  0.87588  0.23300  Biso   1.000  C
  H461     1.0000 0.76090  0.87090  0.20950  Biso   1.000  H
  C516     1.0000 0.76070  0.86566  0.28899  Biso   1.000  C
  C517     1.0000 0.72070  0.87218  0.32220  Biso   1.000  C
  H462     1.0000 0.73710  0.86530  0.35990  Biso   1.000  H
  C518     1.0000 0.83360  0.85271  0.31167  Biso   1.000  C
  C519     1.0000 0.35260  0.55020  0.46400  Biso   1.000  C
  C520     1.0000 0.35120  0.58570  0.44870  Biso   1.000  C
  H463     1.0000 0.31450  0.60000  0.45080  Biso   1.000  H
  C521     1.0000 0.40320  0.59976  0.43070  Biso   1.000  C
  H464     1.0000 0.40230  0.62360  0.42220  Biso   1.000  H
  C522     1.0000 0.45680  0.57886  0.42510  Biso   1.000  C
  C523     1.0000 0.45880  0.54391  0.44140  Biso   1.000  C
  H465     1.0000 0.49530  0.52950  0.43930  Biso   1.000  H
  C524     1.0000 0.40760  0.53026  0.46060  Biso   1.000  C
  H466     1.0000 0.41050  0.50680  0.47160  Biso   1.000  H
  C525     1.0000 0.51320  0.59315  0.40628  Biso   1.000  C
  C526     1.0000 0.77270  0.54794  0.38930  Biso   1.000  C
  H467     1.0000 0.79740  0.52800  0.40660  Biso   1.000  H
  C527     1.0000 0.79930  0.56879  0.35620  Biso   1.000  C
  C528     1.0000 0.76040  0.59749  0.32860  Biso   1.000  C
  H468     1.0000 0.77670  0.61100  0.30470  Biso   1.000  H
  C529     1.0000 0.69760  0.60603  0.33660  Biso   1.000  C
  H469     1.0000 0.67250  0.62570  0.31870  Biso   1.000  H
  C530     1.0000 0.67110  0.58600  0.37070  Biso   1.000  C
  C531     1.0000 0.70970  0.55661  0.39680  Biso   1.000  C
  H470     1.0000 0.69270  0.54260  0.41970  Biso   1.000  H
  C532     1.0000 0.60690  0.59581  0.38284  Biso   1.000  C
  C533     1.0000 0.31100  0.90163  0.49560  Biso   1.000  C
  C534     1.0000 0.27540  0.91450  0.44250  Biso   1.000  C
  H471     1.0000 0.27990  0.93810  0.43470  Biso   1.000  H
  C535     1.0000 0.23280  0.89261  0.40060  Biso   1.000  C
  H472     1.0000 0.20850  0.90180  0.36500  Biso   1.000  H
  C536     1.0000 0.22580  0.85753  0.41070  Biso   1.000  C
  C537     1.0000 0.26140  0.84488  0.46440  Biso   1.000  C
  H473     1.0000 0.25680  0.82130  0.47240  Biso   1.000  H
  C538     1.0000 0.30350  0.86643  0.50640  Biso   1.000  C
  H474     1.0000 0.32710  0.85730  0.54210  Biso   1.000  H
  C539     1.0000 0.18210  0.83363  0.36608  Biso   1.000  C
  C540     1.0000 0.19550  0.71966  0.22340  Biso   1.000  C
  H475     1.0000 0.23090  0.71500  0.20830  Biso   1.000  H
  C541     1.0000 0.20040  0.74940  0.25610  Biso   1.000  C
  H476     1.0000 0.23850  0.76470  0.26210  Biso   1.000  H
  C542     1.0000 0.14870  0.75648  0.27997  Biso   1.000  C
  C543     1.0000 0.09350  0.73269  0.27191  Biso   1.000  C
  H477     1.0000 0.05950  0.73670  0.28880  Biso   1.000  H
  C544     1.0000 0.08880  0.70326  0.23900  Biso   1.000  C
  H478     1.0000 0.05170  0.68750  0.23420  Biso   1.000  H
  C545     1.0000 0.13860  0.69677  0.21290  Biso   1.000  C
  C546     1.0000 0.14950  0.78922  0.31076  Biso   1.000  C
  C547     1.0000 0.23290  0.00171  0.24790  Biso   1.000  C
  H479     1.0000 0.27620  0.99380  0.24660  Biso   1.000  H
  C548     1.0000 0.20370  0.03283  0.22030  Biso   1.000  C
  C549     1.0000 0.14130  0.04490  0.22490  Biso   1.000  C
  H480     1.0000 0.12220  0.06600  0.20790  Biso   1.000  H
  C550     1.0000 0.10610  0.02589  0.25450  Biso   1.000  C
  H481     1.0000 0.06400  0.03440  0.25750  Biso   1.000  H
  C551     1.0000 0.13380  0.99407  0.27977  Biso   1.000  C
  C552     1.0000 0.19800  0.98267  0.27700  Biso   1.000  C
  H482     1.0000 0.21800  0.96190  0.29500  Biso   1.000  H
  C553     1.0000 0.09340  0.97120  0.30507  Biso   1.000  C
  C554     1.0000 0.86440  0.95402  0.39020  Biso   1.000  C
  H483     1.0000 0.82220  0.96660  0.38020  Biso   1.000  H
  C555     1.0000 0.87540  0.92631  0.42830  Biso   1.000  C
  C556     1.0000 0.93830  0.90799  0.44130  Biso   1.000  C
  H484     1.0000 0.94630  0.88910  0.46620  Biso   1.000  H
  C557     1.0000 0.98950  0.91675  0.41847  Biso   1.000  C
  H485     1.0000 0.03180  0.90410  0.42860  Biso   1.000  H
  C558     1.0000 0.97840  0.94465  0.38013  Biso   1.000  C
  C559     1.0000 0.91570  0.96299  0.36720  Biso   1.000  C
  H486     1.0000 0.90760  0.98190  0.34230  Biso   1.000  H
  C560     1.0000 0.02810  0.95012  0.34981  Biso   1.000  C
  C561     1.0000 0.49260  0.87783  0.49500  Biso   1.000  C
  C562     1.0000 0.44210  0.86940  0.44290  Biso   1.000  C
  H487     1.0000 0.41820  0.88730  0.41880  Biso   1.000  H
  C563     1.0000 0.42710  0.83501  0.42650  Biso   1.000  C
  H488     1.0000 0.39300  0.83010  0.39160  Biso   1.000  H
  C564     1.0000 0.46230  0.80735  0.46115  Biso   1.000  C
  C565     1.0000 0.51200  0.81605  0.51320  Biso   1.000  C
  H489     1.0000 0.53620  0.79820  0.53720  Biso   1.000  H
  C566     1.0000 0.52630  0.85037  0.52990  Biso   1.000  C
  H490     1.0000 0.55920  0.85530  0.56530  Biso   1.000  H
  C567     1.0000 0.44750  0.77075  0.44343  Biso   1.000  C
  C568     1.0000 0.22820  0.64914  0.32760  Biso   1.000  C
  C569     1.0000 0.29200  0.64858  0.31660  Biso   1.000  C
  H491     1.0000 0.29900  0.63150  0.29250  Biso   1.000  H
  C570     1.0000 0.34470  0.67266  0.34060  Biso   1.000  C
  H492     1.0000 0.38700  0.67150  0.33300  Biso   1.000  H
  C571     1.0000 0.33560  0.69891  0.37614  Biso   1.000  C
  C572     1.0000 0.27060  0.69987  0.38570  Biso   1.000  C
  H493     1.0000 0.26260  0.71730  0.40880  Biso   1.000  H
  C573     1.0000 0.21860  0.67551  0.36160  Biso   1.000  C
  H494     1.0000 0.17580  0.67690  0.36850  Biso   1.000  H
  C574     1.0000 0.39240  0.72383  0.40484  Biso   1.000  C
  C575     1.0000 0.61040  0.84379  0.41480  Biso   1.000  C
  H495     1.0000 0.58210  0.83920  0.37770  Biso   1.000  H
  C576     1.0000 0.61700  0.87788  0.43470  Biso   1.000  C
  C577     1.0000 0.66350  0.88458  0.48810  Biso   1.000  C
  H496     1.0000 0.67210  0.90760  0.50070  Biso   1.000  H
  C578     1.0000 0.69740  0.85759  0.52270  Biso   1.000  C
  H497     1.0000 0.72740  0.86260  0.55910  Biso   1.000  H
  C579     1.0000 0.68780  0.82269  0.50467  Biso   1.000  C
  C580     1.0000 0.64560  0.81620  0.44960  Biso   1.000  C
  H498     1.0000 0.64050  0.79340  0.43560  Biso   1.000  H
  C581     1.0000 0.71710  0.79427  0.54489  Biso   1.000  C
  C582     1.0000 0.93230  0.73560  0.77610  Biso   1.000  C
  C583     1.0000 0.89180  0.71060  0.73920  Biso   1.000  C
  H499     1.0000 0.89630  0.68700  0.74960  Biso   1.000  H
  C584     1.0000 0.84490  0.72036  0.68730  Biso   1.000  C
  H500     1.0000 0.81840  0.70320  0.66290  Biso   1.000  H
  C585     1.0000 0.83650  0.75540  0.67065  Biso   1.000  C
  C586     1.0000 0.87730  0.78018  0.70840  Biso   1.000  C
  H501     1.0000 0.87260  0.80380  0.69840  Biso   1.000  H
  C587     1.0000 0.92480  0.77040  0.76040  Biso   1.000  C
  H502     1.0000 0.95170  0.78740  0.78490  Biso   1.000  H
  C588     1.0000 0.78180  0.76583  0.61771  Biso   1.000  C
  N209     1.0000 0.30250  0.53590  0.48310  Biso   1.000  N
  N210     1.0000 0.56550  0.91840  0.22090  Biso   1.000  N
  H503     1.0000 0.55010  0.92470  0.18610  Biso   1.000  H
  H504     1.0000 0.54090  0.92290  0.24220  Biso   1.000  H
  Cu57     1.0000 0.53921  0.37256  0.33152  Biso   1.000  Cu
  Cu58     1.0000 0.09375  0.24542  0.50012  Biso   1.000  Cu
  Cu59     1.0000 0.79550  0.28197  0.38224  Biso   1.000  Cu
  Cu60     1.0000 0.00675  0.17124  0.43212  Biso   1.000  Cu
  Cu61     1.0000 0.31646  0.29305  0.38293  Biso   1.000  Cu
  Cu62     1.0000 0.55204  0.52606  0.36547  Biso   1.000  Cu
  Cu63     1.0000 0.34942  0.33096  0.59197  Biso   1.000  Cu
  Cu64     1.0000 0.60917  0.40592  0.24664  Biso   1.000  Cu
  Br8      1.0000 0.13085  0.17906  0.51091  Biso   1.000  Br
  N211     1.0000 0.44814  0.35234  0.32977  Biso   1.000  N
  N212     1.0000 0.35925  0.32495  0.34647  Biso   1.000  N
  N213     1.0000 0.38599  0.36978  0.30145  Biso   1.000  N
  N214     1.0000 0.64620  0.22804  0.46230  Biso   1.000  N
  H505     1.0000 0.68510  0.23500  0.48720  Biso   1.000  H
  H506     1.0000 0.64120  0.20640  0.45210  Biso   1.000  H
  N215     1.0000 0.09179  0.12856  0.39273  Biso   1.000  N
  N216     1.0000 0.05861  0.07286  0.38954  Biso   1.000  N
  N217     1.0000 0.03131  0.12680  0.40792  Biso   1.000  N
  N218     1.0000 0.36550  0.06090  0.35100  Biso   1.000  N
  H507     1.0000 0.38940  0.04310  0.36840  Biso   1.000  H
  H508     1.0000 0.38190  0.07390  0.33030  Biso   1.000  H
  H509     1.0000 0.76760  0.04900  0.48550  Biso   1.000  H
  H510     1.0000 0.80410  0.01440  0.49160  Biso   1.000  H
  N219     1.0000 0.61444  0.33883  0.33578  Biso   1.000  N
  N220     1.0000 0.59392  0.31011  0.30005  Biso   1.000  N
  N221     1.0000 0.70664  0.30277  0.35181  Biso   1.000  N
  N222     1.0000 0.85270  0.42358  0.53880  Biso   1.000  N
  H511     1.0000 0.85640  0.44550  0.53230  Biso   1.000  H
  H512     1.0000 0.87460  0.41510  0.57180  Biso   1.000  H
  N223     1.0000 0.63210  0.16832  0.17790  Biso   1.000  N
  H513     1.0000 0.66350  0.16460  0.16230  Biso   1.000  H
  H514     1.0000 0.59660  0.15430  0.17170  Biso   1.000  H
  N224     1.0000 0.59215  0.43668  0.29825  Biso   1.000  N
  N225     1.0000 0.55073  0.42305  0.32753  Biso   1.000  N
  N226     1.0000 0.73850  0.55205  0.19050  Biso   1.000  N
  H515     1.0000 0.72080  0.57160  0.17480  Biso   1.000  H
  H516     1.0000 0.77760  0.54440  0.18780  Biso   1.000  H
  N227     1.0000 0.55385  0.48094  0.33713  Biso   1.000  N
  N228     1.0000 0.32660  0.41788  0.45370  Biso   1.000  N
  H517     1.0000 0.33520  0.40110  0.47790  Biso   1.000  H
  H518     1.0000 0.28740  0.42940  0.44540  Biso   1.000  H
  N229     1.0000 0.99575  0.24535  0.45433  Biso   1.000  N
  N230     1.0000 0.96008  0.21491  0.42957  Biso   1.000  N
  N231     1.0000 0.88158  0.25841  0.41237  Biso   1.000  N
  N232     1.0000 0.00870  0.41234  0.51130  Biso   1.000  N
  H519     1.0000 0.04000  0.41700  0.54360  Biso   1.000  H
  H520     1.0000 0.98740  0.42910  0.48930  Biso   1.000  H
  N233     1.0000 0.67630  0.12413  0.30460  Biso   1.000  N
  H521     1.0000 0.63710  0.12490  0.31150  Biso   1.000  H
  H522     1.0000 0.68320  0.10780  0.28340  Biso   1.000  H
  N234     1.0000 0.18263  0.26478  0.54670  Biso   1.000  N
  N235     1.0000 0.27996  0.29586  0.58833  Biso   1.000  N
  N236     1.0000 0.22413  0.24657  0.59380  Biso   1.000  N
  N237     1.0000 0.07770  0.40528  0.40050  Biso   1.000  N
  H523     1.0000 0.08270  0.42650  0.41300  Biso   1.000  H
  H524     1.0000 0.04880  0.40080  0.36720  Biso   1.000  H
  N238     1.0000 0.48150  0.22610  0.82870  Biso   1.000  N
  H525     1.0000 0.50660  0.24200  0.85090  Biso   1.000  H
  H526     1.0000 0.48650  0.20440  0.83880  Biso   1.000  H
  C589     1.0000 0.59120  0.25180  0.43870  Biso   1.000  C
  C590     1.0000 0.59860  0.28637  0.45470  Biso   1.000  C
  H527     1.0000 0.64010  0.29380  0.48260  Biso   1.000  H
  C591     1.0000 0.54510  0.31054  0.43000  Biso   1.000  C
  H528     1.0000 0.55110  0.33390  0.44120  Biso   1.000  H
  C592     1.0000 0.48290  0.29986  0.38869  Biso   1.000  C
  C593     1.0000 0.47480  0.26493  0.37390  Biso   1.000  C
  H529     1.0000 0.43250  0.25720  0.34740  Biso   1.000  H
  C594     1.0000 0.52860  0.24114  0.39800  Biso   1.000  C
  H530     1.0000 0.52280  0.21770  0.38670  Biso   1.000  H
  C595     1.0000 0.43000  0.32584  0.35617  Biso   1.000  C
  C596     1.0000 0.15630  0.38890  0.30040  Biso   1.000  C
  H531     1.0000 0.12850  0.39250  0.32290  Biso   1.000  H
  C597     1.0000 0.13220  0.40060  0.24340  Biso   1.000  C
  C598     1.0000 0.17070  0.39350  0.21160  Biso   1.000  C
  H532     1.0000 0.15450  0.40050  0.17400  Biso   1.000  H
  C599     1.0000 0.23490  0.37588  0.23300  Biso   1.000  C
  H533     1.0000 0.26090  0.37090  0.20950  Biso   1.000  H
  C600     1.0000 0.26070  0.36566  0.28899  Biso   1.000  C
  C601     1.0000 0.22070  0.37218  0.32220  Biso   1.000  C
  H534     1.0000 0.23710  0.36530  0.35990  Biso   1.000  H
  C602     1.0000 0.33360  0.35271  0.31167  Biso   1.000  C
  C603     1.0000 0.85260  0.05020  0.46400  Biso   1.000  C
  C604     1.0000 0.85120  0.08570  0.44870  Biso   1.000  C
  H535     1.0000 0.81450  0.10000  0.45080  Biso   1.000  H
  C605     1.0000 0.90320  0.09976  0.43070  Biso   1.000  C
  H536     1.0000 0.90230  0.12360  0.42220  Biso   1.000  H
  C606     1.0000 0.95680  0.07886  0.42510  Biso   1.000  C
  C607     1.0000 0.95880  0.04391  0.44140  Biso   1.000  C
  H537     1.0000 0.99530  0.02950  0.43930  Biso   1.000  H
  C608     1.0000 0.90760  0.03026  0.46060  Biso   1.000  C
  H538     1.0000 0.91050  0.00680  0.47160  Biso   1.000  H
  C609     1.0000 0.01320  0.09315  0.40628  Biso   1.000  C
  C610     1.0000 0.27270  0.04794  0.38930  Biso   1.000  C
  H539     1.0000 0.29740  0.02800  0.40660  Biso   1.000  H
  C611     1.0000 0.29930  0.06879  0.35620  Biso   1.000  C
  C612     1.0000 0.26040  0.09749  0.32860  Biso   1.000  C
  H540     1.0000 0.27670  0.11100  0.30470  Biso   1.000  H
  C613     1.0000 0.19760  0.10603  0.33660  Biso   1.000  C
  H541     1.0000 0.17250  0.12570  0.31870  Biso   1.000  H
  C614     1.0000 0.17110  0.08600  0.37070  Biso   1.000  C
  C615     1.0000 0.20970  0.05661  0.39680  Biso   1.000  C
  H542     1.0000 0.19270  0.04260  0.41970  Biso   1.000  H
  C616     1.0000 0.10690  0.09581  0.38284  Biso   1.000  C
  C617     1.0000 0.81100  0.40163  0.49560  Biso   1.000  C
  C618     1.0000 0.77540  0.41450  0.44250  Biso   1.000  C
  H543     1.0000 0.77990  0.43810  0.43470  Biso   1.000  H
  C619     1.0000 0.73280  0.39261  0.40060  Biso   1.000  C
  H544     1.0000 0.70850  0.40180  0.36500  Biso   1.000  H
  C620     1.0000 0.72580  0.35753  0.41070  Biso   1.000  C
  C621     1.0000 0.76140  0.34488  0.46440  Biso   1.000  C
  H545     1.0000 0.75680  0.32130  0.47240  Biso   1.000  H
  C622     1.0000 0.80350  0.36643  0.50640  Biso   1.000  C
  H546     1.0000 0.82710  0.35730  0.54210  Biso   1.000  H
  C623     1.0000 0.68210  0.33363  0.36608  Biso   1.000  C
  C624     1.0000 0.69550  0.21966  0.22340  Biso   1.000  C
  H547     1.0000 0.73090  0.21500  0.20830  Biso   1.000  H
  C625     1.0000 0.70040  0.24940  0.25610  Biso   1.000  C
  H548     1.0000 0.73850  0.26470  0.26210  Biso   1.000  H
  C626     1.0000 0.64870  0.25648  0.27997  Biso   1.000  C
  C627     1.0000 0.59350  0.23269  0.27191  Biso   1.000  C
  H549     1.0000 0.55950  0.23670  0.28880  Biso   1.000  H
  C628     1.0000 0.58880  0.20326  0.23900  Biso   1.000  C
  H550     1.0000 0.55170  0.18750  0.23420  Biso   1.000  H
  C629     1.0000 0.63860  0.19677  0.21290  Biso   1.000  C
  C630     1.0000 0.64950  0.28922  0.31076  Biso   1.000  C
  C631     1.0000 0.73290  0.50171  0.24790  Biso   1.000  C
  H551     1.0000 0.77620  0.49380  0.24660  Biso   1.000  H
  C632     1.0000 0.70370  0.53283  0.22030  Biso   1.000  C
  C633     1.0000 0.64130  0.54490  0.22490  Biso   1.000  C
  H552     1.0000 0.62220  0.56600  0.20790  Biso   1.000  H
  C634     1.0000 0.60610  0.52589  0.25450  Biso   1.000  C
  H553     1.0000 0.56400  0.53440  0.25750  Biso   1.000  H
  C635     1.0000 0.63380  0.49407  0.27977  Biso   1.000  C
  C636     1.0000 0.69800  0.48267  0.27700  Biso   1.000  C
  H554     1.0000 0.71800  0.46190  0.29500  Biso   1.000  H
  C637     1.0000 0.59340  0.47120  0.30507  Biso   1.000  C
  C638     1.0000 0.36440  0.45402  0.39020  Biso   1.000  C
  H555     1.0000 0.32220  0.46660  0.38020  Biso   1.000  H
  C639     1.0000 0.37540  0.42631  0.42830  Biso   1.000  C
  C640     1.0000 0.43830  0.40799  0.44130  Biso   1.000  C
  H556     1.0000 0.44630  0.38910  0.46620  Biso   1.000  H
  C641     1.0000 0.48950  0.41675  0.41847  Biso   1.000  C
  H557     1.0000 0.53180  0.40410  0.42860  Biso   1.000  H
  C642     1.0000 0.47840  0.44465  0.38013  Biso   1.000  C
  C643     1.0000 0.41570  0.46299  0.36720  Biso   1.000  C
  H558     1.0000 0.40760  0.48190  0.34230  Biso   1.000  H
  C644     1.0000 0.52810  0.45012  0.34981  Biso   1.000  C
  C645     1.0000 0.99260  0.37783  0.49500  Biso   1.000  C
  C646     1.0000 0.94210  0.36940  0.44290  Biso   1.000  C
  H559     1.0000 0.91820  0.38730  0.41880  Biso   1.000  H
  C647     1.0000 0.92710  0.33501  0.42650  Biso   1.000  C
  H560     1.0000 0.89300  0.33010  0.39160  Biso   1.000  H
  C648     1.0000 0.96230  0.30735  0.46115  Biso   1.000  C
  C649     1.0000 0.01200  0.31605  0.51320  Biso   1.000  C
  H561     1.0000 0.03620  0.29820  0.53720  Biso   1.000  H
  C650     1.0000 0.02630  0.35037  0.52990  Biso   1.000  C
  H562     1.0000 0.05920  0.35530  0.56530  Biso   1.000  H
  C651     1.0000 0.94750  0.27075  0.44343  Biso   1.000  C
  C652     1.0000 0.72820  0.14914  0.32760  Biso   1.000  C
  C653     1.0000 0.79200  0.14858  0.31660  Biso   1.000  C
  H563     1.0000 0.79900  0.13150  0.29250  Biso   1.000  H
  C654     1.0000 0.84470  0.17266  0.34060  Biso   1.000  C
  H564     1.0000 0.88700  0.17150  0.33300  Biso   1.000  H
  C655     1.0000 0.83560  0.19891  0.37614  Biso   1.000  C
  C656     1.0000 0.77060  0.19987  0.38570  Biso   1.000  C
  H565     1.0000 0.76260  0.21730  0.40880  Biso   1.000  H
  C657     1.0000 0.71860  0.17551  0.36160  Biso   1.000  C
  H566     1.0000 0.67580  0.17690  0.36850  Biso   1.000  H
  C658     1.0000 0.89240  0.22383  0.40484  Biso   1.000  C
  C659     1.0000 0.11040  0.34379  0.41480  Biso   1.000  C
  H567     1.0000 0.08210  0.33920  0.37770  Biso   1.000  H
  C660     1.0000 0.11700  0.37788  0.43470  Biso   1.000  C
  C661     1.0000 0.16350  0.38458  0.48810  Biso   1.000  C
  H568     1.0000 0.17210  0.40760  0.50070  Biso   1.000  H
  C662     1.0000 0.19740  0.35759  0.52270  Biso   1.000  C
  H569     1.0000 0.22740  0.36260  0.55910  Biso   1.000  H
  C663     1.0000 0.18780  0.32269  0.50467  Biso   1.000  C
  C664     1.0000 0.14560  0.31620  0.44960  Biso   1.000  C
  H570     1.0000 0.14050  0.29340  0.43560  Biso   1.000  H
  C665     1.0000 0.21710  0.29427  0.54489  Biso   1.000  C
  C666     1.0000 0.43230  0.23560  0.77610  Biso   1.000  C
  C667     1.0000 0.39180  0.21060  0.73920  Biso   1.000  C
  H571     1.0000 0.39630  0.18700  0.74960  Biso   1.000  H
  C668     1.0000 0.34490  0.22036  0.68730  Biso   1.000  C
  H572     1.0000 0.31840  0.20320  0.66290  Biso   1.000  H
  C669     1.0000 0.33650  0.25540  0.67065  Biso   1.000  C
  C670     1.0000 0.37730  0.28018  0.70840  Biso   1.000  C
  H573     1.0000 0.37260  0.30380  0.69840  Biso   1.000  H
  C671     1.0000 0.42480  0.27040  0.76040  Biso   1.000  C
  H574     1.0000 0.45170  0.28740  0.78490  Biso   1.000  H
  C672     1.0000 0.28180  0.26583  0.61771  Biso   1.000  C
  N239     1.0000 0.80250  0.03590  0.48310  Biso   1.000  N
  N240     1.0000 0.06550  0.41840  0.22090  Biso   1.000  N
  H575     1.0000 0.05010  0.42470  0.18610  Biso   1.000  H
  H576     1.0000 0.04090  0.42290  0.24220  Biso   1.000  H
  Cu65     1.0000 0.00000  0.19123  0.75000  Biso   1.000  Cu
  Cu66     1.0000 0.50000  0.69123  0.75000  Biso   1.000  Cu
  Cu67     1.0000 0.00000  0.80877  0.25000  Biso   1.000  Cu
  Cu68     1.0000 0.50000  0.30877  0.25000  Biso   1.000  Cu
