data_image0
_cell_length_a       15.4237
_cell_length_b       25.4287
_cell_length_c       30.787
_cell_angle_alpha    90
_cell_angle_beta     90
_cell_angle_gamma    90

_symmetry_space_group_name_H-M    "P 1"
_symmetry_int_tables_number       1

loop_
  _symmetry_equiv_pos_as_xyz
  'x, y, z'

loop_
  _atom_site_label
  _atom_site_occupancy
  _atom_site_fract_x
  _atom_site_fract_y
  _atom_site_fract_z
  _atom_site_thermal_displace_type
  _atom_site_B_iso_or_equiv
  _atom_site_type_symbol
  O1       1.0000 0.38027  0.64080  0.68957  Biso   1.000  O
  O2       1.0000 0.38754  0.70625  0.61231  Biso   1.000  O
  N1       1.0000 0.38227  0.68044  0.71748  Biso   1.000  N
  O3       1.0000 0.30568  0.82715  0.81561  Biso   1.000  O
  C1       1.0000 0.37862  0.75942  0.77859  Biso   1.000  C
  C2       1.0000 0.37422  0.80155  0.81288  Biso   1.000  C
  O4       1.0000 0.44057  0.80683  0.83595  Biso   1.000  O
  N2       1.0000 0.39409  0.74127  0.58099  Biso   1.000  N
  C3       1.0000 0.33314  0.76404  0.74014  Biso   1.000  C
  H1       1.0000 0.30000  0.79390  0.73480  Biso   1.000  H
  C4       1.0000 0.33701  0.72416  0.70965  Biso   1.000  C
  H2       1.0000 0.30780  0.72780  0.68340  Biso   1.000  H
  C5       1.0000 0.36426  0.76856  0.50967  Biso   1.000  C
  H3       1.0000 0.33870  0.76150  0.48290  Biso   1.000  H
  C6       1.0000 0.35863  0.73200  0.54194  Biso   1.000  C
  H4       1.0000 0.33000  0.70040  0.53690  Biso   1.000  H
  C7       1.0000 0.42906  0.67544  0.75394  Biso   1.000  C
  H5       1.0000 0.46180  0.64520  0.75850  Biso   1.000  H
  C8       1.0000 0.42895  0.71502  0.78472  Biso   1.000  C
  H6       1.0000 0.46280  0.71180  0.80960  Biso   1.000  H
  C9       1.0000 0.44600  0.82350  0.55592  Biso   1.000  C
  H7       1.0000 0.47770  0.85400  0.56120  Biso   1.000  H
  C10      1.0000 0.40689  0.81581  0.51557  Biso   1.000  C
  C11      1.0000 0.41154  0.85525  0.47929  Biso   1.000  C
  H8       1.0000 0.41120  0.83660  0.45180  Biso   1.000  H
  H9       1.0000 0.46610  0.87400  0.48130  Biso   1.000  H
  C12      1.0000 0.43796  0.78634  0.58779  Biso   1.000  C
  H10      1.0000 0.46330  0.79230  0.61470  Biso   1.000  H
  O5       1.0000 0.38027  0.14080  0.18957  Biso   1.000  O
  O6       1.0000 0.38754  0.20625  0.11231  Biso   1.000  O
  N3       1.0000 0.38227  0.18044  0.21748  Biso   1.000  N
  O7       1.0000 0.30568  0.32715  0.31561  Biso   1.000  O
  C13      1.0000 0.37862  0.25942  0.27859  Biso   1.000  C
  C14      1.0000 0.37422  0.30155  0.31288  Biso   1.000  C
  O8       1.0000 0.44057  0.30683  0.33595  Biso   1.000  O
  N4       1.0000 0.39409  0.24127  0.08099  Biso   1.000  N
  C15      1.0000 0.33314  0.26404  0.24014  Biso   1.000  C
  H11      1.0000 0.30000  0.29390  0.23480  Biso   1.000  H
  C16      1.0000 0.33701  0.22416  0.20965  Biso   1.000  C
  H12      1.0000 0.30780  0.22780  0.18340  Biso   1.000  H
  C17      1.0000 0.36426  0.26856  0.00967  Biso   1.000  C
  H13      1.0000 0.33870  0.26150  0.98290  Biso   1.000  H
  C18      1.0000 0.35863  0.23200  0.04194  Biso   1.000  C
  H14      1.0000 0.33000  0.20040  0.03690  Biso   1.000  H
  C19      1.0000 0.42906  0.17544  0.25394  Biso   1.000  C
  H15      1.0000 0.46180  0.14520  0.25850  Biso   1.000  H
  C20      1.0000 0.42895  0.21502  0.28472  Biso   1.000  C
  H16      1.0000 0.46280  0.21180  0.30960  Biso   1.000  H
  C21      1.0000 0.44600  0.32350  0.05592  Biso   1.000  C
  H17      1.0000 0.47770  0.35400  0.06120  Biso   1.000  H
  C22      1.0000 0.40689  0.31581  0.01557  Biso   1.000  C
  C23      1.0000 0.41154  0.35525  0.97929  Biso   1.000  C
  H18      1.0000 0.41120  0.33660  0.95180  Biso   1.000  H
  H19      1.0000 0.46610  0.37400  0.98130  Biso   1.000  H
  C24      1.0000 0.43796  0.28634  0.08779  Biso   1.000  C
  H20      1.0000 0.46330  0.29230  0.11470  Biso   1.000  H
  O9       1.0000 0.88027  0.64080  0.18957  Biso   1.000  O
  O10      1.0000 0.88754  0.70625  0.11231  Biso   1.000  O
  N5       1.0000 0.88227  0.68044  0.21748  Biso   1.000  N
  O11      1.0000 0.80568  0.82715  0.31561  Biso   1.000  O
  C25      1.0000 0.87862  0.75942  0.27859  Biso   1.000  C
  C26      1.0000 0.87422  0.80155  0.31288  Biso   1.000  C
  O12      1.0000 0.94057  0.80683  0.33595  Biso   1.000  O
  N6       1.0000 0.89409  0.74127  0.08099  Biso   1.000  N
  C27      1.0000 0.83314  0.76404  0.24014  Biso   1.000  C
  H21      1.0000 0.80000  0.79390  0.23480  Biso   1.000  H
  C28      1.0000 0.83701  0.72416  0.20965  Biso   1.000  C
  H22      1.0000 0.80780  0.72780  0.18340  Biso   1.000  H
  C29      1.0000 0.86426  0.76856  0.00967  Biso   1.000  C
  H23      1.0000 0.83870  0.76150  0.98290  Biso   1.000  H
  C30      1.0000 0.85863  0.73200  0.04194  Biso   1.000  C
  H24      1.0000 0.83000  0.70040  0.03690  Biso   1.000  H
  C31      1.0000 0.92906  0.67544  0.25394  Biso   1.000  C
  H25      1.0000 0.96180  0.64520  0.25850  Biso   1.000  H
  C32      1.0000 0.92895  0.71502  0.28472  Biso   1.000  C
  H26      1.0000 0.96280  0.71180  0.30960  Biso   1.000  H
  C33      1.0000 0.94600  0.82350  0.05592  Biso   1.000  C
  H27      1.0000 0.97770  0.85400  0.06120  Biso   1.000  H
  C34      1.0000 0.90689  0.81581  0.01557  Biso   1.000  C
  C35      1.0000 0.91154  0.85525  0.97929  Biso   1.000  C
  H28      1.0000 0.91120  0.83660  0.95180  Biso   1.000  H
  H29      1.0000 0.96610  0.87400  0.98130  Biso   1.000  H
  C36      1.0000 0.93796  0.78634  0.08779  Biso   1.000  C
  H30      1.0000 0.96330  0.79230  0.11470  Biso   1.000  H
  O13      1.0000 0.88027  0.14080  0.68957  Biso   1.000  O
  O14      1.0000 0.88754  0.20625  0.61231  Biso   1.000  O
  N7       1.0000 0.88227  0.18044  0.71748  Biso   1.000  N
  O15      1.0000 0.80568  0.32715  0.81561  Biso   1.000  O
  C37      1.0000 0.87862  0.25942  0.77859  Biso   1.000  C
  C38      1.0000 0.87422  0.30155  0.81288  Biso   1.000  C
  O16      1.0000 0.94057  0.30683  0.83595  Biso   1.000  O
  N8       1.0000 0.89409  0.24127  0.58099  Biso   1.000  N
  C39      1.0000 0.83314  0.26404  0.74014  Biso   1.000  C
  H31      1.0000 0.80000  0.29390  0.73480  Biso   1.000  H
  C40      1.0000 0.83701  0.22416  0.70965  Biso   1.000  C
  H32      1.0000 0.80780  0.22780  0.68340  Biso   1.000  H
  C41      1.0000 0.86426  0.26856  0.50967  Biso   1.000  C
  H33      1.0000 0.83870  0.26150  0.48290  Biso   1.000  H
  C42      1.0000 0.85863  0.23200  0.54194  Biso   1.000  C
  H34      1.0000 0.83000  0.20040  0.53690  Biso   1.000  H
  C43      1.0000 0.92906  0.17544  0.75394  Biso   1.000  C
  H35      1.0000 0.96180  0.14520  0.75850  Biso   1.000  H
  C44      1.0000 0.92895  0.21502  0.78472  Biso   1.000  C
  H36      1.0000 0.96280  0.21180  0.80960  Biso   1.000  H
  C45      1.0000 0.94600  0.32350  0.55592  Biso   1.000  C
  H37      1.0000 0.97770  0.35400  0.56120  Biso   1.000  H
  C46      1.0000 0.90689  0.31581  0.51557  Biso   1.000  C
  C47      1.0000 0.91154  0.35525  0.47929  Biso   1.000  C
  H38      1.0000 0.91120  0.33660  0.45180  Biso   1.000  H
  H39      1.0000 0.96610  0.37400  0.48130  Biso   1.000  H
  C48      1.0000 0.93796  0.28634  0.58779  Biso   1.000  C
  H40      1.0000 0.96330  0.29230  0.61470  Biso   1.000  H
  O17      1.0000 0.36973  0.10920  0.68957  Biso   1.000  O
  O18      1.0000 0.36246  0.04375  0.61231  Biso   1.000  O
  N9       1.0000 0.36773  0.06956  0.71748  Biso   1.000  N
  O19      1.0000 0.44432  0.92285  0.81561  Biso   1.000  O
  C49      1.0000 0.37138  0.99058  0.77859  Biso   1.000  C
  C50      1.0000 0.37578  0.94845  0.81288  Biso   1.000  C
  O20      1.0000 0.30943  0.94317  0.83595  Biso   1.000  O
  N10      1.0000 0.35591  0.00873  0.58099  Biso   1.000  N
  C51      1.0000 0.41686  0.98596  0.74014  Biso   1.000  C
  H41      1.0000 0.45000  0.95610  0.73480  Biso   1.000  H
  C52      1.0000 0.41299  0.02584  0.70965  Biso   1.000  C
  H42      1.0000 0.44220  0.02220  0.68340  Biso   1.000  H
  C53      1.0000 0.38574  0.98144  0.50967  Biso   1.000  C
  H43      1.0000 0.41130  0.98850  0.48290  Biso   1.000  H
  C54      1.0000 0.39137  0.01800  0.54194  Biso   1.000  C
  H44      1.0000 0.42000  0.04960  0.53690  Biso   1.000  H
  C55      1.0000 0.32094  0.07456  0.75394  Biso   1.000  C
  H45      1.0000 0.28820  0.10480  0.75850  Biso   1.000  H
  C56      1.0000 0.32105  0.03498  0.78472  Biso   1.000  C
  H46      1.0000 0.28720  0.03820  0.80960  Biso   1.000  H
  C57      1.0000 0.30400  0.92650  0.55592  Biso   1.000  C
  H47      1.0000 0.27230  0.89600  0.56120  Biso   1.000  H
  C58      1.0000 0.34311  0.93419  0.51557  Biso   1.000  C
  C59      1.0000 0.33846  0.89475  0.47929  Biso   1.000  C
  H48      1.0000 0.33880  0.91340  0.45180  Biso   1.000  H
  H49      1.0000 0.28390  0.87600  0.48130  Biso   1.000  H
  C60      1.0000 0.31204  0.96366  0.58779  Biso   1.000  C
  H50      1.0000 0.28670  0.95770  0.61470  Biso   1.000  H
  O21      1.0000 0.36973  0.60920  0.18957  Biso   1.000  O
  O22      1.0000 0.36246  0.54375  0.11231  Biso   1.000  O
  N11      1.0000 0.36773  0.56956  0.21748  Biso   1.000  N
  O23      1.0000 0.44432  0.42285  0.31561  Biso   1.000  O
  C61      1.0000 0.37138  0.49058  0.27859  Biso   1.000  C
  C62      1.0000 0.37578  0.44845  0.31288  Biso   1.000  C
  O24      1.0000 0.30943  0.44317  0.33595  Biso   1.000  O
  N12      1.0000 0.35591  0.50873  0.08099  Biso   1.000  N
  C63      1.0000 0.41686  0.48596  0.24014  Biso   1.000  C
  H51      1.0000 0.45000  0.45610  0.23480  Biso   1.000  H
  C64      1.0000 0.41299  0.52584  0.20965  Biso   1.000  C
  H52      1.0000 0.44220  0.52220  0.18340  Biso   1.000  H
  C65      1.0000 0.38574  0.48144  0.00967  Biso   1.000  C
  H53      1.0000 0.41130  0.48850  0.98290  Biso   1.000  H
  C66      1.0000 0.39137  0.51800  0.04194  Biso   1.000  C
  H54      1.0000 0.42000  0.54960  0.03690  Biso   1.000  H
  C67      1.0000 0.32094  0.57456  0.25394  Biso   1.000  C
  H55      1.0000 0.28820  0.60480  0.25850  Biso   1.000  H
  C68      1.0000 0.32105  0.53498  0.28472  Biso   1.000  C
  H56      1.0000 0.28720  0.53820  0.30960  Biso   1.000  H
  C69      1.0000 0.30400  0.42650  0.05592  Biso   1.000  C
  H57      1.0000 0.27230  0.39600  0.06120  Biso   1.000  H
  C70      1.0000 0.34311  0.43419  0.01557  Biso   1.000  C
  C71      1.0000 0.33846  0.39475  0.97929  Biso   1.000  C
  H58      1.0000 0.33880  0.41340  0.95180  Biso   1.000  H
  H59      1.0000 0.28390  0.37600  0.98130  Biso   1.000  H
  C72      1.0000 0.31204  0.46366  0.08779  Biso   1.000  C
  H60      1.0000 0.28670  0.45770  0.11470  Biso   1.000  H
  O25      1.0000 0.86973  0.10920  0.18957  Biso   1.000  O
  O26      1.0000 0.86246  0.04375  0.11231  Biso   1.000  O
  N13      1.0000 0.86773  0.06956  0.21748  Biso   1.000  N
  O27      1.0000 0.94432  0.92285  0.31561  Biso   1.000  O
  C73      1.0000 0.87138  0.99058  0.27859  Biso   1.000  C
  C74      1.0000 0.87578  0.94845  0.31288  Biso   1.000  C
  O28      1.0000 0.80943  0.94317  0.33595  Biso   1.000  O
  N14      1.0000 0.85591  0.00873  0.08099  Biso   1.000  N
  C75      1.0000 0.91686  0.98596  0.24014  Biso   1.000  C
  H61      1.0000 0.95000  0.95610  0.23480  Biso   1.000  H
  C76      1.0000 0.91299  0.02584  0.20965  Biso   1.000  C
  H62      1.0000 0.94220  0.02220  0.18340  Biso   1.000  H
  C77      1.0000 0.88574  0.98144  0.00967  Biso   1.000  C
  H63      1.0000 0.91130  0.98850  0.98290  Biso   1.000  H
  C78      1.0000 0.89137  0.01800  0.04194  Biso   1.000  C
  H64      1.0000 0.92000  0.04960  0.03690  Biso   1.000  H
  C79      1.0000 0.82094  0.07456  0.25394  Biso   1.000  C
  H65      1.0000 0.78820  0.10480  0.25850  Biso   1.000  H
  C80      1.0000 0.82105  0.03498  0.28472  Biso   1.000  C
  H66      1.0000 0.78720  0.03820  0.30960  Biso   1.000  H
  C81      1.0000 0.80400  0.92650  0.05592  Biso   1.000  C
  H67      1.0000 0.77230  0.89600  0.06120  Biso   1.000  H
  C82      1.0000 0.84311  0.93419  0.01557  Biso   1.000  C
  C83      1.0000 0.83846  0.89475  0.97929  Biso   1.000  C
  H68      1.0000 0.83880  0.91340  0.95180  Biso   1.000  H
  H69      1.0000 0.78390  0.87600  0.98130  Biso   1.000  H
  C84      1.0000 0.81204  0.96366  0.08779  Biso   1.000  C
  H70      1.0000 0.78670  0.95770  0.11470  Biso   1.000  H
  O29      1.0000 0.86973  0.60920  0.68957  Biso   1.000  O
  O30      1.0000 0.86246  0.54375  0.61231  Biso   1.000  O
  N15      1.0000 0.86773  0.56956  0.71748  Biso   1.000  N
  O31      1.0000 0.94432  0.42285  0.81561  Biso   1.000  O
  C85      1.0000 0.87138  0.49058  0.77859  Biso   1.000  C
  C86      1.0000 0.87578  0.44845  0.81288  Biso   1.000  C
  O32      1.0000 0.80943  0.44317  0.83595  Biso   1.000  O
  N16      1.0000 0.85591  0.50873  0.58099  Biso   1.000  N
  C87      1.0000 0.91686  0.48596  0.74014  Biso   1.000  C
  H71      1.0000 0.95000  0.45610  0.73480  Biso   1.000  H
  C88      1.0000 0.91299  0.52584  0.70965  Biso   1.000  C
  H72      1.0000 0.94220  0.52220  0.68340  Biso   1.000  H
  C89      1.0000 0.88574  0.48144  0.50967  Biso   1.000  C
  H73      1.0000 0.91130  0.48850  0.48290  Biso   1.000  H
  C90      1.0000 0.89137  0.51800  0.54194  Biso   1.000  C
  H74      1.0000 0.92000  0.54960  0.53690  Biso   1.000  H
  C91      1.0000 0.82094  0.57456  0.75394  Biso   1.000  C
  H75      1.0000 0.78820  0.60480  0.75850  Biso   1.000  H
  C92      1.0000 0.82105  0.53498  0.78472  Biso   1.000  C
  H76      1.0000 0.78720  0.53820  0.80960  Biso   1.000  H
  C93      1.0000 0.80400  0.42650  0.55592  Biso   1.000  C
  H77      1.0000 0.77230  0.39600  0.56120  Biso   1.000  H
  C94      1.0000 0.84311  0.43419  0.51557  Biso   1.000  C
  C95      1.0000 0.83846  0.39475  0.47929  Biso   1.000  C
  H78      1.0000 0.83880  0.41340  0.45180  Biso   1.000  H
  H79      1.0000 0.78390  0.37600  0.48130  Biso   1.000  H
  C96      1.0000 0.81204  0.46366  0.58779  Biso   1.000  C
  H80      1.0000 0.78670  0.45770  0.61470  Biso   1.000  H
  O33      1.0000 0.36973  0.64080  0.06043  Biso   1.000  O
  O34      1.0000 0.36246  0.70625  0.13769  Biso   1.000  O
  N17      1.0000 0.36773  0.68044  0.03252  Biso   1.000  N
  O35      1.0000 0.44432  0.82715  0.93439  Biso   1.000  O
  C97      1.0000 0.37138  0.75942  0.97141  Biso   1.000  C
  C98      1.0000 0.37578  0.80155  0.93712  Biso   1.000  C
  O36      1.0000 0.30943  0.80683  0.91405  Biso   1.000  O
  N18      1.0000 0.35591  0.74127  0.16901  Biso   1.000  N
  C99      1.0000 0.41686  0.76404  0.00986  Biso   1.000  C
  H81      1.0000 0.45000  0.79390  0.01520  Biso   1.000  H
  C100     1.0000 0.41299  0.72416  0.04035  Biso   1.000  C
  H82      1.0000 0.44220  0.72780  0.06660  Biso   1.000  H
  C101     1.0000 0.38574  0.76856  0.24033  Biso   1.000  C
  H83      1.0000 0.41130  0.76150  0.26710  Biso   1.000  H
  C102     1.0000 0.39137  0.73200  0.20806  Biso   1.000  C
  H84      1.0000 0.42000  0.70040  0.21310  Biso   1.000  H
  C103     1.0000 0.32094  0.67544  0.99606  Biso   1.000  C
  H85      1.0000 0.28820  0.64520  0.99150  Biso   1.000  H
  C104     1.0000 0.32105  0.71502  0.96528  Biso   1.000  C
  H86      1.0000 0.28720  0.71180  0.94040  Biso   1.000  H
  C105     1.0000 0.30400  0.82350  0.19408  Biso   1.000  C
  H87      1.0000 0.27230  0.85400  0.18880  Biso   1.000  H
  C106     1.0000 0.34311  0.81581  0.23443  Biso   1.000  C
  C107     1.0000 0.33846  0.85525  0.27071  Biso   1.000  C
  H88      1.0000 0.33880  0.83660  0.29820  Biso   1.000  H
  H89      1.0000 0.28390  0.87400  0.26870  Biso   1.000  H
  C108     1.0000 0.31204  0.78634  0.16221  Biso   1.000  C
  H90      1.0000 0.28670  0.79230  0.13530  Biso   1.000  H
  O37      1.0000 0.36973  0.14080  0.56043  Biso   1.000  O
  O38      1.0000 0.36246  0.20625  0.63769  Biso   1.000  O
  N19      1.0000 0.36773  0.18044  0.53252  Biso   1.000  N
  O39      1.0000 0.44432  0.32715  0.43439  Biso   1.000  O
  C109     1.0000 0.37138  0.25942  0.47141  Biso   1.000  C
  C110     1.0000 0.37578  0.30155  0.43712  Biso   1.000  C
  O40      1.0000 0.30943  0.30683  0.41405  Biso   1.000  O
  N20      1.0000 0.35591  0.24127  0.66901  Biso   1.000  N
  C111     1.0000 0.41686  0.26404  0.50986  Biso   1.000  C
  H91      1.0000 0.45000  0.29390  0.51520  Biso   1.000  H
  C112     1.0000 0.41299  0.22416  0.54035  Biso   1.000  C
  H92      1.0000 0.44220  0.22780  0.56660  Biso   1.000  H
  C113     1.0000 0.38574  0.26856  0.74033  Biso   1.000  C
  H93      1.0000 0.41130  0.26150  0.76710  Biso   1.000  H
  C114     1.0000 0.39137  0.23200  0.70806  Biso   1.000  C
  H94      1.0000 0.42000  0.20040  0.71310  Biso   1.000  H
  C115     1.0000 0.32094  0.17544  0.49606  Biso   1.000  C
  H95      1.0000 0.28820  0.14520  0.49150  Biso   1.000  H
  C116     1.0000 0.32105  0.21502  0.46528  Biso   1.000  C
  H96      1.0000 0.28720  0.21180  0.44040  Biso   1.000  H
  C117     1.0000 0.30400  0.32350  0.69408  Biso   1.000  C
  H97      1.0000 0.27230  0.35400  0.68880  Biso   1.000  H
  C118     1.0000 0.34311  0.31581  0.73443  Biso   1.000  C
  C119     1.0000 0.33846  0.35525  0.77071  Biso   1.000  C
  H98      1.0000 0.33880  0.33660  0.79820  Biso   1.000  H
  H99      1.0000 0.28390  0.37400  0.76870  Biso   1.000  H
  C120     1.0000 0.31204  0.28634  0.66221  Biso   1.000  C
  H100     1.0000 0.28670  0.29230  0.63530  Biso   1.000  H
  O41      1.0000 0.86973  0.64080  0.56043  Biso   1.000  O
  O42      1.0000 0.86246  0.70625  0.63769  Biso   1.000  O
  N21      1.0000 0.86773  0.68044  0.53252  Biso   1.000  N
  O43      1.0000 0.94432  0.82715  0.43439  Biso   1.000  O
  C121     1.0000 0.87138  0.75942  0.47141  Biso   1.000  C
  C122     1.0000 0.87578  0.80155  0.43712  Biso   1.000  C
  O44      1.0000 0.80943  0.80683  0.41405  Biso   1.000  O
  N22      1.0000 0.85591  0.74127  0.66901  Biso   1.000  N
  C123     1.0000 0.91686  0.76404  0.50986  Biso   1.000  C
  H101     1.0000 0.95000  0.79390  0.51520  Biso   1.000  H
  C124     1.0000 0.91299  0.72416  0.54035  Biso   1.000  C
  H102     1.0000 0.94220  0.72780  0.56660  Biso   1.000  H
  C125     1.0000 0.88574  0.76856  0.74033  Biso   1.000  C
  H103     1.0000 0.91130  0.76150  0.76710  Biso   1.000  H
  C126     1.0000 0.89137  0.73200  0.70806  Biso   1.000  C
  H104     1.0000 0.92000  0.70040  0.71310  Biso   1.000  H
  C127     1.0000 0.82094  0.67544  0.49606  Biso   1.000  C
  H105     1.0000 0.78820  0.64520  0.49150  Biso   1.000  H
  C128     1.0000 0.82105  0.71502  0.46528  Biso   1.000  C
  H106     1.0000 0.78720  0.71180  0.44040  Biso   1.000  H
  C129     1.0000 0.80400  0.82350  0.69408  Biso   1.000  C
  H107     1.0000 0.77230  0.85400  0.68880  Biso   1.000  H
  C130     1.0000 0.84311  0.81581  0.73443  Biso   1.000  C
  C131     1.0000 0.83846  0.85525  0.77071  Biso   1.000  C
  H108     1.0000 0.83880  0.83660  0.79820  Biso   1.000  H
  H109     1.0000 0.78390  0.87400  0.76870  Biso   1.000  H
  C132     1.0000 0.81204  0.78634  0.66221  Biso   1.000  C
  H110     1.0000 0.78670  0.79230  0.63530  Biso   1.000  H
  O45      1.0000 0.86973  0.14080  0.06043  Biso   1.000  O
  O46      1.0000 0.86246  0.20625  0.13769  Biso   1.000  O
  N23      1.0000 0.86773  0.18044  0.03252  Biso   1.000  N
  O47      1.0000 0.94432  0.32715  0.93439  Biso   1.000  O
  C133     1.0000 0.87138  0.25942  0.97141  Biso   1.000  C
  C134     1.0000 0.87578  0.30155  0.93712  Biso   1.000  C
  O48      1.0000 0.80943  0.30683  0.91405  Biso   1.000  O
  N24      1.0000 0.85591  0.24127  0.16901  Biso   1.000  N
  C135     1.0000 0.91686  0.26404  0.00986  Biso   1.000  C
  H111     1.0000 0.95000  0.29390  0.01520  Biso   1.000  H
  C136     1.0000 0.91299  0.22416  0.04035  Biso   1.000  C
  H112     1.0000 0.94220  0.22780  0.06660  Biso   1.000  H
  C137     1.0000 0.88574  0.26856  0.24033  Biso   1.000  C
  H113     1.0000 0.91130  0.26150  0.26710  Biso   1.000  H
  C138     1.0000 0.89137  0.23200  0.20806  Biso   1.000  C
  H114     1.0000 0.92000  0.20040  0.21310  Biso   1.000  H
  C139     1.0000 0.82094  0.17544  0.99606  Biso   1.000  C
  H115     1.0000 0.78820  0.14520  0.99150  Biso   1.000  H
  C140     1.0000 0.82105  0.21502  0.96528  Biso   1.000  C
  H116     1.0000 0.78720  0.21180  0.94040  Biso   1.000  H
  C141     1.0000 0.80400  0.32350  0.19408  Biso   1.000  C
  H117     1.0000 0.77230  0.35400  0.18880  Biso   1.000  H
  C142     1.0000 0.84311  0.31581  0.23443  Biso   1.000  C
  C143     1.0000 0.83846  0.35525  0.27071  Biso   1.000  C
  H118     1.0000 0.83880  0.33660  0.29820  Biso   1.000  H
  H119     1.0000 0.78390  0.37400  0.26870  Biso   1.000  H
  C144     1.0000 0.81204  0.28634  0.16221  Biso   1.000  C
  H120     1.0000 0.78670  0.29230  0.13530  Biso   1.000  H
  O49      1.0000 0.38027  0.10920  0.06043  Biso   1.000  O
  O50      1.0000 0.38754  0.04375  0.13769  Biso   1.000  O
  N25      1.0000 0.38227  0.06956  0.03252  Biso   1.000  N
  O51      1.0000 0.30568  0.92285  0.93439  Biso   1.000  O
  C145     1.0000 0.37862  0.99058  0.97141  Biso   1.000  C
  C146     1.0000 0.37422  0.94845  0.93712  Biso   1.000  C
  O52      1.0000 0.44057  0.94317  0.91405  Biso   1.000  O
  N26      1.0000 0.39409  0.00873  0.16901  Biso   1.000  N
  C147     1.0000 0.33314  0.98596  0.00986  Biso   1.000  C
  H121     1.0000 0.30000  0.95610  0.01520  Biso   1.000  H
  C148     1.0000 0.33701  0.02584  0.04035  Biso   1.000  C
  H122     1.0000 0.30780  0.02220  0.06660  Biso   1.000  H
  C149     1.0000 0.36426  0.98144  0.24033  Biso   1.000  C
  H123     1.0000 0.33870  0.98850  0.26710  Biso   1.000  H
  C150     1.0000 0.35863  0.01800  0.20806  Biso   1.000  C
  H124     1.0000 0.33000  0.04960  0.21310  Biso   1.000  H
  C151     1.0000 0.42906  0.07456  0.99606  Biso   1.000  C
  H125     1.0000 0.46180  0.10480  0.99150  Biso   1.000  H
  C152     1.0000 0.42895  0.03498  0.96528  Biso   1.000  C
  H126     1.0000 0.46280  0.03820  0.94040  Biso   1.000  H
  C153     1.0000 0.44600  0.92650  0.19408  Biso   1.000  C
  H127     1.0000 0.47770  0.89600  0.18880  Biso   1.000  H
  C154     1.0000 0.40689  0.93419  0.23443  Biso   1.000  C
  C155     1.0000 0.41154  0.89475  0.27071  Biso   1.000  C
  H128     1.0000 0.41120  0.91340  0.29820  Biso   1.000  H
  H129     1.0000 0.46610  0.87600  0.26870  Biso   1.000  H
  C156     1.0000 0.43796  0.96366  0.16221  Biso   1.000  C
  H130     1.0000 0.46330  0.95770  0.13530  Biso   1.000  H
  O53      1.0000 0.38027  0.60920  0.56043  Biso   1.000  O
  O54      1.0000 0.38754  0.54375  0.63769  Biso   1.000  O
  N27      1.0000 0.38227  0.56956  0.53252  Biso   1.000  N
  O55      1.0000 0.30568  0.42285  0.43439  Biso   1.000  O
  C157     1.0000 0.37862  0.49058  0.47141  Biso   1.000  C
  C158     1.0000 0.37422  0.44845  0.43712  Biso   1.000  C
  O56      1.0000 0.44057  0.44317  0.41405  Biso   1.000  O
  N28      1.0000 0.39409  0.50873  0.66901  Biso   1.000  N
  C159     1.0000 0.33314  0.48596  0.50986  Biso   1.000  C
  H131     1.0000 0.30000  0.45610  0.51520  Biso   1.000  H
  C160     1.0000 0.33701  0.52584  0.54035  Biso   1.000  C
  H132     1.0000 0.30780  0.52220  0.56660  Biso   1.000  H
  C161     1.0000 0.36426  0.48144  0.74033  Biso   1.000  C
  H133     1.0000 0.33870  0.48850  0.76710  Biso   1.000  H
  C162     1.0000 0.35863  0.51800  0.70806  Biso   1.000  C
  H134     1.0000 0.33000  0.54960  0.71310  Biso   1.000  H
  C163     1.0000 0.42906  0.57456  0.49606  Biso   1.000  C
  H135     1.0000 0.46180  0.60480  0.49150  Biso   1.000  H
  C164     1.0000 0.42895  0.53498  0.46528  Biso   1.000  C
  H136     1.0000 0.46280  0.53820  0.44040  Biso   1.000  H
  C165     1.0000 0.44600  0.42650  0.69408  Biso   1.000  C
  H137     1.0000 0.47770  0.39600  0.68880  Biso   1.000  H
  C166     1.0000 0.40689  0.43419  0.73443  Biso   1.000  C
  C167     1.0000 0.41154  0.39475  0.77071  Biso   1.000  C
  H138     1.0000 0.41120  0.41340  0.79820  Biso   1.000  H
  H139     1.0000 0.46610  0.37600  0.76870  Biso   1.000  H
  C168     1.0000 0.43796  0.46366  0.66221  Biso   1.000  C
  H140     1.0000 0.46330  0.45770  0.63530  Biso   1.000  H
  O57      1.0000 0.88027  0.10920  0.56043  Biso   1.000  O
  O58      1.0000 0.88754  0.04375  0.63769  Biso   1.000  O
  N29      1.0000 0.88227  0.06956  0.53252  Biso   1.000  N
  O59      1.0000 0.80568  0.92285  0.43439  Biso   1.000  O
  C169     1.0000 0.87862  0.99058  0.47141  Biso   1.000  C
  C170     1.0000 0.87422  0.94845  0.43712  Biso   1.000  C
  O60      1.0000 0.94057  0.94317  0.41405  Biso   1.000  O
  N30      1.0000 0.89409  0.00873  0.66901  Biso   1.000  N
  C171     1.0000 0.83314  0.98596  0.50986  Biso   1.000  C
  H141     1.0000 0.80000  0.95610  0.51520  Biso   1.000  H
  C172     1.0000 0.83701  0.02584  0.54035  Biso   1.000  C
  H142     1.0000 0.80780  0.02220  0.56660  Biso   1.000  H
  C173     1.0000 0.86426  0.98144  0.74033  Biso   1.000  C
  H143     1.0000 0.83870  0.98850  0.76710  Biso   1.000  H
  C174     1.0000 0.85863  0.01800  0.70806  Biso   1.000  C
  H144     1.0000 0.83000  0.04960  0.71310  Biso   1.000  H
  C175     1.0000 0.92906  0.07456  0.49606  Biso   1.000  C
  H145     1.0000 0.96180  0.10480  0.49150  Biso   1.000  H
  C176     1.0000 0.92895  0.03498  0.46528  Biso   1.000  C
  H146     1.0000 0.96280  0.03820  0.44040  Biso   1.000  H
  C177     1.0000 0.94600  0.92650  0.69408  Biso   1.000  C
  H147     1.0000 0.97770  0.89600  0.68880  Biso   1.000  H
  C178     1.0000 0.90689  0.93419  0.73443  Biso   1.000  C
  C179     1.0000 0.91154  0.89475  0.77071  Biso   1.000  C
  H148     1.0000 0.91120  0.91340  0.79820  Biso   1.000  H
  H149     1.0000 0.96610  0.87600  0.76870  Biso   1.000  H
  C180     1.0000 0.93796  0.96366  0.66221  Biso   1.000  C
  H150     1.0000 0.96330  0.95770  0.63530  Biso   1.000  H
  O61      1.0000 0.88027  0.60920  0.06043  Biso   1.000  O
  O62      1.0000 0.88754  0.54375  0.13769  Biso   1.000  O
  N31      1.0000 0.88227  0.56956  0.03252  Biso   1.000  N
  O63      1.0000 0.80568  0.42285  0.93439  Biso   1.000  O
  C181     1.0000 0.87862  0.49058  0.97141  Biso   1.000  C
  C182     1.0000 0.87422  0.44845  0.93712  Biso   1.000  C
  O64      1.0000 0.94057  0.44317  0.91405  Biso   1.000  O
  N32      1.0000 0.89409  0.50873  0.16901  Biso   1.000  N
  C183     1.0000 0.83314  0.48596  0.00986  Biso   1.000  C
  H151     1.0000 0.80000  0.45610  0.01520  Biso   1.000  H
  C184     1.0000 0.83701  0.52584  0.04035  Biso   1.000  C
  H152     1.0000 0.80780  0.52220  0.06660  Biso   1.000  H
  C185     1.0000 0.86426  0.48144  0.24033  Biso   1.000  C
  H153     1.0000 0.83870  0.48850  0.26710  Biso   1.000  H
  C186     1.0000 0.85863  0.51800  0.20806  Biso   1.000  C
  H154     1.0000 0.83000  0.54960  0.21310  Biso   1.000  H
  C187     1.0000 0.92906  0.57456  0.99606  Biso   1.000  C
  H155     1.0000 0.96180  0.60480  0.99150  Biso   1.000  H
  C188     1.0000 0.92895  0.53498  0.96528  Biso   1.000  C
  H156     1.0000 0.96280  0.53820  0.94040  Biso   1.000  H
  C189     1.0000 0.94600  0.42650  0.19408  Biso   1.000  C
  H157     1.0000 0.97770  0.39600  0.18880  Biso   1.000  H
  C190     1.0000 0.90689  0.43419  0.23443  Biso   1.000  C
  C191     1.0000 0.91154  0.39475  0.27071  Biso   1.000  C
  H158     1.0000 0.91120  0.41340  0.29820  Biso   1.000  H
  H159     1.0000 0.96610  0.37600  0.26870  Biso   1.000  H
  C192     1.0000 0.93796  0.46366  0.16221  Biso   1.000  C
  H160     1.0000 0.96330  0.45770  0.13530  Biso   1.000  H
  O65      1.0000 0.61973  0.35920  0.31043  Biso   1.000  O
  O66      1.0000 0.61246  0.29375  0.38769  Biso   1.000  O
  N33      1.0000 0.61773  0.31956  0.28252  Biso   1.000  N
  O67      1.0000 0.69432  0.17285  0.18439  Biso   1.000  O
  C193     1.0000 0.62138  0.24058  0.22141  Biso   1.000  C
  C194     1.0000 0.62578  0.19845  0.18712  Biso   1.000  C
  O68      1.0000 0.55943  0.19317  0.16405  Biso   1.000  O
  N34      1.0000 0.60591  0.25873  0.41901  Biso   1.000  N
  C195     1.0000 0.66686  0.23596  0.25986  Biso   1.000  C
  H161     1.0000 0.70000  0.20610  0.26520  Biso   1.000  H
  C196     1.0000 0.66299  0.27584  0.29035  Biso   1.000  C
  H162     1.0000 0.69220  0.27220  0.31660  Biso   1.000  H
  C197     1.0000 0.63574  0.23144  0.49033  Biso   1.000  C
  H163     1.0000 0.66130  0.23850  0.51710  Biso   1.000  H
  C198     1.0000 0.64137  0.26800  0.45806  Biso   1.000  C
  H164     1.0000 0.67000  0.29960  0.46310  Biso   1.000  H
  C199     1.0000 0.57094  0.32456  0.24606  Biso   1.000  C
  H165     1.0000 0.53820  0.35480  0.24150  Biso   1.000  H
  C200     1.0000 0.57105  0.28498  0.21528  Biso   1.000  C
  H166     1.0000 0.53720  0.28820  0.19040  Biso   1.000  H
  C201     1.0000 0.55400  0.17650  0.44408  Biso   1.000  C
  H167     1.0000 0.52230  0.14600  0.43880  Biso   1.000  H
  C202     1.0000 0.59311  0.18419  0.48443  Biso   1.000  C
  C203     1.0000 0.58846  0.14475  0.52071  Biso   1.000  C
  H168     1.0000 0.58880  0.16340  0.54820  Biso   1.000  H
  H169     1.0000 0.53390  0.12600  0.51870  Biso   1.000  H
  C204     1.0000 0.56204  0.21366  0.41221  Biso   1.000  C
  H170     1.0000 0.53670  0.20770  0.38530  Biso   1.000  H
  O69      1.0000 0.61973  0.85920  0.81043  Biso   1.000  O
  O70      1.0000 0.61246  0.79375  0.88769  Biso   1.000  O
  N35      1.0000 0.61773  0.81956  0.78252  Biso   1.000  N
  O71      1.0000 0.69432  0.67285  0.68439  Biso   1.000  O
  C205     1.0000 0.62138  0.74058  0.72141  Biso   1.000  C
  C206     1.0000 0.62578  0.69845  0.68712  Biso   1.000  C
  O72      1.0000 0.55943  0.69317  0.66405  Biso   1.000  O
  N36      1.0000 0.60591  0.75873  0.91901  Biso   1.000  N
  C207     1.0000 0.66686  0.73596  0.75986  Biso   1.000  C
  H171     1.0000 0.70000  0.70610  0.76520  Biso   1.000  H
  C208     1.0000 0.66299  0.77584  0.79035  Biso   1.000  C
  H172     1.0000 0.69220  0.77220  0.81660  Biso   1.000  H
  C209     1.0000 0.63574  0.73144  0.99033  Biso   1.000  C
  H173     1.0000 0.66130  0.73850  0.01710  Biso   1.000  H
  C210     1.0000 0.64137  0.76800  0.95806  Biso   1.000  C
  H174     1.0000 0.67000  0.79960  0.96310  Biso   1.000  H
  C211     1.0000 0.57094  0.82456  0.74606  Biso   1.000  C
  H175     1.0000 0.53820  0.85480  0.74150  Biso   1.000  H
  C212     1.0000 0.57105  0.78498  0.71528  Biso   1.000  C
  H176     1.0000 0.53720  0.78820  0.69040  Biso   1.000  H
  C213     1.0000 0.55400  0.67650  0.94408  Biso   1.000  C
  H177     1.0000 0.52230  0.64600  0.93880  Biso   1.000  H
  C214     1.0000 0.59311  0.68419  0.98443  Biso   1.000  C
  C215     1.0000 0.58846  0.64475  0.02071  Biso   1.000  C
  H178     1.0000 0.58880  0.66340  0.04820  Biso   1.000  H
  H179     1.0000 0.53390  0.62600  0.01870  Biso   1.000  H
  C216     1.0000 0.56204  0.71366  0.91221  Biso   1.000  C
  H180     1.0000 0.53670  0.70770  0.88530  Biso   1.000  H
  O73      1.0000 0.11973  0.35920  0.81043  Biso   1.000  O
  O74      1.0000 0.11246  0.29375  0.88769  Biso   1.000  O
  N37      1.0000 0.11773  0.31956  0.78252  Biso   1.000  N
  O75      1.0000 0.19432  0.17285  0.68439  Biso   1.000  O
  C217     1.0000 0.12138  0.24058  0.72141  Biso   1.000  C
  C218     1.0000 0.12578  0.19845  0.68712  Biso   1.000  C
  O76      1.0000 0.05943  0.19317  0.66405  Biso   1.000  O
  N38      1.0000 0.10591  0.25873  0.91901  Biso   1.000  N
  C219     1.0000 0.16686  0.23596  0.75986  Biso   1.000  C
  H181     1.0000 0.20000  0.20610  0.76520  Biso   1.000  H
  C220     1.0000 0.16299  0.27584  0.79035  Biso   1.000  C
  H182     1.0000 0.19220  0.27220  0.81660  Biso   1.000  H
  C221     1.0000 0.13574  0.23144  0.99033  Biso   1.000  C
  H183     1.0000 0.16130  0.23850  0.01710  Biso   1.000  H
  C222     1.0000 0.14137  0.26800  0.95806  Biso   1.000  C
  H184     1.0000 0.17000  0.29960  0.96310  Biso   1.000  H
  C223     1.0000 0.07094  0.32456  0.74606  Biso   1.000  C
  H185     1.0000 0.03820  0.35480  0.74150  Biso   1.000  H
  C224     1.0000 0.07105  0.28498  0.71528  Biso   1.000  C
  H186     1.0000 0.03720  0.28820  0.69040  Biso   1.000  H
  C225     1.0000 0.05400  0.17650  0.94408  Biso   1.000  C
  H187     1.0000 0.02230  0.14600  0.93880  Biso   1.000  H
  C226     1.0000 0.09311  0.18419  0.98443  Biso   1.000  C
  C227     1.0000 0.08846  0.14475  0.02071  Biso   1.000  C
  H188     1.0000 0.08880  0.16340  0.04820  Biso   1.000  H
  H189     1.0000 0.03390  0.12600  0.01870  Biso   1.000  H
  C228     1.0000 0.06204  0.21366  0.91221  Biso   1.000  C
  H190     1.0000 0.03670  0.20770  0.88530  Biso   1.000  H
  O77      1.0000 0.11973  0.85920  0.31043  Biso   1.000  O
  O78      1.0000 0.11246  0.79375  0.38769  Biso   1.000  O
  N39      1.0000 0.11773  0.81956  0.28252  Biso   1.000  N
  O79      1.0000 0.19432  0.67285  0.18439  Biso   1.000  O
  C229     1.0000 0.12138  0.74058  0.22141  Biso   1.000  C
  C230     1.0000 0.12578  0.69845  0.18712  Biso   1.000  C
  O80      1.0000 0.05943  0.69317  0.16405  Biso   1.000  O
  N40      1.0000 0.10591  0.75873  0.41901  Biso   1.000  N
  C231     1.0000 0.16686  0.73596  0.25986  Biso   1.000  C
  H191     1.0000 0.20000  0.70610  0.26520  Biso   1.000  H
  C232     1.0000 0.16299  0.77584  0.29035  Biso   1.000  C
  H192     1.0000 0.19220  0.77220  0.31660  Biso   1.000  H
  C233     1.0000 0.13574  0.73144  0.49033  Biso   1.000  C
  H193     1.0000 0.16130  0.73850  0.51710  Biso   1.000  H
  C234     1.0000 0.14137  0.76800  0.45806  Biso   1.000  C
  H194     1.0000 0.17000  0.79960  0.46310  Biso   1.000  H
  C235     1.0000 0.07094  0.82456  0.24606  Biso   1.000  C
  H195     1.0000 0.03820  0.85480  0.24150  Biso   1.000  H
  C236     1.0000 0.07105  0.78498  0.21528  Biso   1.000  C
  H196     1.0000 0.03720  0.78820  0.19040  Biso   1.000  H
  C237     1.0000 0.05400  0.67650  0.44408  Biso   1.000  C
  H197     1.0000 0.02230  0.64600  0.43880  Biso   1.000  H
  C238     1.0000 0.09311  0.68419  0.48443  Biso   1.000  C
  C239     1.0000 0.08846  0.64475  0.52071  Biso   1.000  C
  H198     1.0000 0.08880  0.66340  0.54820  Biso   1.000  H
  H199     1.0000 0.03390  0.62600  0.51870  Biso   1.000  H
  C240     1.0000 0.06204  0.71366  0.41221  Biso   1.000  C
  H200     1.0000 0.03670  0.70770  0.38530  Biso   1.000  H
  O81      1.0000 0.63027  0.89080  0.31043  Biso   1.000  O
  O82      1.0000 0.63754  0.95625  0.38769  Biso   1.000  O
  N41      1.0000 0.63227  0.93044  0.28252  Biso   1.000  N
  O83      1.0000 0.55568  0.07715  0.18439  Biso   1.000  O
  C241     1.0000 0.62862  0.00942  0.22141  Biso   1.000  C
  C242     1.0000 0.62422  0.05155  0.18712  Biso   1.000  C
  O84      1.0000 0.69057  0.05683  0.16405  Biso   1.000  O
  N42      1.0000 0.64409  0.99127  0.41901  Biso   1.000  N
  C243     1.0000 0.58314  0.01404  0.25986  Biso   1.000  C
  H201     1.0000 0.55000  0.04390  0.26520  Biso   1.000  H
  C244     1.0000 0.58701  0.97416  0.29035  Biso   1.000  C
  H202     1.0000 0.55780  0.97780  0.31660  Biso   1.000  H
  C245     1.0000 0.61426  0.01856  0.49033  Biso   1.000  C
  H203     1.0000 0.58870  0.01150  0.51710  Biso   1.000  H
  C246     1.0000 0.60863  0.98200  0.45806  Biso   1.000  C
  H204     1.0000 0.58000  0.95040  0.46310  Biso   1.000  H
  C247     1.0000 0.67906  0.92544  0.24606  Biso   1.000  C
  H205     1.0000 0.71180  0.89520  0.24150  Biso   1.000  H
  C248     1.0000 0.67895  0.96502  0.21528  Biso   1.000  C
  H206     1.0000 0.71280  0.96180  0.19040  Biso   1.000  H
  C249     1.0000 0.69600  0.07350  0.44408  Biso   1.000  C
  H207     1.0000 0.72770  0.10400  0.43880  Biso   1.000  H
  C250     1.0000 0.65689  0.06581  0.48443  Biso   1.000  C
  C251     1.0000 0.66154  0.10525  0.52071  Biso   1.000  C
  H208     1.0000 0.66120  0.08660  0.54820  Biso   1.000  H
  H209     1.0000 0.71610  0.12400  0.51870  Biso   1.000  H
  C252     1.0000 0.68796  0.03634  0.41221  Biso   1.000  C
  H210     1.0000 0.71330  0.04230  0.38530  Biso   1.000  H
  O85      1.0000 0.63027  0.39080  0.81043  Biso   1.000  O
  O86      1.0000 0.63754  0.45625  0.88769  Biso   1.000  O
  N43      1.0000 0.63227  0.43044  0.78252  Biso   1.000  N
  O87      1.0000 0.55568  0.57715  0.68439  Biso   1.000  O
  C253     1.0000 0.62862  0.50942  0.72141  Biso   1.000  C
  C254     1.0000 0.62422  0.55155  0.68712  Biso   1.000  C
  O88      1.0000 0.69057  0.55683  0.66405  Biso   1.000  O
  N44      1.0000 0.64409  0.49127  0.91901  Biso   1.000  N
  C255     1.0000 0.58314  0.51404  0.75986  Biso   1.000  C
  H211     1.0000 0.55000  0.54390  0.76520  Biso   1.000  H
  C256     1.0000 0.58701  0.47416  0.79035  Biso   1.000  C
  H212     1.0000 0.55780  0.47780  0.81660  Biso   1.000  H
  C257     1.0000 0.61426  0.51856  0.99033  Biso   1.000  C
  H213     1.0000 0.58870  0.51150  0.01710  Biso   1.000  H
  C258     1.0000 0.60863  0.48200  0.95806  Biso   1.000  C
  H214     1.0000 0.58000  0.45040  0.96310  Biso   1.000  H
  C259     1.0000 0.67906  0.42544  0.74606  Biso   1.000  C
  H215     1.0000 0.71180  0.39520  0.74150  Biso   1.000  H
  C260     1.0000 0.67895  0.46502  0.71528  Biso   1.000  C
  H216     1.0000 0.71280  0.46180  0.69040  Biso   1.000  H
  C261     1.0000 0.69600  0.57350  0.94408  Biso   1.000  C
  H217     1.0000 0.72770  0.60400  0.93880  Biso   1.000  H
  C262     1.0000 0.65689  0.56581  0.98443  Biso   1.000  C
  C263     1.0000 0.66154  0.60525  0.02071  Biso   1.000  C
  H218     1.0000 0.66120  0.58660  0.04820  Biso   1.000  H
  H219     1.0000 0.71610  0.62400  0.01870  Biso   1.000  H
  C264     1.0000 0.68796  0.53634  0.91221  Biso   1.000  C
  H220     1.0000 0.71330  0.54230  0.88530  Biso   1.000  H
  O89      1.0000 0.13027  0.89080  0.81043  Biso   1.000  O
  O90      1.0000 0.13754  0.95625  0.88769  Biso   1.000  O
  N45      1.0000 0.13227  0.93044  0.78252  Biso   1.000  N
  O91      1.0000 0.05568  0.07715  0.68439  Biso   1.000  O
  C265     1.0000 0.12862  0.00942  0.72141  Biso   1.000  C
  C266     1.0000 0.12422  0.05155  0.68712  Biso   1.000  C
  O92      1.0000 0.19057  0.05683  0.66405  Biso   1.000  O
  N46      1.0000 0.14409  0.99127  0.91901  Biso   1.000  N
  C267     1.0000 0.08314  0.01404  0.75986  Biso   1.000  C
  H221     1.0000 0.05000  0.04390  0.76520  Biso   1.000  H
  C268     1.0000 0.08701  0.97416  0.79035  Biso   1.000  C
  H222     1.0000 0.05780  0.97780  0.81660  Biso   1.000  H
  C269     1.0000 0.11426  0.01856  0.99033  Biso   1.000  C
  H223     1.0000 0.08870  0.01150  0.01710  Biso   1.000  H
  C270     1.0000 0.10863  0.98200  0.95806  Biso   1.000  C
  H224     1.0000 0.08000  0.95040  0.96310  Biso   1.000  H
  C271     1.0000 0.17906  0.92544  0.74606  Biso   1.000  C
  H225     1.0000 0.21180  0.89520  0.74150  Biso   1.000  H
  C272     1.0000 0.17895  0.96502  0.71528  Biso   1.000  C
  H226     1.0000 0.21280  0.96180  0.69040  Biso   1.000  H
  C273     1.0000 0.19600  0.07350  0.94408  Biso   1.000  C
  H227     1.0000 0.22770  0.10400  0.93880  Biso   1.000  H
  C274     1.0000 0.15689  0.06581  0.98443  Biso   1.000  C
  C275     1.0000 0.16154  0.10525  0.02071  Biso   1.000  C
  H228     1.0000 0.16120  0.08660  0.04820  Biso   1.000  H
  H229     1.0000 0.21610  0.12400  0.01870  Biso   1.000  H
  C276     1.0000 0.18796  0.03634  0.91221  Biso   1.000  C
  H230     1.0000 0.21330  0.04230  0.88530  Biso   1.000  H
  O93      1.0000 0.13027  0.39080  0.31043  Biso   1.000  O
  O94      1.0000 0.13754  0.45625  0.38769  Biso   1.000  O
  N47      1.0000 0.13227  0.43044  0.28252  Biso   1.000  N
  O95      1.0000 0.05568  0.57715  0.18439  Biso   1.000  O
  C277     1.0000 0.12862  0.50942  0.22141  Biso   1.000  C
  C278     1.0000 0.12422  0.55155  0.18712  Biso   1.000  C
  O96      1.0000 0.19057  0.55683  0.16405  Biso   1.000  O
  N48      1.0000 0.14409  0.49127  0.41901  Biso   1.000  N
  C279     1.0000 0.08314  0.51404  0.25986  Biso   1.000  C
  H231     1.0000 0.05000  0.54390  0.26520  Biso   1.000  H
  C280     1.0000 0.08701  0.47416  0.29035  Biso   1.000  C
  H232     1.0000 0.05780  0.47780  0.31660  Biso   1.000  H
  C281     1.0000 0.11426  0.51856  0.49033  Biso   1.000  C
  H233     1.0000 0.08870  0.51150  0.51710  Biso   1.000  H
  C282     1.0000 0.10863  0.48200  0.45806  Biso   1.000  C
  H234     1.0000 0.08000  0.45040  0.46310  Biso   1.000  H
  C283     1.0000 0.17906  0.42544  0.24606  Biso   1.000  C
  H235     1.0000 0.21180  0.39520  0.24150  Biso   1.000  H
  C284     1.0000 0.17895  0.46502  0.21528  Biso   1.000  C
  H236     1.0000 0.21280  0.46180  0.19040  Biso   1.000  H
  C285     1.0000 0.19600  0.57350  0.44408  Biso   1.000  C
  H237     1.0000 0.22770  0.60400  0.43880  Biso   1.000  H
  C286     1.0000 0.15689  0.56581  0.48443  Biso   1.000  C
  C287     1.0000 0.16154  0.60525  0.52071  Biso   1.000  C
  H238     1.0000 0.16120  0.58660  0.54820  Biso   1.000  H
  H239     1.0000 0.21610  0.62400  0.51870  Biso   1.000  H
  C288     1.0000 0.18796  0.53634  0.41221  Biso   1.000  C
  H240     1.0000 0.21330  0.54230  0.38530  Biso   1.000  H
  O97      1.0000 0.63027  0.35920  0.93957  Biso   1.000  O
  O98      1.0000 0.63754  0.29375  0.86231  Biso   1.000  O
  N49      1.0000 0.63227  0.31956  0.96748  Biso   1.000  N
  O99      1.0000 0.55568  0.17285  0.06561  Biso   1.000  O
  C289     1.0000 0.62862  0.24058  0.02859  Biso   1.000  C
  C290     1.0000 0.62422  0.19845  0.06288  Biso   1.000  C
  O100     1.0000 0.69057  0.19317  0.08595  Biso   1.000  O
  N50      1.0000 0.64409  0.25873  0.83099  Biso   1.000  N
  C291     1.0000 0.58314  0.23596  0.99014  Biso   1.000  C
  H241     1.0000 0.55000  0.20610  0.98480  Biso   1.000  H
  C292     1.0000 0.58701  0.27584  0.95965  Biso   1.000  C
  H242     1.0000 0.55780  0.27220  0.93340  Biso   1.000  H
  C293     1.0000 0.61426  0.23144  0.75967  Biso   1.000  C
  H243     1.0000 0.58870  0.23850  0.73290  Biso   1.000  H
  C294     1.0000 0.60863  0.26800  0.79194  Biso   1.000  C
  H244     1.0000 0.58000  0.29960  0.78690  Biso   1.000  H
  C295     1.0000 0.67906  0.32456  0.00394  Biso   1.000  C
  H245     1.0000 0.71180  0.35480  0.00850  Biso   1.000  H
  C296     1.0000 0.67895  0.28498  0.03472  Biso   1.000  C
  H246     1.0000 0.71280  0.28820  0.05960  Biso   1.000  H
  C297     1.0000 0.69600  0.17650  0.80592  Biso   1.000  C
  H247     1.0000 0.72770  0.14600  0.81120  Biso   1.000  H
  C298     1.0000 0.65689  0.18419  0.76557  Biso   1.000  C
  C299     1.0000 0.66154  0.14475  0.72929  Biso   1.000  C
  H248     1.0000 0.66120  0.16340  0.70180  Biso   1.000  H
  H249     1.0000 0.71610  0.12600  0.73130  Biso   1.000  H
  C300     1.0000 0.68796  0.21366  0.83779  Biso   1.000  C
  H250     1.0000 0.71330  0.20770  0.86470  Biso   1.000  H
  O101     1.0000 0.63027  0.85920  0.43957  Biso   1.000  O
  O102     1.0000 0.63754  0.79375  0.36231  Biso   1.000  O
  N51      1.0000 0.63227  0.81956  0.46748  Biso   1.000  N
  O103     1.0000 0.55568  0.67285  0.56561  Biso   1.000  O
  C301     1.0000 0.62862  0.74058  0.52859  Biso   1.000  C
  C302     1.0000 0.62422  0.69845  0.56288  Biso   1.000  C
  O104     1.0000 0.69057  0.69317  0.58595  Biso   1.000  O
  N52      1.0000 0.64409  0.75873  0.33099  Biso   1.000  N
  C303     1.0000 0.58314  0.73596  0.49014  Biso   1.000  C
  H251     1.0000 0.55000  0.70610  0.48480  Biso   1.000  H
  C304     1.0000 0.58701  0.77584  0.45965  Biso   1.000  C
  H252     1.0000 0.55780  0.77220  0.43340  Biso   1.000  H
  C305     1.0000 0.61426  0.73144  0.25967  Biso   1.000  C
  H253     1.0000 0.58870  0.73850  0.23290  Biso   1.000  H
  C306     1.0000 0.60863  0.76800  0.29194  Biso   1.000  C
  H254     1.0000 0.58000  0.79960  0.28690  Biso   1.000  H
  C307     1.0000 0.67906  0.82456  0.50394  Biso   1.000  C
  H255     1.0000 0.71180  0.85480  0.50850  Biso   1.000  H
  C308     1.0000 0.67895  0.78498  0.53472  Biso   1.000  C
  H256     1.0000 0.71280  0.78820  0.55960  Biso   1.000  H
  C309     1.0000 0.69600  0.67650  0.30592  Biso   1.000  C
  H257     1.0000 0.72770  0.64600  0.31120  Biso   1.000  H
  C310     1.0000 0.65689  0.68419  0.26557  Biso   1.000  C
  C311     1.0000 0.66154  0.64475  0.22929  Biso   1.000  C
  H258     1.0000 0.66120  0.66340  0.20180  Biso   1.000  H
  H259     1.0000 0.71610  0.62600  0.23130  Biso   1.000  H
  C312     1.0000 0.68796  0.71366  0.33779  Biso   1.000  C
  H260     1.0000 0.71330  0.70770  0.36470  Biso   1.000  H
  O105     1.0000 0.13027  0.35920  0.43957  Biso   1.000  O
  O106     1.0000 0.13754  0.29375  0.36231  Biso   1.000  O
  N53      1.0000 0.13227  0.31956  0.46748  Biso   1.000  N
  O107     1.0000 0.05568  0.17285  0.56561  Biso   1.000  O
  C313     1.0000 0.12862  0.24058  0.52859  Biso   1.000  C
  C314     1.0000 0.12422  0.19845  0.56288  Biso   1.000  C
  O108     1.0000 0.19057  0.19317  0.58595  Biso   1.000  O
  N54      1.0000 0.14409  0.25873  0.33099  Biso   1.000  N
  C315     1.0000 0.08314  0.23596  0.49014  Biso   1.000  C
  H261     1.0000 0.05000  0.20610  0.48480  Biso   1.000  H
  C316     1.0000 0.08701  0.27584  0.45965  Biso   1.000  C
  H262     1.0000 0.05780  0.27220  0.43340  Biso   1.000  H
  C317     1.0000 0.11426  0.23144  0.25967  Biso   1.000  C
  H263     1.0000 0.08870  0.23850  0.23290  Biso   1.000  H
  C318     1.0000 0.10863  0.26800  0.29194  Biso   1.000  C
  H264     1.0000 0.08000  0.29960  0.28690  Biso   1.000  H
  C319     1.0000 0.17906  0.32456  0.50394  Biso   1.000  C
  H265     1.0000 0.21180  0.35480  0.50850  Biso   1.000  H
  C320     1.0000 0.17895  0.28498  0.53472  Biso   1.000  C
  H266     1.0000 0.21280  0.28820  0.55960  Biso   1.000  H
  C321     1.0000 0.19600  0.17650  0.30592  Biso   1.000  C
  H267     1.0000 0.22770  0.14600  0.31120  Biso   1.000  H
  C322     1.0000 0.15689  0.18419  0.26557  Biso   1.000  C
  C323     1.0000 0.16154  0.14475  0.22929  Biso   1.000  C
  H268     1.0000 0.16120  0.16340  0.20180  Biso   1.000  H
  H269     1.0000 0.21610  0.12600  0.23130  Biso   1.000  H
  C324     1.0000 0.18796  0.21366  0.33779  Biso   1.000  C
  H270     1.0000 0.21330  0.20770  0.36470  Biso   1.000  H
  O109     1.0000 0.13027  0.85920  0.93957  Biso   1.000  O
  O110     1.0000 0.13754  0.79375  0.86231  Biso   1.000  O
  N55      1.0000 0.13227  0.81956  0.96748  Biso   1.000  N
  O111     1.0000 0.05568  0.67285  0.06561  Biso   1.000  O
  C325     1.0000 0.12862  0.74058  0.02859  Biso   1.000  C
  C326     1.0000 0.12422  0.69845  0.06288  Biso   1.000  C
  O112     1.0000 0.19057  0.69317  0.08595  Biso   1.000  O
  N56      1.0000 0.14409  0.75873  0.83099  Biso   1.000  N
  C327     1.0000 0.08314  0.73596  0.99014  Biso   1.000  C
  H271     1.0000 0.05000  0.70610  0.98480  Biso   1.000  H
  C328     1.0000 0.08701  0.77584  0.95965  Biso   1.000  C
  H272     1.0000 0.05780  0.77220  0.93340  Biso   1.000  H
  C329     1.0000 0.11426  0.73144  0.75967  Biso   1.000  C
  H273     1.0000 0.08870  0.73850  0.73290  Biso   1.000  H
  C330     1.0000 0.10863  0.76800  0.79194  Biso   1.000  C
  H274     1.0000 0.08000  0.79960  0.78690  Biso   1.000  H
  C331     1.0000 0.17906  0.82456  0.00394  Biso   1.000  C
  H275     1.0000 0.21180  0.85480  0.00850  Biso   1.000  H
  C332     1.0000 0.17895  0.78498  0.03472  Biso   1.000  C
  H276     1.0000 0.21280  0.78820  0.05960  Biso   1.000  H
  C333     1.0000 0.19600  0.67650  0.80592  Biso   1.000  C
  H277     1.0000 0.22770  0.64600  0.81120  Biso   1.000  H
  C334     1.0000 0.15689  0.68419  0.76557  Biso   1.000  C
  C335     1.0000 0.16154  0.64475  0.72929  Biso   1.000  C
  H278     1.0000 0.16120  0.66340  0.70180  Biso   1.000  H
  H279     1.0000 0.21610  0.62600  0.73130  Biso   1.000  H
  C336     1.0000 0.18796  0.71366  0.83779  Biso   1.000  C
  H280     1.0000 0.21330  0.70770  0.86470  Biso   1.000  H
  O113     1.0000 0.61973  0.89080  0.93957  Biso   1.000  O
  O114     1.0000 0.61246  0.95625  0.86231  Biso   1.000  O
  N57      1.0000 0.61773  0.93044  0.96748  Biso   1.000  N
  O115     1.0000 0.69432  0.07715  0.06561  Biso   1.000  O
  C337     1.0000 0.62138  0.00942  0.02859  Biso   1.000  C
  C338     1.0000 0.62578  0.05155  0.06288  Biso   1.000  C
  O116     1.0000 0.55943  0.05683  0.08595  Biso   1.000  O
  N58      1.0000 0.60591  0.99127  0.83099  Biso   1.000  N
  C339     1.0000 0.66686  0.01404  0.99014  Biso   1.000  C
  H281     1.0000 0.70000  0.04390  0.98480  Biso   1.000  H
  C340     1.0000 0.66299  0.97416  0.95965  Biso   1.000  C
  H282     1.0000 0.69220  0.97780  0.93340  Biso   1.000  H
  C341     1.0000 0.63574  0.01856  0.75967  Biso   1.000  C
  H283     1.0000 0.66130  0.01150  0.73290  Biso   1.000  H
  C342     1.0000 0.64137  0.98200  0.79194  Biso   1.000  C
  H284     1.0000 0.67000  0.95040  0.78690  Biso   1.000  H
  C343     1.0000 0.57094  0.92544  0.00394  Biso   1.000  C
  H285     1.0000 0.53820  0.89520  0.00850  Biso   1.000  H
  C344     1.0000 0.57105  0.96502  0.03472  Biso   1.000  C
  H286     1.0000 0.53720  0.96180  0.05960  Biso   1.000  H
  C345     1.0000 0.55400  0.07350  0.80592  Biso   1.000  C
  H287     1.0000 0.52230  0.10400  0.81120  Biso   1.000  H
  C346     1.0000 0.59311  0.06581  0.76557  Biso   1.000  C
  C347     1.0000 0.58846  0.10525  0.72929  Biso   1.000  C
  H288     1.0000 0.58880  0.08660  0.70180  Biso   1.000  H
  H289     1.0000 0.53390  0.12400  0.73130  Biso   1.000  H
  C348     1.0000 0.56204  0.03634  0.83779  Biso   1.000  C
  H290     1.0000 0.53670  0.04230  0.86470  Biso   1.000  H
  O117     1.0000 0.61973  0.39080  0.43957  Biso   1.000  O
  O118     1.0000 0.61246  0.45625  0.36231  Biso   1.000  O
  N59      1.0000 0.61773  0.43044  0.46748  Biso   1.000  N
  O119     1.0000 0.69432  0.57715  0.56561  Biso   1.000  O
  C349     1.0000 0.62138  0.50942  0.52859  Biso   1.000  C
  C350     1.0000 0.62578  0.55155  0.56288  Biso   1.000  C
  O120     1.0000 0.55943  0.55683  0.58595  Biso   1.000  O
  N60      1.0000 0.60591  0.49127  0.33099  Biso   1.000  N
  C351     1.0000 0.66686  0.51404  0.49014  Biso   1.000  C
  H291     1.0000 0.70000  0.54390  0.48480  Biso   1.000  H
  C352     1.0000 0.66299  0.47416  0.45965  Biso   1.000  C
  H292     1.0000 0.69220  0.47780  0.43340  Biso   1.000  H
  C353     1.0000 0.63574  0.51856  0.25967  Biso   1.000  C
  H293     1.0000 0.66130  0.51150  0.23290  Biso   1.000  H
  C354     1.0000 0.64137  0.48200  0.29194  Biso   1.000  C
  H294     1.0000 0.67000  0.45040  0.28690  Biso   1.000  H
  C355     1.0000 0.57094  0.42544  0.50394  Biso   1.000  C
  H295     1.0000 0.53820  0.39520  0.50850  Biso   1.000  H
  C356     1.0000 0.57105  0.46502  0.53472  Biso   1.000  C
  H296     1.0000 0.53720  0.46180  0.55960  Biso   1.000  H
  C357     1.0000 0.55400  0.57350  0.30592  Biso   1.000  C
  H297     1.0000 0.52230  0.60400  0.31120  Biso   1.000  H
  C358     1.0000 0.59311  0.56581  0.26557  Biso   1.000  C
  C359     1.0000 0.58846  0.60525  0.22929  Biso   1.000  C
  H298     1.0000 0.58880  0.58660  0.20180  Biso   1.000  H
  H299     1.0000 0.53390  0.62400  0.23130  Biso   1.000  H
  C360     1.0000 0.56204  0.53634  0.33779  Biso   1.000  C
  H300     1.0000 0.53670  0.54230  0.36470  Biso   1.000  H
  O121     1.0000 0.11973  0.89080  0.43957  Biso   1.000  O
  O122     1.0000 0.11246  0.95625  0.36231  Biso   1.000  O
  N61      1.0000 0.11773  0.93044  0.46748  Biso   1.000  N
  O123     1.0000 0.19432  0.07715  0.56561  Biso   1.000  O
  C361     1.0000 0.12138  0.00942  0.52859  Biso   1.000  C
  C362     1.0000 0.12578  0.05155  0.56288  Biso   1.000  C
  O124     1.0000 0.05943  0.05683  0.58595  Biso   1.000  O
  N62      1.0000 0.10591  0.99127  0.33099  Biso   1.000  N
  C363     1.0000 0.16686  0.01404  0.49014  Biso   1.000  C
  H301     1.0000 0.20000  0.04390  0.48480  Biso   1.000  H
  C364     1.0000 0.16299  0.97416  0.45965  Biso   1.000  C
  H302     1.0000 0.19220  0.97780  0.43340  Biso   1.000  H
  C365     1.0000 0.13574  0.01856  0.25967  Biso   1.000  C
  H303     1.0000 0.16130  0.01150  0.23290  Biso   1.000  H
  C366     1.0000 0.14137  0.98200  0.29194  Biso   1.000  C
  H304     1.0000 0.17000  0.95040  0.28690  Biso   1.000  H
  C367     1.0000 0.07094  0.92544  0.50394  Biso   1.000  C
  H305     1.0000 0.03820  0.89520  0.50850  Biso   1.000  H
  C368     1.0000 0.07105  0.96502  0.53472  Biso   1.000  C
  H306     1.0000 0.03720  0.96180  0.55960  Biso   1.000  H
  C369     1.0000 0.05400  0.07350  0.30592  Biso   1.000  C
  H307     1.0000 0.02230  0.10400  0.31120  Biso   1.000  H
  C370     1.0000 0.09311  0.06581  0.26557  Biso   1.000  C
  C371     1.0000 0.08846  0.10525  0.22929  Biso   1.000  C
  H308     1.0000 0.08880  0.08660  0.20180  Biso   1.000  H
  H309     1.0000 0.03390  0.12400  0.23130  Biso   1.000  H
  C372     1.0000 0.06204  0.03634  0.33779  Biso   1.000  C
  H310     1.0000 0.03670  0.04230  0.36470  Biso   1.000  H
  O125     1.0000 0.11973  0.39080  0.93957  Biso   1.000  O
  O126     1.0000 0.11246  0.45625  0.86231  Biso   1.000  O
  N63      1.0000 0.11773  0.43044  0.96748  Biso   1.000  N
  O127     1.0000 0.19432  0.57715  0.06561  Biso   1.000  O
  C373     1.0000 0.12138  0.50942  0.02859  Biso   1.000  C
  C374     1.0000 0.12578  0.55155  0.06288  Biso   1.000  C
  O128     1.0000 0.05943  0.55683  0.08595  Biso   1.000  O
  N64      1.0000 0.10591  0.49127  0.83099  Biso   1.000  N
  C375     1.0000 0.16686  0.51404  0.99014  Biso   1.000  C
  H311     1.0000 0.20000  0.54390  0.98480  Biso   1.000  H
  C376     1.0000 0.16299  0.47416  0.95965  Biso   1.000  C
  H312     1.0000 0.19220  0.47780  0.93340  Biso   1.000  H
  C377     1.0000 0.13574  0.51856  0.75967  Biso   1.000  C
  H313     1.0000 0.16130  0.51150  0.73290  Biso   1.000  H
  C378     1.0000 0.14137  0.48200  0.79194  Biso   1.000  C
  H314     1.0000 0.17000  0.45040  0.78690  Biso   1.000  H
  C379     1.0000 0.07094  0.42544  0.00394  Biso   1.000  C
  H315     1.0000 0.03820  0.39520  0.00850  Biso   1.000  H
  C380     1.0000 0.07105  0.46502  0.03472  Biso   1.000  C
  H316     1.0000 0.03720  0.46180  0.05960  Biso   1.000  H
  C381     1.0000 0.05400  0.57350  0.80592  Biso   1.000  C
  H317     1.0000 0.02230  0.60400  0.81120  Biso   1.000  H
  C382     1.0000 0.09311  0.56581  0.76557  Biso   1.000  C
  C383     1.0000 0.08846  0.60525  0.72929  Biso   1.000  C
  H318     1.0000 0.08880  0.58660  0.70180  Biso   1.000  H
  H319     1.0000 0.03390  0.62400  0.73130  Biso   1.000  H
  C384     1.0000 0.06204  0.53634  0.83779  Biso   1.000  C
  H320     1.0000 0.03670  0.54230  0.86470  Biso   1.000  H
  La1      1.0000 0.47466  0.62500  0.62500  Biso   1.000  La
  La2      1.0000 0.97466  0.62500  0.12500  Biso   1.000  La
  La3      1.0000 0.27534  0.12500  0.62500  Biso   1.000  La
  La4      1.0000 0.77534  0.12500  0.12500  Biso   1.000  La
  La5      1.0000 0.77534  0.62500  0.62500  Biso   1.000  La
  La6      1.0000 0.27534  0.62500  0.12500  Biso   1.000  La
  La7      1.0000 0.47466  0.12500  0.12500  Biso   1.000  La
  La8      1.0000 0.97466  0.12500  0.62500  Biso   1.000  La
  La9      1.0000 0.52534  0.37500  0.37500  Biso   1.000  La
  La10     1.0000 0.02534  0.37500  0.87500  Biso   1.000  La
  La11     1.0000 0.72466  0.87500  0.37500  Biso   1.000  La
  La12     1.0000 0.22466  0.87500  0.87500  Biso   1.000  La
  La13     1.0000 0.72466  0.37500  0.87500  Biso   1.000  La
  La14     1.0000 0.22466  0.37500  0.37500  Biso   1.000  La
  La15     1.0000 0.52534  0.87500  0.87500  Biso   1.000  La
  La16     1.0000 0.02534  0.87500  0.37500  Biso   1.000  La
