data_image0
_cell_length_a       11.8103
_cell_length_b       23.221
_cell_length_c       45.467
_cell_angle_alpha    104.516
_cell_angle_beta     90
_cell_angle_gamma    90

_symmetry_space_group_name_H-M    P 1
_symmetry_int_tables_number       1

loop_
  _symmetry_equiv_pos_as_xyz
  'x, y, z'

loop_
  _atom_site_label
  _atom_site_occupancy
  _atom_site_fract_x
  _atom_site_fract_y
  _atom_site_fract_z
  _atom_site_thermal_displace_type
  _atom_site_B_iso_or_equiv
  _atom_site_type_symbol
  Cd1      1.0000 0.87421  0.58285  0.72332  Biso   1.000  Cd
  Cd2      1.0000 0.57879  0.90425  0.05966  Biso   1.000  Cd
  Cd3      1.0000 0.62579  0.58285  0.22332  Biso   1.000  Cd
  Cd4      1.0000 0.92121  0.90425  0.55966  Biso   1.000  Cd
  H1       1.0000 0.83370  0.75900  0.81580  Biso   1.000  H
  H2       1.0000 0.78180  0.80070  0.86470  Biso   1.000  H
  H3       1.0000 0.72650  0.63850  0.87690  Biso   1.000  H
  H4       1.0000 0.78410  0.59730  0.82850  Biso   1.000  H
  H5       1.0000 0.60580  0.87420  0.95020  Biso   1.000  H
  H6       1.0000 0.64350  0.82710  0.90070  Biso   1.000  H
  H7       1.0000 0.73250  0.68420  0.92520  Biso   1.000  H
  H8       1.0000 0.67060  0.72720  0.97260  Biso   1.000  H
  H9       1.0000 0.91480  0.40440  0.63020  Biso   1.000  H
  H10      1.0000 0.92910  0.30380  0.60970  Biso   1.000  H
  H11      1.0000 0.90830  0.27350  0.69100  Biso   1.000  H
  H12      1.0000 0.89300  0.37380  0.71290  Biso   1.000  H
  H13      1.0000 0.96100  0.08560  0.64900  Biso   1.000  H
  H14      1.0000 0.96860  0.18470  0.67010  Biso   1.000  H
  H15      1.0000 0.86780  0.21500  0.59280  Biso   1.000  H
  H16      1.0000 0.85900  0.11550  0.57210  Biso   1.000  H
  H17      1.0000 0.88350  0.58850  0.65320  Biso   1.000  H
  H18      1.0000 0.89390  0.64960  0.62140  Biso   1.000  H
  H19      1.0000 0.87890  0.78940  0.69400  Biso   1.000  H
  H20      1.0000 0.86450  0.72430  0.72360  Biso   1.000  H
  H21      1.0000 0.87560  0.77300  0.56350  Biso   1.000  H
  H22      1.0000 0.85720  0.70950  0.59420  Biso   1.000  H
  H23      1.0000 0.95360  0.83970  0.66380  Biso   1.000  H
  H24      1.0000 0.96220  0.90060  0.63130  Biso   1.000  H
  H25      1.0000 0.65300  0.49800  0.70360  Biso   1.000  H
  H26      1.0000 0.45950  0.49370  0.70410  Biso   1.000  H
  H27      1.0000 0.46080  0.67150  0.73700  Biso   1.000  H
  H28      1.0000 0.65320  0.66940  0.73610  Biso   1.000  H
  H29      1.0000 0.09310  0.66550  0.71710  Biso   1.000  H
  H30      1.0000 0.28620  0.66700  0.71540  Biso   1.000  H
  H31      1.0000 0.28660  0.50020  0.72640  Biso   1.000  H
  H32      1.0000 0.09410  0.50400  0.72780  Biso   1.000  H
  H33      1.0000 0.36210  0.93480  0.10210  Biso   1.000  H
  H34      1.0000 0.16780  0.93250  0.10470  Biso   1.000  H
  H35      1.0000 0.16570  0.85260  0.01740  Biso   1.000  H
  H36      1.0000 0.35740  0.85720  0.01700  Biso   1.000  H
  H37      1.0000 0.80170  0.82900  0.03010  Biso   1.000  H
  H38      1.0000 0.99240  0.82270  0.03110  Biso   1.000  H
  H39      1.0000 0.99500  0.96050  0.09630  Biso   1.000  H
  H40      1.0000 0.80250  0.96260  0.09490  Biso   1.000  H
  H41      1.0000 0.66630  0.75900  0.31580  Biso   1.000  H
  H42      1.0000 0.71820  0.80070  0.36470  Biso   1.000  H
  H43      1.0000 0.77350  0.63850  0.37690  Biso   1.000  H
  H44      1.0000 0.71590  0.59730  0.32850  Biso   1.000  H
  H45      1.0000 0.89420  0.87420  0.45020  Biso   1.000  H
  H46      1.0000 0.85650  0.82710  0.40070  Biso   1.000  H
  H47      1.0000 0.76750  0.68420  0.42520  Biso   1.000  H
  H48      1.0000 0.82940  0.72720  0.47260  Biso   1.000  H
  H49      1.0000 0.58520  0.40440  0.13020  Biso   1.000  H
  H50      1.0000 0.57090  0.30380  0.10970  Biso   1.000  H
  H51      1.0000 0.59170  0.27350  0.19100  Biso   1.000  H
  H52      1.0000 0.60700  0.37380  0.21290  Biso   1.000  H
  H53      1.0000 0.53900  0.08560  0.14900  Biso   1.000  H
  H54      1.0000 0.53140  0.18470  0.17010  Biso   1.000  H
  H55      1.0000 0.63220  0.21500  0.09280  Biso   1.000  H
  H56      1.0000 0.64100  0.11550  0.07210  Biso   1.000  H
  H57      1.0000 0.61650  0.58850  0.15320  Biso   1.000  H
  H58      1.0000 0.60610  0.64960  0.12140  Biso   1.000  H
  H59      1.0000 0.62110  0.78940  0.19400  Biso   1.000  H
  H60      1.0000 0.63550  0.72430  0.22360  Biso   1.000  H
  H61      1.0000 0.62440  0.77300  0.06350  Biso   1.000  H
  H62      1.0000 0.64280  0.70950  0.09420  Biso   1.000  H
  H63      1.0000 0.54640  0.83970  0.16380  Biso   1.000  H
  H64      1.0000 0.53780  0.90060  0.13130  Biso   1.000  H
  H65      1.0000 0.84700  0.49800  0.20360  Biso   1.000  H
  H66      1.0000 0.04050  0.49370  0.20410  Biso   1.000  H
  H67      1.0000 0.03920  0.67150  0.23700  Biso   1.000  H
  H68      1.0000 0.84680  0.66940  0.23610  Biso   1.000  H
  H69      1.0000 0.40690  0.66550  0.21710  Biso   1.000  H
  H70      1.0000 0.21380  0.66700  0.21540  Biso   1.000  H
  H71      1.0000 0.21340  0.50020  0.22640  Biso   1.000  H
  H72      1.0000 0.40590  0.50400  0.22780  Biso   1.000  H
  H73      1.0000 0.13790  0.93480  0.60210  Biso   1.000  H
  H74      1.0000 0.33220  0.93250  0.60470  Biso   1.000  H
  H75      1.0000 0.33430  0.85260  0.51740  Biso   1.000  H
  H76      1.0000 0.14260  0.85720  0.51700  Biso   1.000  H
  H77      1.0000 0.69830  0.82900  0.53010  Biso   1.000  H
  H78      1.0000 0.50760  0.82270  0.53110  Biso   1.000  H
  H79      1.0000 0.50500  0.96050  0.59630  Biso   1.000  H
  H80      1.0000 0.69750  0.96260  0.59490  Biso   1.000  H
  C1       1.0000 0.81210  0.67327  0.81621  Biso   1.000  C
  C2       1.0000 0.81200  0.73449  0.82810  Biso   1.000  C
  C3       1.0000 0.78080  0.75957  0.85749  Biso   1.000  C
  C4       1.0000 0.74790  0.72495  0.87665  Biso   1.000  C
  C5       1.0000 0.74890  0.66318  0.86467  Biso   1.000  C
  C6       1.0000 0.78190  0.63851  0.83555  Biso   1.000  C
  C7       1.0000 0.63940  0.80627  0.96776  Biso   1.000  C
  C8       1.0000 0.63100  0.83500  0.94543  Biso   1.000  C
  C9       1.0000 0.65890  0.80770  0.91581  Biso   1.000  C
  C10      1.0000 0.70930  0.75206  0.90799  Biso   1.000  C
  C11      1.0000 0.70820  0.72360  0.92962  Biso   1.000  C
  C12      1.0000 0.67210  0.75020  0.95854  Biso   1.000  C
  C13      1.0000 0.84510  0.64639  0.78375  Biso   1.000  C
  C14      1.0000 0.60370  0.83660  0.99979  Biso   1.000  C
  C15      1.0000 0.90640  0.40034  0.67411  Biso   1.000  C
  C16      1.0000 0.91430  0.37842  0.64282  Biso   1.000  C
  C17      1.0000 0.92140  0.31776  0.63062  Biso   1.000  C
  C18      1.0000 0.91770  0.27680  0.64807  Biso   1.000  C
  C19      1.0000 0.90910  0.29968  0.67855  Biso   1.000  C
  C20      1.0000 0.90140  0.36028  0.69201  Biso   1.000  C
  C21      1.0000 0.92050  0.08917  0.60711  Biso   1.000  C
  C22      1.0000 0.94520  0.11169  0.63699  Biso   1.000  C
  C23      1.0000 0.94760  0.17130  0.64982  Biso   1.000  C
  C24      1.0000 0.92030  0.21158  0.63407  Biso   1.000  C
  C25      1.0000 0.88820  0.18900  0.60450  Biso   1.000  C
  C26      1.0000 0.88560  0.12930  0.59183  Biso   1.000  C
  C27      1.0000 0.89270  0.46546  0.68852  Biso   1.000  C
  C28      1.0000 0.92370  0.02230  0.59285  Biso   1.000  C
  C29      1.0000 0.88170  0.62946  0.66144  Biso   1.000  C
  C30      1.0000 0.88880  0.66596  0.64224  Biso   1.000  C
  C31      1.0000 0.88850  0.72720  0.65344  Biso   1.000  C
  C32      1.0000 0.87930  0.74867  0.68515  Biso   1.000  C
  C33      1.0000 0.87120  0.70923  0.70269  Biso   1.000  C
  C34      1.0000 0.89020  0.78736  0.58414  Biso   1.000  C
  C35      1.0000 0.87950  0.74860  0.60258  Biso   1.000  C
  C36      1.0000 0.90110  0.76693  0.63276  Biso   1.000  C
  C37      1.0000 0.93510  0.82491  0.64345  Biso   1.000  C
  C38      1.0000 0.94140  0.86109  0.62355  Biso   1.000  C
  C39      1.0000 0.61310  0.53319  0.71089  Biso   1.000  C
  C40      1.0000 0.49640  0.53003  0.71054  Biso   1.000  C
  C41      1.0000 0.43550  0.58285  0.72015  Biso   1.000  C
  C42      1.0000 0.49810  0.63538  0.73016  Biso   1.000  C
  C43      1.0000 0.61370  0.63376  0.72984  Biso   1.000  C
  C44      1.0000 0.13280  0.63198  0.71899  Biso   1.000  C
  C45      1.0000 0.24890  0.63326  0.71790  Biso   1.000  C
  C46      1.0000 0.31080  0.58318  0.72061  Biso   1.000  C
  C47      1.0000 0.24930  0.53430  0.72445  Biso   1.000  C
  C48      1.0000 0.13360  0.53711  0.72528  Biso   1.000  C
  C49      1.0000 0.32180  0.91860  0.08437  Biso   1.000  C
  C50      1.0000 0.20410  0.91810  0.08618  Biso   1.000  C
  C51      1.0000 0.14250  0.89630  0.06028  Biso   1.000  C
  C52      1.0000 0.20350  0.87150  0.03516  Biso   1.000  C
  C53      1.0000 0.31940  0.87360  0.03505  Biso   1.000  C
  C54      1.0000 0.84020  0.85930  0.04370  Biso   1.000  C
  C55      1.0000 0.95750  0.85560  0.04370  Biso   1.000  C
  C56      1.0000 0.01820  0.89500  0.06025  Biso   1.000  C
  C57      1.0000 0.95760  0.93340  0.08080  Biso   1.000  C
  C58      1.0000 0.83990  0.93440  0.07994  Biso   1.000  C
  C59      1.0000 0.68790  0.67327  0.31621  Biso   1.000  C
  C60      1.0000 0.68800  0.73449  0.32810  Biso   1.000  C
  C61      1.0000 0.71920  0.75957  0.35749  Biso   1.000  C
  C62      1.0000 0.75210  0.72495  0.37665  Biso   1.000  C
  C63      1.0000 0.75110  0.66318  0.36467  Biso   1.000  C
  C64      1.0000 0.71810  0.63851  0.33555  Biso   1.000  C
  C65      1.0000 0.86060  0.80627  0.46776  Biso   1.000  C
  C66      1.0000 0.86900  0.83500  0.44543  Biso   1.000  C
  C67      1.0000 0.84110  0.80770  0.41581  Biso   1.000  C
  C68      1.0000 0.79070  0.75206  0.40799  Biso   1.000  C
  C69      1.0000 0.79180  0.72360  0.42962  Biso   1.000  C
  C70      1.0000 0.82790  0.75020  0.45854  Biso   1.000  C
  C71      1.0000 0.65490  0.64639  0.28375  Biso   1.000  C
  C72      1.0000 0.89630  0.83660  0.49979  Biso   1.000  C
  C73      1.0000 0.59360  0.40034  0.17411  Biso   1.000  C
  C74      1.0000 0.58570  0.37842  0.14282  Biso   1.000  C
  C75      1.0000 0.57860  0.31776  0.13062  Biso   1.000  C
  C76      1.0000 0.58230  0.27680  0.14807  Biso   1.000  C
  C77      1.0000 0.59090  0.29968  0.17855  Biso   1.000  C
  C78      1.0000 0.59860  0.36028  0.19201  Biso   1.000  C
  C79      1.0000 0.57950  0.08917  0.10711  Biso   1.000  C
  C80      1.0000 0.55480  0.11169  0.13699  Biso   1.000  C
  C81      1.0000 0.55240  0.17130  0.14982  Biso   1.000  C
  C82      1.0000 0.57970  0.21158  0.13407  Biso   1.000  C
  C83      1.0000 0.61180  0.18900  0.10450  Biso   1.000  C
  C84      1.0000 0.61440  0.12930  0.09183  Biso   1.000  C
  C85      1.0000 0.60730  0.46546  0.18852  Biso   1.000  C
  C86      1.0000 0.57630  0.02230  0.09285  Biso   1.000  C
  C87      1.0000 0.61830  0.62946  0.16144  Biso   1.000  C
  C88      1.0000 0.61120  0.66596  0.14224  Biso   1.000  C
  C89      1.0000 0.61150  0.72720  0.15344  Biso   1.000  C
  C90      1.0000 0.62070  0.74867  0.18515  Biso   1.000  C
  C91      1.0000 0.62880  0.70923  0.20269  Biso   1.000  C
  C92      1.0000 0.60980  0.78736  0.08414  Biso   1.000  C
  C93      1.0000 0.62050  0.74860  0.10258  Biso   1.000  C
  C94      1.0000 0.59890  0.76693  0.13276  Biso   1.000  C
  C95      1.0000 0.56490  0.82491  0.14345  Biso   1.000  C
  C96      1.0000 0.55860  0.86109  0.12355  Biso   1.000  C
  C97      1.0000 0.88690  0.53319  0.21089  Biso   1.000  C
  C98      1.0000 0.00360  0.53003  0.21054  Biso   1.000  C
  C99      1.0000 0.06450  0.58285  0.22015  Biso   1.000  C
  C100     1.0000 0.00190  0.63538  0.23016  Biso   1.000  C
  C101     1.0000 0.88630  0.63376  0.22984  Biso   1.000  C
  C102     1.0000 0.36720  0.63198  0.21899  Biso   1.000  C
  C103     1.0000 0.25110  0.63326  0.21790  Biso   1.000  C
  C104     1.0000 0.18920  0.58318  0.22061  Biso   1.000  C
  C105     1.0000 0.25070  0.53430  0.22445  Biso   1.000  C
  C106     1.0000 0.36640  0.53711  0.22528  Biso   1.000  C
  C107     1.0000 0.17820  0.91860  0.58437  Biso   1.000  C
  C108     1.0000 0.29590  0.91810  0.58618  Biso   1.000  C
  C109     1.0000 0.35750  0.89630  0.56028  Biso   1.000  C
  C110     1.0000 0.29650  0.87150  0.53516  Biso   1.000  C
  C111     1.0000 0.18060  0.87360  0.53505  Biso   1.000  C
  C112     1.0000 0.65980  0.85930  0.54370  Biso   1.000  C
  C113     1.0000 0.54250  0.85560  0.54370  Biso   1.000  C
  C114     1.0000 0.48180  0.89500  0.56025  Biso   1.000  C
  C115     1.0000 0.54240  0.93340  0.58080  Biso   1.000  C
  C116     1.0000 0.66010  0.93440  0.57994  Biso   1.000  C
  N1       1.0000 0.87210  0.64992  0.69177  Biso   1.000  N
  N2       1.0000 0.91960  0.84296  0.59405  Biso   1.000  N
  N3       1.0000 0.67310  0.58302  0.72084  Biso   1.000  N
  N4       1.0000 0.07320  0.58466  0.72268  Biso   1.000  N
  N5       1.0000 0.37940  0.89778  0.05944  Biso   1.000  N
  N6       1.0000 0.78110  0.89968  0.06017  Biso   1.000  N
  N7       1.0000 0.62790  0.64992  0.19177  Biso   1.000  N
  N8       1.0000 0.58040  0.84296  0.09405  Biso   1.000  N
  N9       1.0000 0.82690  0.58302  0.22084  Biso   1.000  N
  N10      1.0000 0.42680  0.58466  0.22268  Biso   1.000  N
  N11      1.0000 0.12060  0.89778  0.55944  Biso   1.000  N
  N12      1.0000 0.71890  0.89968  0.56017  Biso   1.000  N
  O1       1.0000 0.84750  0.67794  0.76524  Biso   1.000  O
  O2       1.0000 0.86630  0.59123  0.77558  Biso   1.000  O
  O3       1.0000 0.58910  0.89072  0.00702  Biso   1.000  O
  O4       1.0000 0.59290  0.80557  0.01829  Biso   1.000  O
  O5       1.0000 0.89410  0.50121  0.67215  Biso   1.000  O
  O6       1.0000 0.87950  0.48190  0.71673  Biso   1.000  O
  O7       1.0000 0.91280  0.00700  0.56453  Biso   1.000  O
  O8       1.0000 0.93130  0.98664  0.60796  Biso   1.000  O
  O9       1.0000 0.65250  0.67794  0.26524  Biso   1.000  O
  O10      1.0000 0.63370  0.59123  0.27558  Biso   1.000  O
  O11      1.0000 0.91090  0.89072  0.50702  Biso   1.000  O
  O12      1.0000 0.90710  0.80557  0.51829  Biso   1.000  O
  O13      1.0000 0.60590  0.50121  0.17215  Biso   1.000  O
  O14      1.0000 0.62050  0.48190  0.21673  Biso   1.000  O
  O15      1.0000 0.58720  0.00700  0.06453  Biso   1.000  O
  O16      1.0000 0.56870  0.98664  0.10796  Biso   1.000  O
  Cd5      1.0000 0.63216  0.12778  0.73621  Biso   1.000  Cd
  Cd6      1.0000 0.91196  0.45184  0.07349  Biso   1.000  Cd
  Cd7      1.0000 0.86784  0.12778  0.23621  Biso   1.000  Cd
  Cd8      1.0000 0.58804  0.45184  0.57349  Biso   1.000  Cd
  H81      1.0000 0.75030  0.14860  0.84040  Biso   1.000  H
  H82      1.0000 0.79520  0.19540  0.89030  Biso   1.000  H
  H83      1.0000 0.70350  0.35130  0.87650  Biso   1.000  H
  H84      1.0000 0.65940  0.30550  0.82700  Biso   1.000  H
  H85      1.0000 0.80300  0.28420  0.98820  Biso   1.000  H
  H86      1.0000 0.75200  0.23940  0.93860  Biso   1.000  H
  H87      1.0000 0.83380  0.38690  0.91400  Biso   1.000  H
  H88      1.0000 0.89200  0.43150  0.96300  Biso   1.000  H
  H89      1.0000 0.49260  0.92740  0.71770  Biso   1.000  H
  H90      1.0000 0.46670  0.82720  0.69300  Biso   1.000  H
  H91      1.0000 0.68890  0.84410  0.63010  Biso   1.000  H
  H92      1.0000 0.69880  0.94460  0.65140  Biso   1.000  H
  H93      1.0000 0.55490  0.63180  0.66310  Biso   1.000  H
  H94      1.0000 0.54650  0.73500  0.68390  Biso   1.000  H
  H95      1.0000 0.59270  0.76070  0.60160  Biso   1.000  H
  H96      1.0000 0.59950  0.66050  0.58110  Biso   1.000  H
  H97      1.0000 0.61380  0.26690  0.73550  Biso   1.000  H
  H98      1.0000 0.60530  0.33080  0.70530  Biso   1.000  H
  H99      1.0000 0.62120  0.19310  0.63300  Biso   1.000  H
  H100     1.0000 0.64170  0.13240  0.66530  Biso   1.000  H
  H101     1.0000 0.61810  0.44750  0.64300  Biso   1.000  H
  H102     1.0000 0.62830  0.38800  0.67540  Biso   1.000  H
  H103     1.0000 0.55800  0.25070  0.60660  Biso   1.000  H
  H104     1.0000 0.54770  0.31510  0.57570  Biso   1.000  H
  H105     1.0000 0.40780  0.05500  0.74900  Biso   1.000  H
  H106     1.0000 0.21450  0.05060  0.74470  Biso   1.000  H
  H107     1.0000 0.22100  0.20640  0.72330  Biso   1.000  H
  H108     1.0000 0.41350  0.20630  0.72710  Biso   1.000  H
  H109     1.0000 0.85260  0.04280  0.71370  Biso   1.000  H
  H110     1.0000 0.04530  0.03970  0.71420  Biso   1.000  H
  H111     1.0000 0.04390  0.21600  0.74660  Biso   1.000  H
  H112     1.0000 0.85210  0.21310  0.74530  Biso   1.000  H
  H113     1.0000 0.12870  0.49650  0.11660  Biso   1.000  H
  H114     1.0000 0.32060  0.49190  0.11930  Biso   1.000  H
  H115     1.0000 0.32980  0.40390  0.03280  Biso   1.000  H
  H116     1.0000 0.13340  0.40740  0.03210  Biso   1.000  H
  H117     1.0000 0.69100  0.36860  0.04960  Biso   1.000  H
  H118     1.0000 0.49860  0.36870  0.04770  Biso   1.000  H
  H119     1.0000 0.49890  0.52570  0.10770  Biso   1.000  H
  H120     1.0000 0.69070  0.52340  0.10680  Biso   1.000  H
  H121     1.0000 0.74970  0.14860  0.34040  Biso   1.000  H
  H122     1.0000 0.70480  0.19540  0.39030  Biso   1.000  H
  H123     1.0000 0.79650  0.35130  0.37650  Biso   1.000  H
  H124     1.0000 0.84060  0.30550  0.32700  Biso   1.000  H
  H125     1.0000 0.69700  0.28420  0.48820  Biso   1.000  H
  H126     1.0000 0.74800  0.23940  0.43860  Biso   1.000  H
  H127     1.0000 0.66620  0.38690  0.41400  Biso   1.000  H
  H128     1.0000 0.60800  0.43150  0.46300  Biso   1.000  H
  H129     1.0000 0.00740  0.92740  0.21770  Biso   1.000  H
  H130     1.0000 0.03330  0.82720  0.19300  Biso   1.000  H
  H131     1.0000 0.81110  0.84410  0.13010  Biso   1.000  H
  H132     1.0000 0.80120  0.94460  0.15140  Biso   1.000  H
  H133     1.0000 0.94510  0.63180  0.16310  Biso   1.000  H
  H134     1.0000 0.95350  0.73500  0.18390  Biso   1.000  H
  H135     1.0000 0.90730  0.76070  0.10160  Biso   1.000  H
  H136     1.0000 0.90050  0.66050  0.08110  Biso   1.000  H
  H137     1.0000 0.88620  0.26690  0.23550  Biso   1.000  H
  H138     1.0000 0.89470  0.33080  0.20530  Biso   1.000  H
  H139     1.0000 0.87880  0.19310  0.13300  Biso   1.000  H
  H140     1.0000 0.85830  0.13240  0.16530  Biso   1.000  H
  H141     1.0000 0.88190  0.44750  0.14300  Biso   1.000  H
  H142     1.0000 0.87170  0.38800  0.17540  Biso   1.000  H
  H143     1.0000 0.94200  0.25070  0.10660  Biso   1.000  H
  H144     1.0000 0.95230  0.31510  0.07570  Biso   1.000  H
  H145     1.0000 0.09220  0.05500  0.24900  Biso   1.000  H
  H146     1.0000 0.28550  0.05060  0.24470  Biso   1.000  H
  H147     1.0000 0.27900  0.20640  0.22330  Biso   1.000  H
  H148     1.0000 0.08650  0.20630  0.22710  Biso   1.000  H
  H149     1.0000 0.64740  0.04280  0.21370  Biso   1.000  H
  H150     1.0000 0.45470  0.03970  0.21420  Biso   1.000  H
  H151     1.0000 0.45610  0.21600  0.24660  Biso   1.000  H
  H152     1.0000 0.64790  0.21310  0.24530  Biso   1.000  H
  H153     1.0000 0.37130  0.49650  0.61660  Biso   1.000  H
  H154     1.0000 0.17940  0.49190  0.61930  Biso   1.000  H
  H155     1.0000 0.17020  0.40390  0.53280  Biso   1.000  H
  H156     1.0000 0.36660  0.40740  0.53210  Biso   1.000  H
  H157     1.0000 0.80900  0.36860  0.54960  Biso   1.000  H
  H158     1.0000 0.00140  0.36870  0.54770  Biso   1.000  H
  H159     1.0000 0.00110  0.52570  0.60770  Biso   1.000  H
  H160     1.0000 0.80930  0.52340  0.60680  Biso   1.000  H
  C117     1.0000 0.69910  0.22221  0.82815  Biso   1.000  C
  C118     1.0000 0.74080  0.18947  0.84745  Biso   1.000  C
  C119     1.0000 0.76840  0.21780  0.87747  Biso   1.000  C
  C120     1.0000 0.75650  0.27861  0.88827  Biso   1.000  C
  C121     1.0000 0.71410  0.31052  0.86937  Biso   1.000  C
  C122     1.0000 0.68680  0.28271  0.83962  Biso   1.000  C
  C123     1.0000 0.85220  0.36300  0.98077  Biso   1.000  C
  C124     1.0000 0.81020  0.30500  0.97326  Biso   1.000  C
  C125     1.0000 0.77920  0.27820  0.94335  Biso   1.000  C
  C126     1.0000 0.78770  0.30780  0.92068  Biso   1.000  C
  C127     1.0000 0.82870  0.36564  0.92884  Biso   1.000  C
  C128     1.0000 0.86260  0.39310  0.95842  Biso   1.000  C
  C129     1.0000 0.66930  0.19290  0.79591  Biso   1.000  C
  C130     1.0000 0.88300  0.39070  0.01330  Biso   1.000  C
  C131     1.0000 0.59670  0.94678  0.68648  Biso   1.000  C
  C132     1.0000 0.52920  0.91130  0.69937  Biso   1.000  C
  C133     1.0000 0.51560  0.85040  0.68484  Biso   1.000  C
  C134     1.0000 0.57430  0.82510  0.65862  Biso   1.000  C
  C135     1.0000 0.64530  0.86080  0.64718  Biso   1.000  C
  C136     1.0000 0.65350  0.92110  0.66045  Biso   1.000  C
  C137     1.0000 0.57570  0.63641  0.61988  Biso   1.000  C
  C138     1.0000 0.56180  0.65779  0.65064  Biso   1.000  C
  C139     1.0000 0.55820  0.72026  0.66315  Biso   1.000  C
  C140     1.0000 0.57160  0.75874  0.64546  Biso   1.000  C
  C141     1.0000 0.58540  0.73501  0.61424  Biso   1.000  C
  C142     1.0000 0.58860  0.67509  0.60188  Biso   1.000  C
  C143     1.0000 0.61030  0.01263  0.70149  Biso   1.000  C
  C144     1.0000 0.58260  0.57022  0.60665  Biso   1.000  C
  C145     1.0000 0.61730  0.25174  0.71455  Biso   1.000  C
  C146     1.0000 0.60990  0.29011  0.69646  Biso   1.000  C
  C147     1.0000 0.60910  0.26948  0.66484  Biso   1.000  C
  C148     1.0000 0.62080  0.20957  0.65392  Biso   1.000  C
  C149     1.0000 0.63190  0.17298  0.67348  Biso   1.000  C
  C150     1.0000 0.60610  0.40694  0.63526  Biso   1.000  C
  C151     1.0000 0.61300  0.37122  0.65496  Biso   1.000  C
  C152     1.0000 0.59780  0.31113  0.64490  Biso   1.000  C
  C153     1.0000 0.57170  0.29103  0.61470  Biso   1.000  C
  C154     1.0000 0.56540  0.33003  0.59613  Biso   1.000  C
  C155     1.0000 0.36980  0.08560  0.74329  Biso   1.000  C
  C156     1.0000 0.25350  0.08300  0.74121  Biso   1.000  C
  C157     1.0000 0.19540  0.12917  0.73379  Biso   1.000  C
  C158     1.0000 0.25730  0.17475  0.72844  Biso   1.000  C
  C159     1.0000 0.37330  0.17428  0.73062  Biso   1.000  C
  C160     1.0000 0.89170  0.07820  0.72099  Biso   1.000  C
  C161     1.0000 0.00790  0.07580  0.72114  Biso   1.000  C
  C162     1.0000 0.06880  0.12813  0.73191  Biso   1.000  C
  C163     1.0000 0.00710  0.17957  0.74030  Biso   1.000  C
  C164     1.0000 0.89180  0.17750  0.73938  Biso   1.000  C
  C165     1.0000 0.16910  0.47690  0.09943  Biso   1.000  C
  C166     1.0000 0.28480  0.47530  0.10088  Biso   1.000  C
  C167     1.0000 0.34900  0.45033  0.07616  Biso   1.000  C
  C168     1.0000 0.29060  0.42330  0.05017  Biso   1.000  C
  C169     1.0000 0.17170  0.42510  0.04997  Biso   1.000  C
  C170     1.0000 0.65210  0.40170  0.06078  Biso   1.000  C
  C171     1.0000 0.53630  0.40130  0.05983  Biso   1.000  C
  C172     1.0000 0.47470  0.44897  0.07673  Biso   1.000  C
  C173     1.0000 0.53590  0.49370  0.09488  Biso   1.000  C
  C174     1.0000 0.65150  0.49180  0.09434  Biso   1.000  C
  C175     1.0000 0.80090  0.22221  0.32815  Biso   1.000  C
  C176     1.0000 0.75920  0.18947  0.34745  Biso   1.000  C
  C177     1.0000 0.73160  0.21780  0.37747  Biso   1.000  C
  C178     1.0000 0.74350  0.27861  0.38827  Biso   1.000  C
  C179     1.0000 0.78590  0.31052  0.36937  Biso   1.000  C
  C180     1.0000 0.81320  0.28271  0.33962  Biso   1.000  C
  C181     1.0000 0.64780  0.36300  0.48077  Biso   1.000  C
  C182     1.0000 0.68980  0.30500  0.47326  Biso   1.000  C
  C183     1.0000 0.72080  0.27820  0.44335  Biso   1.000  C
  C184     1.0000 0.71230  0.30780  0.42068  Biso   1.000  C
  C185     1.0000 0.67130  0.36564  0.42884  Biso   1.000  C
  C186     1.0000 0.63740  0.39310  0.45842  Biso   1.000  C
  C187     1.0000 0.83070  0.19290  0.29591  Biso   1.000  C
  C188     1.0000 0.61700  0.39070  0.51330  Biso   1.000  C
  C189     1.0000 0.90330  0.94678  0.18648  Biso   1.000  C
  C190     1.0000 0.97080  0.91130  0.19937  Biso   1.000  C
  C191     1.0000 0.98440  0.85040  0.18484  Biso   1.000  C
  C192     1.0000 0.92570  0.82510  0.15862  Biso   1.000  C
  C193     1.0000 0.85470  0.86080  0.14718  Biso   1.000  C
  C194     1.0000 0.84650  0.92110  0.16045  Biso   1.000  C
  C195     1.0000 0.92430  0.63641  0.11988  Biso   1.000  C
  C196     1.0000 0.93820  0.65779  0.15064  Biso   1.000  C
  C197     1.0000 0.94180  0.72026  0.16315  Biso   1.000  C
  C198     1.0000 0.92840  0.75874  0.14546  Biso   1.000  C
  C199     1.0000 0.91460  0.73501  0.11424  Biso   1.000  C
  C200     1.0000 0.91140  0.67509  0.10188  Biso   1.000  C
  C201     1.0000 0.88970  0.01263  0.20149  Biso   1.000  C
  C202     1.0000 0.91740  0.57022  0.10665  Biso   1.000  C
  C203     1.0000 0.88270  0.25174  0.21455  Biso   1.000  C
  C204     1.0000 0.89010  0.29011  0.19646  Biso   1.000  C
  C205     1.0000 0.89090  0.26948  0.16484  Biso   1.000  C
  C206     1.0000 0.87920  0.20957  0.15392  Biso   1.000  C
  C207     1.0000 0.86810  0.17298  0.17348  Biso   1.000  C
  C208     1.0000 0.89390  0.40694  0.13526  Biso   1.000  C
  C209     1.0000 0.88700  0.37122  0.15496  Biso   1.000  C
  C210     1.0000 0.90220  0.31113  0.14490  Biso   1.000  C
  C211     1.0000 0.92830  0.29103  0.11470  Biso   1.000  C
  C212     1.0000 0.93460  0.33003  0.09613  Biso   1.000  C
  C213     1.0000 0.13020  0.08560  0.24329  Biso   1.000  C
  C214     1.0000 0.24650  0.08300  0.24121  Biso   1.000  C
  C215     1.0000 0.30460  0.12917  0.23379  Biso   1.000  C
  C216     1.0000 0.24270  0.17475  0.22844  Biso   1.000  C
  C217     1.0000 0.12670  0.17428  0.23062  Biso   1.000  C
  C218     1.0000 0.60830  0.07820  0.22099  Biso   1.000  C
  C219     1.0000 0.49210  0.07580  0.22114  Biso   1.000  C
  C220     1.0000 0.43120  0.12813  0.23191  Biso   1.000  C
  C221     1.0000 0.49290  0.17957  0.24030  Biso   1.000  C
  C222     1.0000 0.60820  0.17750  0.23938  Biso   1.000  C
  C223     1.0000 0.33090  0.47690  0.59943  Biso   1.000  C
  C224     1.0000 0.21520  0.47530  0.60088  Biso   1.000  C
  C225     1.0000 0.15100  0.45033  0.57616  Biso   1.000  C
  C226     1.0000 0.20940  0.42330  0.55017  Biso   1.000  C
  C227     1.0000 0.32830  0.42510  0.54997  Biso   1.000  C
  C228     1.0000 0.84790  0.40170  0.56078  Biso   1.000  C
  C229     1.0000 0.96370  0.40130  0.55983  Biso   1.000  C
  C230     1.0000 0.02530  0.44897  0.57673  Biso   1.000  C
  C231     1.0000 0.96410  0.49370  0.59488  Biso   1.000  C
  C232     1.0000 0.84850  0.49180  0.59434  Biso   1.000  C
  N13      1.0000 0.62930  0.19311  0.70340  Biso   1.000  N
  N14      1.0000 0.58370  0.38794  0.60650  Biso   1.000  N
  N15      1.0000 0.43090  0.13027  0.73753  Biso   1.000  N
  N16      1.0000 0.83230  0.12685  0.73044  Biso   1.000  N
  N17      1.0000 0.11270  0.45111  0.07429  Biso   1.000  N
  N18      1.0000 0.71140  0.44771  0.07705  Biso   1.000  N
  N19      1.0000 0.87070  0.19311  0.20340  Biso   1.000  N
  N20      1.0000 0.91630  0.38794  0.10650  Biso   1.000  N
  N21      1.0000 0.06910  0.13027  0.23753  Biso   1.000  N
  N22      1.0000 0.66770  0.12685  0.23044  Biso   1.000  N
  N23      1.0000 0.38730  0.45111  0.57429  Biso   1.000  N
  N24      1.0000 0.78860  0.44771  0.57705  Biso   1.000  N
  O17      1.0000 0.66020  0.13694  0.78800  Biso   1.000  O
  O18      1.0000 0.65410  0.22443  0.77744  Biso   1.000  O
  O19      1.0000 0.89940  0.36042  0.03172  Biso   1.000  O
  O20      1.0000 0.89330  0.44595  0.02107  Biso   1.000  O
  O21      1.0000 0.61500  0.02583  0.73021  Biso   1.000  O
  O22      1.0000 0.62230  0.04914  0.68772  Biso   1.000  O
  O23      1.0000 0.57550  0.53567  0.62313  Biso   1.000  O
  O24      1.0000 0.59270  0.55133  0.57806  Biso   1.000  O
  O25      1.0000 0.83980  0.13694  0.28800  Biso   1.000  O
  O26      1.0000 0.84590  0.22443  0.27744  Biso   1.000  O
  O27      1.0000 0.60060  0.36042  0.53172  Biso   1.000  O
  O28      1.0000 0.60670  0.44595  0.52107  Biso   1.000  O
  O29      1.0000 0.88500  0.02583  0.23021  Biso   1.000  O
  O30      1.0000 0.87770  0.04914  0.18772  Biso   1.000  O
  O31      1.0000 0.92450  0.53567  0.12313  Biso   1.000  O
  O32      1.0000 0.90730  0.55133  0.07806  Biso   1.000  O
  Cd9      1.0000 0.37421  0.41715  0.77668  Biso   1.000  Cd
  Cd10     1.0000 0.07879  0.09575  0.44034  Biso   1.000  Cd
  Cd11     1.0000 0.12579  0.41715  0.27668  Biso   1.000  Cd
  Cd12     1.0000 0.42121  0.09575  0.94034  Biso   1.000  Cd
  H161     1.0000 0.33370  0.24100  0.68420  Biso   1.000  H
  H162     1.0000 0.28180  0.19930  0.63530  Biso   1.000  H
  H163     1.0000 0.22650  0.36150  0.62310  Biso   1.000  H
  H164     1.0000 0.28410  0.40270  0.67150  Biso   1.000  H
  H165     1.0000 0.10580  0.12580  0.54980  Biso   1.000  H
  H166     1.0000 0.14350  0.17290  0.59930  Biso   1.000  H
  H167     1.0000 0.23250  0.31580  0.57480  Biso   1.000  H
  H168     1.0000 0.17060  0.27280  0.52740  Biso   1.000  H
  H169     1.0000 0.41480  0.59560  0.86980  Biso   1.000  H
  H170     1.0000 0.42910  0.69620  0.89030  Biso   1.000  H
  H171     1.0000 0.40830  0.72650  0.80900  Biso   1.000  H
  H172     1.0000 0.39300  0.62620  0.78710  Biso   1.000  H
  H173     1.0000 0.46100  0.91440  0.85100  Biso   1.000  H
  H174     1.0000 0.46860  0.81530  0.82990  Biso   1.000  H
  H175     1.0000 0.36780  0.78500  0.90720  Biso   1.000  H
  H176     1.0000 0.35900  0.88450  0.92790  Biso   1.000  H
  H177     1.0000 0.38350  0.41150  0.84680  Biso   1.000  H
  H178     1.0000 0.39390  0.35040  0.87860  Biso   1.000  H
  H179     1.0000 0.37890  0.21060  0.80600  Biso   1.000  H
  H180     1.0000 0.36450  0.27570  0.77640  Biso   1.000  H
  H181     1.0000 0.37560  0.22700  0.93650  Biso   1.000  H
  H182     1.0000 0.35720  0.29050  0.90580  Biso   1.000  H
  H183     1.0000 0.45360  0.16030  0.83620  Biso   1.000  H
  H184     1.0000 0.46220  0.09940  0.86870  Biso   1.000  H
  H185     1.0000 0.15300  0.50200  0.79640  Biso   1.000  H
  H186     1.0000 0.95950  0.50630  0.79590  Biso   1.000  H
  H187     1.0000 0.96080  0.32850  0.76300  Biso   1.000  H
  H188     1.0000 0.15320  0.33060  0.76390  Biso   1.000  H
  H189     1.0000 0.59310  0.33450  0.78290  Biso   1.000  H
  H190     1.0000 0.78620  0.33300  0.78460  Biso   1.000  H
  H191     1.0000 0.78660  0.49980  0.77360  Biso   1.000  H
  H192     1.0000 0.59410  0.49600  0.77220  Biso   1.000  H
  H193     1.0000 0.86210  0.06520  0.39790  Biso   1.000  H
  H194     1.0000 0.66780  0.06750  0.39530  Biso   1.000  H
  H195     1.0000 0.66570  0.14740  0.48260  Biso   1.000  H
  H196     1.0000 0.85740  0.14280  0.48300  Biso   1.000  H
  H197     1.0000 0.30170  0.17100  0.46990  Biso   1.000  H
  H198     1.0000 0.49240  0.17730  0.46890  Biso   1.000  H
  H199     1.0000 0.49500  0.03950  0.40370  Biso   1.000  H
  H200     1.0000 0.30250  0.03740  0.40510  Biso   1.000  H
  H201     1.0000 0.16630  0.24100  0.18420  Biso   1.000  H
  H202     1.0000 0.21820  0.19930  0.13530  Biso   1.000  H
  H203     1.0000 0.27350  0.36150  0.12310  Biso   1.000  H
  H204     1.0000 0.21590  0.40270  0.17150  Biso   1.000  H
  H205     1.0000 0.39420  0.12580  0.04980  Biso   1.000  H
  H206     1.0000 0.35650  0.17290  0.09930  Biso   1.000  H
  H207     1.0000 0.26750  0.31580  0.07480  Biso   1.000  H
  H208     1.0000 0.32940  0.27280  0.02740  Biso   1.000  H
  H209     1.0000 0.08520  0.59560  0.36980  Biso   1.000  H
  H210     1.0000 0.07090  0.69620  0.39030  Biso   1.000  H
  H211     1.0000 0.09170  0.72650  0.30900  Biso   1.000  H
  H212     1.0000 0.10700  0.62620  0.28710  Biso   1.000  H
  H213     1.0000 0.03900  0.91440  0.35100  Biso   1.000  H
  H214     1.0000 0.03140  0.81530  0.32990  Biso   1.000  H
  H215     1.0000 0.13220  0.78500  0.40720  Biso   1.000  H
  H216     1.0000 0.14100  0.88450  0.42790  Biso   1.000  H
  H217     1.0000 0.11650  0.41150  0.34680  Biso   1.000  H
  H218     1.0000 0.10610  0.35040  0.37860  Biso   1.000  H
  H219     1.0000 0.12110  0.21060  0.30600  Biso   1.000  H
  H220     1.0000 0.13550  0.27570  0.27640  Biso   1.000  H
  H221     1.0000 0.12440  0.22700  0.43650  Biso   1.000  H
  H222     1.0000 0.14280  0.29050  0.40580  Biso   1.000  H
  H223     1.0000 0.04640  0.16030  0.33620  Biso   1.000  H
  H224     1.0000 0.03780  0.09940  0.36870  Biso   1.000  H
  H225     1.0000 0.34700  0.50200  0.29640  Biso   1.000  H
  H226     1.0000 0.54050  0.50630  0.29590  Biso   1.000  H
  H227     1.0000 0.53920  0.32850  0.26300  Biso   1.000  H
  H228     1.0000 0.34680  0.33060  0.26390  Biso   1.000  H
  H229     1.0000 0.90690  0.33450  0.28290  Biso   1.000  H
  H230     1.0000 0.71380  0.33300  0.28460  Biso   1.000  H
  H231     1.0000 0.71340  0.49980  0.27360  Biso   1.000  H
  H232     1.0000 0.90590  0.49600  0.27220  Biso   1.000  H
  H233     1.0000 0.63790  0.06520  0.89790  Biso   1.000  H
  H234     1.0000 0.83220  0.06750  0.89530  Biso   1.000  H
  H235     1.0000 0.83430  0.14740  0.98260  Biso   1.000  H
  H236     1.0000 0.64260  0.14280  0.98300  Biso   1.000  H
  H237     1.0000 0.19830  0.17100  0.96990  Biso   1.000  H
  H238     1.0000 0.00760  0.17730  0.96890  Biso   1.000  H
  H239     1.0000 0.00500  0.03950  0.90370  Biso   1.000  H
  H240     1.0000 0.19750  0.03740  0.90510  Biso   1.000  H
  C233     1.0000 0.31210  0.32673  0.68379  Biso   1.000  C
  C234     1.0000 0.31200  0.26551  0.67190  Biso   1.000  C
  C235     1.0000 0.28080  0.24043  0.64251  Biso   1.000  C
  C236     1.0000 0.24790  0.27505  0.62335  Biso   1.000  C
  C237     1.0000 0.24890  0.33682  0.63533  Biso   1.000  C
  C238     1.0000 0.28190  0.36149  0.66445  Biso   1.000  C
  C239     1.0000 0.13940  0.19373  0.53224  Biso   1.000  C
  C240     1.0000 0.13100  0.16500  0.55457  Biso   1.000  C
  C241     1.0000 0.15890  0.19230  0.58419  Biso   1.000  C
  C242     1.0000 0.20930  0.24794  0.59201  Biso   1.000  C
  C243     1.0000 0.20820  0.27640  0.57038  Biso   1.000  C
  C244     1.0000 0.17210  0.24980  0.54146  Biso   1.000  C
  C245     1.0000 0.34510  0.35361  0.71625  Biso   1.000  C
  C246     1.0000 0.10370  0.16340  0.50021  Biso   1.000  C
  C247     1.0000 0.40640  0.59966  0.82589  Biso   1.000  C
  C248     1.0000 0.41430  0.62158  0.85718  Biso   1.000  C
  C249     1.0000 0.42140  0.68224  0.86938  Biso   1.000  C
  C250     1.0000 0.41770  0.72320  0.85193  Biso   1.000  C
  C251     1.0000 0.40910  0.70032  0.82145  Biso   1.000  C
  C252     1.0000 0.40140  0.63972  0.80799  Biso   1.000  C
  C253     1.0000 0.42050  0.91083  0.89289  Biso   1.000  C
  C254     1.0000 0.44520  0.88831  0.86301  Biso   1.000  C
  C255     1.0000 0.44760  0.82870  0.85018  Biso   1.000  C
  C256     1.0000 0.42030  0.78842  0.86593  Biso   1.000  C
  C257     1.0000 0.38820  0.81100  0.89550  Biso   1.000  C
  C258     1.0000 0.38560  0.87070  0.90817  Biso   1.000  C
  C259     1.0000 0.39270  0.53454  0.81148  Biso   1.000  C
  C260     1.0000 0.42370  0.97770  0.90715  Biso   1.000  C
  C261     1.0000 0.38170  0.37054  0.83856  Biso   1.000  C
  C262     1.0000 0.38880  0.33404  0.85776  Biso   1.000  C
  C263     1.0000 0.38850  0.27280  0.84656  Biso   1.000  C
  C264     1.0000 0.37930  0.25133  0.81485  Biso   1.000  C
  C265     1.0000 0.37120  0.29077  0.79731  Biso   1.000  C
  C266     1.0000 0.39020  0.21264  0.91586  Biso   1.000  C
  C267     1.0000 0.37950  0.25140  0.89742  Biso   1.000  C
  C268     1.0000 0.40110  0.23307  0.86724  Biso   1.000  C
  C269     1.0000 0.43510  0.17509  0.85655  Biso   1.000  C
  C270     1.0000 0.44140  0.13891  0.87645  Biso   1.000  C
  C271     1.0000 0.11310  0.46681  0.78911  Biso   1.000  C
  C272     1.0000 0.99640  0.46997  0.78946  Biso   1.000  C
  C273     1.0000 0.93550  0.41715  0.77985  Biso   1.000  C
  C274     1.0000 0.99810  0.36462  0.76984  Biso   1.000  C
  C275     1.0000 0.11370  0.36624  0.77016  Biso   1.000  C
  C276     1.0000 0.63280  0.36802  0.78101  Biso   1.000  C
  C277     1.0000 0.74890  0.36674  0.78210  Biso   1.000  C
  C278     1.0000 0.81080  0.41682  0.77939  Biso   1.000  C
  C279     1.0000 0.74930  0.46570  0.77555  Biso   1.000  C
  C280     1.0000 0.63360  0.46289  0.77472  Biso   1.000  C
  C281     1.0000 0.82180  0.08140  0.41563  Biso   1.000  C
  C282     1.0000 0.70410  0.08190  0.41382  Biso   1.000  C
  C283     1.0000 0.64250  0.10370  0.43972  Biso   1.000  C
  C284     1.0000 0.70350  0.12850  0.46484  Biso   1.000  C
  C285     1.0000 0.81940  0.12640  0.46495  Biso   1.000  C
  C286     1.0000 0.34020  0.14070  0.45630  Biso   1.000  C
  C287     1.0000 0.45750  0.14440  0.45630  Biso   1.000  C
  C288     1.0000 0.51820  0.10500  0.43975  Biso   1.000  C
  C289     1.0000 0.45760  0.06660  0.41920  Biso   1.000  C
  C290     1.0000 0.33990  0.06560  0.42006  Biso   1.000  C
  C291     1.0000 0.18790  0.32673  0.18379  Biso   1.000  C
  C292     1.0000 0.18800  0.26551  0.17190  Biso   1.000  C
  C293     1.0000 0.21920  0.24043  0.14251  Biso   1.000  C
  C294     1.0000 0.25210  0.27505  0.12335  Biso   1.000  C
  C295     1.0000 0.25110  0.33682  0.13533  Biso   1.000  C
  C296     1.0000 0.21810  0.36149  0.16445  Biso   1.000  C
  C297     1.0000 0.36060  0.19373  0.03224  Biso   1.000  C
  C298     1.0000 0.36900  0.16500  0.05457  Biso   1.000  C
  C299     1.0000 0.34110  0.19230  0.08419  Biso   1.000  C
  C300     1.0000 0.29070  0.24794  0.09201  Biso   1.000  C
  C301     1.0000 0.29180  0.27640  0.07038  Biso   1.000  C
  C302     1.0000 0.32790  0.24980  0.04146  Biso   1.000  C
  C303     1.0000 0.15490  0.35361  0.21625  Biso   1.000  C
  C304     1.0000 0.39630  0.16340  0.00021  Biso   1.000  C
  C305     1.0000 0.09360  0.59966  0.32589  Biso   1.000  C
  C306     1.0000 0.08570  0.62158  0.35718  Biso   1.000  C
  C307     1.0000 0.07860  0.68224  0.36938  Biso   1.000  C
  C308     1.0000 0.08230  0.72320  0.35193  Biso   1.000  C
  C309     1.0000 0.09090  0.70032  0.32145  Biso   1.000  C
  C310     1.0000 0.09860  0.63972  0.30799  Biso   1.000  C
  C311     1.0000 0.07950  0.91083  0.39289  Biso   1.000  C
  C312     1.0000 0.05480  0.88831  0.36301  Biso   1.000  C
  C313     1.0000 0.05240  0.82870  0.35018  Biso   1.000  C
  C314     1.0000 0.07970  0.78842  0.36593  Biso   1.000  C
  C315     1.0000 0.11180  0.81100  0.39550  Biso   1.000  C
  C316     1.0000 0.11440  0.87070  0.40817  Biso   1.000  C
  C317     1.0000 0.10730  0.53454  0.31148  Biso   1.000  C
  C318     1.0000 0.07630  0.97770  0.40715  Biso   1.000  C
  C319     1.0000 0.11830  0.37054  0.33856  Biso   1.000  C
  C320     1.0000 0.11120  0.33404  0.35776  Biso   1.000  C
  C321     1.0000 0.11150  0.27280  0.34656  Biso   1.000  C
  C322     1.0000 0.12070  0.25133  0.31485  Biso   1.000  C
  C323     1.0000 0.12880  0.29077  0.29731  Biso   1.000  C
  C324     1.0000 0.10980  0.21264  0.41586  Biso   1.000  C
  C325     1.0000 0.12050  0.25140  0.39742  Biso   1.000  C
  C326     1.0000 0.09890  0.23307  0.36724  Biso   1.000  C
  C327     1.0000 0.06490  0.17509  0.35655  Biso   1.000  C
  C328     1.0000 0.05860  0.13891  0.37645  Biso   1.000  C
  C329     1.0000 0.38690  0.46681  0.28911  Biso   1.000  C
  C330     1.0000 0.50360  0.46997  0.28946  Biso   1.000  C
  C331     1.0000 0.56450  0.41715  0.27985  Biso   1.000  C
  C332     1.0000 0.50190  0.36462  0.26984  Biso   1.000  C
  C333     1.0000 0.38630  0.36624  0.27016  Biso   1.000  C
  C334     1.0000 0.86720  0.36802  0.28101  Biso   1.000  C
  C335     1.0000 0.75110  0.36674  0.28210  Biso   1.000  C
  C336     1.0000 0.68920  0.41682  0.27939  Biso   1.000  C
  C337     1.0000 0.75070  0.46570  0.27555  Biso   1.000  C
  C338     1.0000 0.86640  0.46289  0.27472  Biso   1.000  C
  C339     1.0000 0.67820  0.08140  0.91563  Biso   1.000  C
  C340     1.0000 0.79590  0.08190  0.91382  Biso   1.000  C
  C341     1.0000 0.85750  0.10370  0.93972  Biso   1.000  C
  C342     1.0000 0.79650  0.12850  0.96484  Biso   1.000  C
  C343     1.0000 0.68060  0.12640  0.96495  Biso   1.000  C
  C344     1.0000 0.15980  0.14070  0.95630  Biso   1.000  C
  C345     1.0000 0.04250  0.14440  0.95630  Biso   1.000  C
  C346     1.0000 0.98180  0.10500  0.93975  Biso   1.000  C
  C347     1.0000 0.04240  0.06660  0.91920  Biso   1.000  C
  C348     1.0000 0.16010  0.06560  0.92006  Biso   1.000  C
  N25      1.0000 0.37210  0.35008  0.80823  Biso   1.000  N
  N26      1.0000 0.41960  0.15704  0.90595  Biso   1.000  N
  N27      1.0000 0.17310  0.41698  0.77916  Biso   1.000  N
  N28      1.0000 0.57320  0.41534  0.77732  Biso   1.000  N
  N29      1.0000 0.87940  0.10222  0.44056  Biso   1.000  N
  N30      1.0000 0.28110  0.10032  0.43983  Biso   1.000  N
  N31      1.0000 0.12790  0.35008  0.30823  Biso   1.000  N
  N32      1.0000 0.08040  0.15704  0.40595  Biso   1.000  N
  N33      1.0000 0.32690  0.41698  0.27916  Biso   1.000  N
  N34      1.0000 0.92680  0.41534  0.27732  Biso   1.000  N
  N35      1.0000 0.62060  0.10222  0.94056  Biso   1.000  N
  N36      1.0000 0.21890  0.10032  0.93983  Biso   1.000  N
  O33      1.0000 0.34750  0.32206  0.73476  Biso   1.000  O
  O34      1.0000 0.36630  0.40877  0.72442  Biso   1.000  O
  O35      1.0000 0.08910  0.10928  0.49298  Biso   1.000  O
  O36      1.0000 0.09290  0.19443  0.48171  Biso   1.000  O
  O37      1.0000 0.39410  0.49879  0.82785  Biso   1.000  O
  O38      1.0000 0.37950  0.51810  0.78327  Biso   1.000  O
  O39      1.0000 0.41280  0.99300  0.93547  Biso   1.000  O
  O40      1.0000 0.43130  0.01336  0.89204  Biso   1.000  O
  O41      1.0000 0.15250  0.32206  0.23476  Biso   1.000  O
  O42      1.0000 0.13370  0.40877  0.22442  Biso   1.000  O
  O43      1.0000 0.41090  0.10928  0.99298  Biso   1.000  O
  O44      1.0000 0.40710  0.19443  0.98171  Biso   1.000  O
  O45      1.0000 0.10590  0.49879  0.32785  Biso   1.000  O
  O46      1.0000 0.12050  0.51810  0.28327  Biso   1.000  O
  O47      1.0000 0.08720  0.99300  0.43547  Biso   1.000  O
  O48      1.0000 0.06870  0.01336  0.39204  Biso   1.000  O
  Cd13     1.0000 0.13216  0.87222  0.76379  Biso   1.000  Cd
  Cd14     1.0000 0.41196  0.54816  0.42651  Biso   1.000  Cd
  Cd15     1.0000 0.36784  0.87222  0.26379  Biso   1.000  Cd
  Cd16     1.0000 0.08804  0.54816  0.92651  Biso   1.000  Cd
  H241     1.0000 0.25030  0.85140  0.65960  Biso   1.000  H
  H242     1.0000 0.29520  0.80460  0.60970  Biso   1.000  H
  H243     1.0000 0.20350  0.64870  0.62350  Biso   1.000  H
  H244     1.0000 0.15940  0.69450  0.67300  Biso   1.000  H
  H245     1.0000 0.30300  0.71580  0.51180  Biso   1.000  H
  H246     1.0000 0.25200  0.76060  0.56140  Biso   1.000  H
  H247     1.0000 0.33380  0.61310  0.58600  Biso   1.000  H
  H248     1.0000 0.39200  0.56850  0.53700  Biso   1.000  H
  H249     1.0000 0.99260  0.07260  0.78230  Biso   1.000  H
  H250     1.0000 0.96670  0.17280  0.80700  Biso   1.000  H
  H251     1.0000 0.18890  0.15590  0.86990  Biso   1.000  H
  H252     1.0000 0.19880  0.05540  0.84860  Biso   1.000  H
  H253     1.0000 0.05490  0.36820  0.83690  Biso   1.000  H
  H254     1.0000 0.04650  0.26500  0.81610  Biso   1.000  H
  H255     1.0000 0.09270  0.23930  0.89840  Biso   1.000  H
  H256     1.0000 0.09950  0.33950  0.91890  Biso   1.000  H
  H257     1.0000 0.11380  0.73310  0.76450  Biso   1.000  H
  H258     1.0000 0.10530  0.66920  0.79470  Biso   1.000  H
  H259     1.0000 0.12120  0.80690  0.86700  Biso   1.000  H
  H260     1.0000 0.14170  0.86760  0.83470  Biso   1.000  H
  H261     1.0000 0.11810  0.55250  0.85700  Biso   1.000  H
  H262     1.0000 0.12830  0.61200  0.82460  Biso   1.000  H
  H263     1.0000 0.05800  0.74930  0.89340  Biso   1.000  H
  H264     1.0000 0.04770  0.68490  0.92430  Biso   1.000  H
  H265     1.0000 0.90780  0.94500  0.75100  Biso   1.000  H
  H266     1.0000 0.71450  0.94940  0.75530  Biso   1.000  H
  H267     1.0000 0.72100  0.79360  0.77670  Biso   1.000  H
  H268     1.0000 0.91350  0.79370  0.77290  Biso   1.000  H
  H269     1.0000 0.35260  0.95720  0.78630  Biso   1.000  H
  H270     1.0000 0.54530  0.96030  0.78580  Biso   1.000  H
  H271     1.0000 0.54390  0.78400  0.75340  Biso   1.000  H
  H272     1.0000 0.35210  0.78690  0.75470  Biso   1.000  H
  H273     1.0000 0.62870  0.50350  0.38340  Biso   1.000  H
  H274     1.0000 0.82060  0.50810  0.38070  Biso   1.000  H
  H275     1.0000 0.82980  0.59610  0.46720  Biso   1.000  H
  H276     1.0000 0.63340  0.59260  0.46790  Biso   1.000  H
  H277     1.0000 0.19100  0.63140  0.45040  Biso   1.000  H
  H278     1.0000 0.99860  0.63130  0.45230  Biso   1.000  H
  H279     1.0000 0.99890  0.47430  0.39230  Biso   1.000  H
  H280     1.0000 0.19070  0.47660  0.39320  Biso   1.000  H
  H281     1.0000 0.24970  0.85140  0.15960  Biso   1.000  H
  H282     1.0000 0.20480  0.80460  0.10970  Biso   1.000  H
  H283     1.0000 0.29650  0.64870  0.12350  Biso   1.000  H
  H284     1.0000 0.34060  0.69450  0.17300  Biso   1.000  H
  H285     1.0000 0.19700  0.71580  0.01180  Biso   1.000  H
  H286     1.0000 0.24800  0.76060  0.06140  Biso   1.000  H
  H287     1.0000 0.16620  0.61310  0.08600  Biso   1.000  H
  H288     1.0000 0.10800  0.56850  0.03700  Biso   1.000  H
  H289     1.0000 0.50740  0.07260  0.28230  Biso   1.000  H
  H290     1.0000 0.53330  0.17280  0.30700  Biso   1.000  H
  H291     1.0000 0.31110  0.15590  0.36990  Biso   1.000  H
  H292     1.0000 0.30120  0.05540  0.34860  Biso   1.000  H
  H293     1.0000 0.44510  0.36820  0.33690  Biso   1.000  H
  H294     1.0000 0.45350  0.26500  0.31610  Biso   1.000  H
  H295     1.0000 0.40730  0.23930  0.39840  Biso   1.000  H
  H296     1.0000 0.40050  0.33950  0.41890  Biso   1.000  H
  H297     1.0000 0.38620  0.73310  0.26450  Biso   1.000  H
  H298     1.0000 0.39470  0.66920  0.29470  Biso   1.000  H
  H299     1.0000 0.37880  0.80690  0.36700  Biso   1.000  H
  H300     1.0000 0.35830  0.86760  0.33470  Biso   1.000  H
  H301     1.0000 0.38190  0.55250  0.35700  Biso   1.000  H
  H302     1.0000 0.37170  0.61200  0.32460  Biso   1.000  H
  H303     1.0000 0.44200  0.74930  0.39340  Biso   1.000  H
  H304     1.0000 0.45230  0.68490  0.42430  Biso   1.000  H
  H305     1.0000 0.59220  0.94500  0.25100  Biso   1.000  H
  H306     1.0000 0.78550  0.94940  0.25530  Biso   1.000  H
  H307     1.0000 0.77900  0.79360  0.27670  Biso   1.000  H
  H308     1.0000 0.58650  0.79370  0.27290  Biso   1.000  H
  H309     1.0000 0.14740  0.95720  0.28630  Biso   1.000  H
  H310     1.0000 0.95470  0.96030  0.28580  Biso   1.000  H
  H311     1.0000 0.95610  0.78400  0.25340  Biso   1.000  H
  H312     1.0000 0.14790  0.78690  0.25470  Biso   1.000  H
  H313     1.0000 0.87130  0.50350  0.88340  Biso   1.000  H
  H314     1.0000 0.67940  0.50810  0.88070  Biso   1.000  H
  H315     1.0000 0.67020  0.59610  0.96720  Biso   1.000  H
  H316     1.0000 0.86660  0.59260  0.96790  Biso   1.000  H
  H317     1.0000 0.30900  0.63140  0.95040  Biso   1.000  H
  H318     1.0000 0.50140  0.63130  0.95230  Biso   1.000  H
  H319     1.0000 0.50110  0.47430  0.89230  Biso   1.000  H
  H320     1.0000 0.30930  0.47660  0.89320  Biso   1.000  H
  C349     1.0000 0.19910  0.77779  0.67185  Biso   1.000  C
  C350     1.0000 0.24080  0.81053  0.65255  Biso   1.000  C
  C351     1.0000 0.26840  0.78220  0.62253  Biso   1.000  C
  C352     1.0000 0.25650  0.72139  0.61173  Biso   1.000  C
  C353     1.0000 0.21410  0.68948  0.63063  Biso   1.000  C
  C354     1.0000 0.18680  0.71729  0.66038  Biso   1.000  C
  C355     1.0000 0.35220  0.63700  0.51923  Biso   1.000  C
  C356     1.0000 0.31020  0.69500  0.52674  Biso   1.000  C
  C357     1.0000 0.27920  0.72180  0.55665  Biso   1.000  C
  C358     1.0000 0.28770  0.69220  0.57932  Biso   1.000  C
  C359     1.0000 0.32870  0.63436  0.57116  Biso   1.000  C
  C360     1.0000 0.36260  0.60690  0.54158  Biso   1.000  C
  C361     1.0000 0.16930  0.80710  0.70409  Biso   1.000  C
  C362     1.0000 0.38300  0.60930  0.48670  Biso   1.000  C
  C363     1.0000 0.09670  0.05322  0.81352  Biso   1.000  C
  C364     1.0000 0.02920  0.08870  0.80063  Biso   1.000  C
  C365     1.0000 0.01560  0.14960  0.81516  Biso   1.000  C
  C366     1.0000 0.07430  0.17490  0.84138  Biso   1.000  C
  C367     1.0000 0.14530  0.13920  0.85282  Biso   1.000  C
  C368     1.0000 0.15350  0.07890  0.83955  Biso   1.000  C
  C369     1.0000 0.07570  0.36359  0.88012  Biso   1.000  C
  C370     1.0000 0.06180  0.34221  0.84936  Biso   1.000  C
  C371     1.0000 0.05820  0.27974  0.83685  Biso   1.000  C
  C372     1.0000 0.07160  0.24126  0.85454  Biso   1.000  C
  C373     1.0000 0.08540  0.26499  0.88576  Biso   1.000  C
  C374     1.0000 0.08860  0.32491  0.89812  Biso   1.000  C
  C375     1.0000 0.11030  0.98737  0.79851  Biso   1.000  C
  C376     1.0000 0.08260  0.42978  0.89335  Biso   1.000  C
  C377     1.0000 0.11730  0.74826  0.78545  Biso   1.000  C
  C378     1.0000 0.10990  0.70989  0.80354  Biso   1.000  C
  C379     1.0000 0.10910  0.73052  0.83516  Biso   1.000  C
  C380     1.0000 0.12080  0.79043  0.84608  Biso   1.000  C
  C381     1.0000 0.13190  0.82702  0.82652  Biso   1.000  C
  C382     1.0000 0.10610  0.59306  0.86474  Biso   1.000  C
  C383     1.0000 0.11300  0.62878  0.84504  Biso   1.000  C
  C384     1.0000 0.09780  0.68887  0.85510  Biso   1.000  C
  C385     1.0000 0.07170  0.70897  0.88530  Biso   1.000  C
  C386     1.0000 0.06540  0.66997  0.90387  Biso   1.000  C
  C387     1.0000 0.86980  0.91440  0.75671  Biso   1.000  C
  C388     1.0000 0.75350  0.91700  0.75879  Biso   1.000  C
  C389     1.0000 0.69540  0.87083  0.76621  Biso   1.000  C
  C390     1.0000 0.75730  0.82525  0.77156  Biso   1.000  C
  C391     1.0000 0.87330  0.82572  0.76938  Biso   1.000  C
  C392     1.0000 0.39170  0.92180  0.77901  Biso   1.000  C
  C393     1.0000 0.50790  0.92420  0.77886  Biso   1.000  C
  C394     1.0000 0.56880  0.87187  0.76809  Biso   1.000  C
  C395     1.0000 0.50710  0.82043  0.75970  Biso   1.000  C
  C396     1.0000 0.39180  0.82250  0.76062  Biso   1.000  C
  C397     1.0000 0.66910  0.52310  0.40057  Biso   1.000  C
  C398     1.0000 0.78480  0.52470  0.39912  Biso   1.000  C
  C399     1.0000 0.84900  0.54967  0.42384  Biso   1.000  C
  C400     1.0000 0.79060  0.57670  0.44983  Biso   1.000  C
  C401     1.0000 0.67170  0.57490  0.45003  Biso   1.000  C
  C402     1.0000 0.15210  0.59830  0.43922  Biso   1.000  C
  C403     1.0000 0.03630  0.59870  0.44017  Biso   1.000  C
  C404     1.0000 0.97470  0.55103  0.42327  Biso   1.000  C
  C405     1.0000 0.03590  0.50630  0.40512  Biso   1.000  C
  C406     1.0000 0.15150  0.50820  0.40566  Biso   1.000  C
  C407     1.0000 0.30090  0.77779  0.17185  Biso   1.000  C
  C408     1.0000 0.25920  0.81053  0.15255  Biso   1.000  C
  C409     1.0000 0.23160  0.78220  0.12253  Biso   1.000  C
  C410     1.0000 0.24350  0.72139  0.11173  Biso   1.000  C
  C411     1.0000 0.28590  0.68948  0.13063  Biso   1.000  C
  C412     1.0000 0.31320  0.71729  0.16038  Biso   1.000  C
  C413     1.0000 0.14780  0.63700  0.01923  Biso   1.000  C
  C414     1.0000 0.18980  0.69500  0.02674  Biso   1.000  C
  C415     1.0000 0.22080  0.72180  0.05665  Biso   1.000  C
  C416     1.0000 0.21230  0.69220  0.07932  Biso   1.000  C
  C417     1.0000 0.17130  0.63436  0.07116  Biso   1.000  C
  C418     1.0000 0.13740  0.60690  0.04158  Biso   1.000  C
  C419     1.0000 0.33070  0.80710  0.20409  Biso   1.000  C
  C420     1.0000 0.11700  0.60930  0.98670  Biso   1.000  C
  C421     1.0000 0.40330  0.05322  0.31352  Biso   1.000  C
  C422     1.0000 0.47080  0.08870  0.30063  Biso   1.000  C
  C423     1.0000 0.48440  0.14960  0.31516  Biso   1.000  C
  C424     1.0000 0.42570  0.17490  0.34138  Biso   1.000  C
  C425     1.0000 0.35470  0.13920  0.35282  Biso   1.000  C
  C426     1.0000 0.34650  0.07890  0.33955  Biso   1.000  C
  C427     1.0000 0.42430  0.36359  0.38012  Biso   1.000  C
  C428     1.0000 0.43820  0.34221  0.34936  Biso   1.000  C
  C429     1.0000 0.44180  0.27974  0.33685  Biso   1.000  C
  C430     1.0000 0.42840  0.24126  0.35454  Biso   1.000  C
  C431     1.0000 0.41460  0.26499  0.38576  Biso   1.000  C
  C432     1.0000 0.41140  0.32491  0.39812  Biso   1.000  C
  C433     1.0000 0.38970  0.98737  0.29851  Biso   1.000  C
  C434     1.0000 0.41740  0.42978  0.39335  Biso   1.000  C
  C435     1.0000 0.38270  0.74826  0.28545  Biso   1.000  C
  C436     1.0000 0.39010  0.70989  0.30354  Biso   1.000  C
  C437     1.0000 0.39090  0.73052  0.33516  Biso   1.000  C
  C438     1.0000 0.37920  0.79043  0.34608  Biso   1.000  C
  C439     1.0000 0.36810  0.82702  0.32652  Biso   1.000  C
  C440     1.0000 0.39390  0.59306  0.36474  Biso   1.000  C
  C441     1.0000 0.38700  0.62878  0.34504  Biso   1.000  C
  C442     1.0000 0.40220  0.68887  0.35510  Biso   1.000  C
  C443     1.0000 0.42830  0.70897  0.38530  Biso   1.000  C
  C444     1.0000 0.43460  0.66997  0.40387  Biso   1.000  C
  C445     1.0000 0.63020  0.91440  0.25671  Biso   1.000  C
  C446     1.0000 0.74650  0.91700  0.25879  Biso   1.000  C
  C447     1.0000 0.80460  0.87083  0.26621  Biso   1.000  C
  C448     1.0000 0.74270  0.82525  0.27156  Biso   1.000  C
  C449     1.0000 0.62670  0.82572  0.26938  Biso   1.000  C
  C450     1.0000 0.10830  0.92180  0.27901  Biso   1.000  C
  C451     1.0000 0.99210  0.92420  0.27886  Biso   1.000  C
  C452     1.0000 0.93120  0.87187  0.26809  Biso   1.000  C
  C453     1.0000 0.99290  0.82043  0.25970  Biso   1.000  C
  C454     1.0000 0.10820  0.82250  0.26062  Biso   1.000  C
  C455     1.0000 0.83090  0.52310  0.90057  Biso   1.000  C
  C456     1.0000 0.71520  0.52470  0.89912  Biso   1.000  C
  C457     1.0000 0.65100  0.54967  0.92384  Biso   1.000  C
  C458     1.0000 0.70940  0.57670  0.94983  Biso   1.000  C
  C459     1.0000 0.82830  0.57490  0.95003  Biso   1.000  C
  C460     1.0000 0.34790  0.59830  0.93922  Biso   1.000  C
  C461     1.0000 0.46370  0.59870  0.94017  Biso   1.000  C
  C462     1.0000 0.52530  0.55103  0.92327  Biso   1.000  C
  C463     1.0000 0.46410  0.50630  0.90512  Biso   1.000  C
  C464     1.0000 0.34850  0.50820  0.90566  Biso   1.000  C
  N37      1.0000 0.12930  0.80689  0.79660  Biso   1.000  N
  N38      1.0000 0.08370  0.61206  0.89350  Biso   1.000  N
  N39      1.0000 0.93090  0.86973  0.76247  Biso   1.000  N
  N40      1.0000 0.33230  0.87315  0.76956  Biso   1.000  N
  N41      1.0000 0.61270  0.54889  0.42571  Biso   1.000  N
  N42      1.0000 0.21140  0.55229  0.42295  Biso   1.000  N
  N43      1.0000 0.37070  0.80689  0.29660  Biso   1.000  N
  N44      1.0000 0.41630  0.61206  0.39350  Biso   1.000  N
  N45      1.0000 0.56910  0.86973  0.26247  Biso   1.000  N
  N46      1.0000 0.16770  0.87315  0.26956  Biso   1.000  N
  N47      1.0000 0.88730  0.54889  0.92571  Biso   1.000  N
  N48      1.0000 0.28860  0.55229  0.92295  Biso   1.000  N
  O49      1.0000 0.16020  0.86306  0.71200  Biso   1.000  O
  O50      1.0000 0.15410  0.77557  0.72256  Biso   1.000  O
  O51      1.0000 0.39940  0.63958  0.46828  Biso   1.000  O
  O52      1.0000 0.39330  0.55405  0.47893  Biso   1.000  O
  O53      1.0000 0.11500  0.97417  0.76979  Biso   1.000  O
  O54      1.0000 0.12230  0.95086  0.81228  Biso   1.000  O
  O55      1.0000 0.07550  0.46433  0.87687  Biso   1.000  O
  O56      1.0000 0.09270  0.44867  0.92194  Biso   1.000  O
  O57      1.0000 0.33980  0.86306  0.21200  Biso   1.000  O
  O58      1.0000 0.34590  0.77557  0.22256  Biso   1.000  O
  O59      1.0000 0.10060  0.63958  0.96828  Biso   1.000  O
  O60      1.0000 0.10670  0.55405  0.97893  Biso   1.000  O
  O61      1.0000 0.38500  0.97417  0.26979  Biso   1.000  O
  O62      1.0000 0.37770  0.95086  0.31228  Biso   1.000  O
  O63      1.0000 0.42450  0.46433  0.37687  Biso   1.000  O
  O64      1.0000 0.40730  0.44867  0.42194  Biso   1.000  O
