data_image0
_cell_length_a       22.6129
_cell_length_b       22.6129
_cell_length_c       27.6947
_cell_angle_alpha    114.095
_cell_angle_beta     114.095
_cell_angle_gamma    90

_symmetry_space_group_name_H-M    P 1
_symmetry_int_tables_number       1

loop_
  _symmetry_equiv_pos_as_xyz
  'x, y, z'

loop_
  _atom_site_label
  _atom_site_occupancy
  _atom_site_fract_x
  _atom_site_fract_y
  _atom_site_fract_z
  _atom_site_thermal_displace_type
  _atom_site_B_iso_or_equiv
  _atom_site_type_symbol
  Co1      1.0000 0.75000  0.69207  0.50000  Biso   1.000  Co
  Co2      1.0000 0.25000  0.80793  0.50000  Biso   1.000  Co
  Co3      1.0000 0.69207  0.25000  0.00000  Biso   1.000  Co
  Co4      1.0000 0.80793  0.75000  1.00000  Biso   1.000  Co
  Co5      1.0000 0.25000  0.30793  0.50000  Biso   1.000  Co
  Co6      1.0000 0.75000  0.19207  0.50000  Biso   1.000  Co
  Co7      1.0000 0.30793  0.75000  1.00000  Biso   1.000  Co
  Co8      1.0000 0.19207  0.25000  0.00000  Biso   1.000  Co
  H1       1.0000 0.08310  0.81970  0.86940  Biso   1.000  H
  H2       1.0000 0.04600  0.99430  0.87180  Biso   1.000  H
  H3       1.0000 0.89150  0.83960  0.68220  Biso   1.000  H
  H4       1.0000 0.90510  0.77540  0.69280  Biso   1.000  H
  H5       1.0000 0.06340  0.02810  0.96060  Biso   1.000  H
  H6       1.0000 0.14150  0.03440  0.98300  Biso   1.000  H
  H7       1.0000 0.10840  0.02470  0.02120  Biso   1.000  H
  H8       1.0000 0.13970  0.86510  0.95380  Biso   1.000  H
  H9       1.0000 0.15730  0.92450  0.01740  Biso   1.000  H
  H10      1.0000 0.19020  0.93160  0.97820  Biso   1.000  H
  H11      1.0000 0.03360  0.86270  0.94120  Biso   1.000  H
  H12      1.0000 0.99830  0.92470  0.94480  Biso   1.000  H
  H13      1.0000 0.05640  0.92680  0.00340  Biso   1.000  H
  H14      1.0000 0.67670  0.25530  0.42000  Biso   1.000  H
  H15      1.0000 0.67340  0.35660  0.41780  Biso   1.000  H
  H16      1.0000 0.65080  0.46340  0.45420  Biso   1.000  H
  H17      1.0000 0.65350  0.56630  0.45600  Biso   1.000  H
  H18      1.0000 0.85910  0.69190  0.49960  Biso   1.000  H
  H19      1.0000 0.82860  0.68280  0.44260  Biso   1.000  H
  H20      1.0000 0.28630  0.04970  0.86940  Biso   1.000  H
  H21      1.0000 0.32580  0.87750  0.87180  Biso   1.000  H
  H22      1.0000 0.29070  0.84260  0.68220  Biso   1.000  H
  H23      1.0000 0.28770  0.91740  0.69280  Biso   1.000  H
  H24      1.0000 0.39720  0.93250  0.96060  Biso   1.000  H
  H25      1.0000 0.34150  0.94860  0.98300  Biso   1.000  H
  H26      1.0000 0.41280  0.99650  0.02120  Biso   1.000  H
  H27      1.0000 0.31410  0.08870  0.95380  Biso   1.000  H
  H28      1.0000 0.36010  0.09290  0.01740  Biso   1.000  H
  H29      1.0000 0.28800  0.04660  0.97820  Biso   1.000  H
  H30      1.0000 0.40760  0.07850  0.94120  Biso   1.000  H
  H31      1.0000 0.44650  0.02010  0.94480  Biso   1.000  H
  H32      1.0000 0.44700  0.07660  0.00340  Biso   1.000  H
  H33      1.0000 0.24330  0.16470  0.42000  Biso   1.000  H
  H34      1.0000 0.24440  0.06120  0.41780  Biso   1.000  H
  H35      1.0000 0.30340  0.99080  0.45420  Biso   1.000  H
  H36      1.0000 0.30250  0.88970  0.45600  Biso   1.000  H
  H37      1.0000 0.14050  0.80770  0.49960  Biso   1.000  H
  H38      1.0000 0.11400  0.75980  0.44260  Biso   1.000  H
  H39      1.0000 0.81970  0.28630  0.36940  Biso   1.000  H
  H40      1.0000 0.99430  0.32580  0.37180  Biso   1.000  H
  H41      1.0000 0.83960  0.29070  0.18220  Biso   1.000  H
  H42      1.0000 0.77540  0.28770  0.19280  Biso   1.000  H
  H43      1.0000 0.02810  0.39720  0.46060  Biso   1.000  H
  H44      1.0000 0.03440  0.34150  0.48300  Biso   1.000  H
  H45      1.0000 0.02470  0.41280  0.52120  Biso   1.000  H
  H46      1.0000 0.86510  0.31410  0.45380  Biso   1.000  H
  H47      1.0000 0.92450  0.36010  0.51740  Biso   1.000  H
  H48      1.0000 0.93160  0.28800  0.47820  Biso   1.000  H
  H49      1.0000 0.86270  0.40760  0.44120  Biso   1.000  H
  H50      1.0000 0.92470  0.44650  0.44480  Biso   1.000  H
  H51      1.0000 0.92680  0.44700  0.50340  Biso   1.000  H
  H52      1.0000 0.25530  0.24330  0.92000  Biso   1.000  H
  H53      1.0000 0.35660  0.24440  0.91780  Biso   1.000  H
  H54      1.0000 0.46340  0.30340  0.95420  Biso   1.000  H
  H55      1.0000 0.56630  0.30250  0.95600  Biso   1.000  H
  H56      1.0000 0.69190  0.14050  0.99960  Biso   1.000  H
  H57      1.0000 0.68280  0.11400  0.94260  Biso   1.000  H
  H58      1.0000 0.04970  0.08310  0.36940  Biso   1.000  H
  H59      1.0000 0.87750  0.04600  0.37180  Biso   1.000  H
  H60      1.0000 0.84260  0.89150  0.18220  Biso   1.000  H
  H61      1.0000 0.91740  0.90510  0.19280  Biso   1.000  H
  H62      1.0000 0.93250  0.06340  0.46060  Biso   1.000  H
  H63      1.0000 0.94860  0.14150  0.48300  Biso   1.000  H
  H64      1.0000 0.99650  0.10840  0.52120  Biso   1.000  H
  H65      1.0000 0.08870  0.13970  0.45380  Biso   1.000  H
  H66      1.0000 0.09290  0.15730  0.51740  Biso   1.000  H
  H67      1.0000 0.04660  0.19020  0.47820  Biso   1.000  H
  H68      1.0000 0.07850  0.03360  0.44120  Biso   1.000  H
  H69      1.0000 0.02010  0.99830  0.44480  Biso   1.000  H
  H70      1.0000 0.07660  0.05640  0.50340  Biso   1.000  H
  H71      1.0000 0.16470  0.67670  0.92000  Biso   1.000  H
  H72      1.0000 0.06120  0.67340  0.91780  Biso   1.000  H
  H73      1.0000 0.99080  0.65080  0.95420  Biso   1.000  H
  H74      1.0000 0.88970  0.65350  0.95600  Biso   1.000  H
  H75      1.0000 0.80770  0.85910  0.99960  Biso   1.000  H
  H76      1.0000 0.75980  0.82860  0.94260  Biso   1.000  H
  H77      1.0000 0.21370  0.68030  0.13060  Biso   1.000  H
  H78      1.0000 0.17420  0.50570  0.12820  Biso   1.000  H
  H79      1.0000 0.20930  0.66040  0.31780  Biso   1.000  H
  H80      1.0000 0.21230  0.72460  0.30720  Biso   1.000  H
  H81      1.0000 0.10280  0.47190  0.03940  Biso   1.000  H
  H82      1.0000 0.15850  0.46560  0.01700  Biso   1.000  H
  H83      1.0000 0.08720  0.47530  0.97880  Biso   1.000  H
  H84      1.0000 0.18590  0.63490  0.04620  Biso   1.000  H
  H85      1.0000 0.13990  0.57550  0.98260  Biso   1.000  H
  H86      1.0000 0.21200  0.56840  0.02180  Biso   1.000  H
  H87      1.0000 0.09240  0.63730  0.05880  Biso   1.000  H
  H88      1.0000 0.05350  0.57530  0.05520  Biso   1.000  H
  H89      1.0000 0.05300  0.57320  0.99660  Biso   1.000  H
  H90      1.0000 0.25670  0.24470  0.58000  Biso   1.000  H
  H91      1.0000 0.25560  0.14340  0.58220  Biso   1.000  H
  H92      1.0000 0.19660  0.03660  0.54580  Biso   1.000  H
  H93      1.0000 0.19750  0.93370  0.54400  Biso   1.000  H
  H94      1.0000 0.35950  0.80810  0.50040  Biso   1.000  H
  H95      1.0000 0.38600  0.81720  0.55740  Biso   1.000  H
  H96      1.0000 0.41690  0.45030  0.13060  Biso   1.000  H
  H97      1.0000 0.45400  0.62250  0.12820  Biso   1.000  H
  H98      1.0000 0.60850  0.65740  0.31780  Biso   1.000  H
  H99      1.0000 0.59490  0.58260  0.30720  Biso   1.000  H
  H100     1.0000 0.43660  0.56750  0.03940  Biso   1.000  H
  H101     1.0000 0.35850  0.55140  0.01700  Biso   1.000  H
  H102     1.0000 0.39160  0.50350  0.97880  Biso   1.000  H
  H103     1.0000 0.36030  0.41130  0.04620  Biso   1.000  H
  H104     1.0000 0.34270  0.40710  0.98260  Biso   1.000  H
  H105     1.0000 0.30980  0.45340  0.02180  Biso   1.000  H
  H106     1.0000 0.46640  0.42150  0.05880  Biso   1.000  H
  H107     1.0000 0.50170  0.47990  0.05520  Biso   1.000  H
  H108     1.0000 0.44360  0.42340  0.99660  Biso   1.000  H
  H109     1.0000 0.82330  0.33530  0.58000  Biso   1.000  H
  H110     1.0000 0.82660  0.43880  0.58220  Biso   1.000  H
  H111     1.0000 0.84920  0.50920  0.54580  Biso   1.000  H
  H112     1.0000 0.84650  0.61030  0.54400  Biso   1.000  H
  H113     1.0000 0.64090  0.69230  0.50040  Biso   1.000  H
  H114     1.0000 0.67140  0.74020  0.55740  Biso   1.000  H
  H115     1.0000 0.45030  0.21370  0.63060  Biso   1.000  H
  H116     1.0000 0.62250  0.17420  0.62820  Biso   1.000  H
  H117     1.0000 0.65740  0.20930  0.81780  Biso   1.000  H
  H118     1.0000 0.58260  0.21230  0.80720  Biso   1.000  H
  H119     1.0000 0.56750  0.10280  0.53940  Biso   1.000  H
  H120     1.0000 0.55140  0.15850  0.51700  Biso   1.000  H
  H121     1.0000 0.50350  0.08720  0.47880  Biso   1.000  H
  H122     1.0000 0.41130  0.18590  0.54620  Biso   1.000  H
  H123     1.0000 0.40710  0.13990  0.48260  Biso   1.000  H
  H124     1.0000 0.45340  0.21200  0.52180  Biso   1.000  H
  H125     1.0000 0.42150  0.09240  0.55880  Biso   1.000  H
  H126     1.0000 0.47990  0.05350  0.55520  Biso   1.000  H
  H127     1.0000 0.42340  0.05300  0.49660  Biso   1.000  H
  H128     1.0000 0.33530  0.25670  0.08000  Biso   1.000  H
  H129     1.0000 0.43880  0.25560  0.08220  Biso   1.000  H
  H130     1.0000 0.50920  0.19660  0.04580  Biso   1.000  H
  H131     1.0000 0.61030  0.19750  0.04400  Biso   1.000  H
  H132     1.0000 0.69230  0.35950  0.00040  Biso   1.000  H
  H133     1.0000 0.74020  0.38600  0.05740  Biso   1.000  H
  H134     1.0000 0.68030  0.41690  0.63060  Biso   1.000  H
  H135     1.0000 0.50570  0.45400  0.62820  Biso   1.000  H
  H136     1.0000 0.66040  0.60850  0.81780  Biso   1.000  H
  H137     1.0000 0.72460  0.59490  0.80720  Biso   1.000  H
  H138     1.0000 0.47190  0.43660  0.53940  Biso   1.000  H
  H139     1.0000 0.46560  0.35850  0.51700  Biso   1.000  H
  H140     1.0000 0.47530  0.39160  0.47880  Biso   1.000  H
  H141     1.0000 0.63490  0.36030  0.54620  Biso   1.000  H
  H142     1.0000 0.57550  0.34270  0.48260  Biso   1.000  H
  H143     1.0000 0.56840  0.30980  0.52180  Biso   1.000  H
  H144     1.0000 0.63730  0.46640  0.55880  Biso   1.000  H
  H145     1.0000 0.57530  0.50170  0.55520  Biso   1.000  H
  H146     1.0000 0.57320  0.44360  0.49660  Biso   1.000  H
  H147     1.0000 0.24470  0.82330  0.08000  Biso   1.000  H
  H148     1.0000 0.14340  0.82660  0.08220  Biso   1.000  H
  H149     1.0000 0.03660  0.84920  0.04580  Biso   1.000  H
  H150     1.0000 0.93370  0.84650  0.04400  Biso   1.000  H
  H151     1.0000 0.80810  0.64090  0.00040  Biso   1.000  H
  H152     1.0000 0.81720  0.67140  0.05740  Biso   1.000  H
  H153     1.0000 0.91690  0.18030  0.13060  Biso   1.000  H
  H154     1.0000 0.95400  0.00570  0.12820  Biso   1.000  H
  H155     1.0000 0.10850  0.16040  0.31780  Biso   1.000  H
  H156     1.0000 0.09490  0.22460  0.30720  Biso   1.000  H
  H157     1.0000 0.93660  0.97190  0.03940  Biso   1.000  H
  H158     1.0000 0.85850  0.96560  0.01700  Biso   1.000  H
  H159     1.0000 0.89160  0.97530  0.97880  Biso   1.000  H
  H160     1.0000 0.86030  0.13490  0.04620  Biso   1.000  H
  H161     1.0000 0.84270  0.07550  0.98260  Biso   1.000  H
  H162     1.0000 0.80980  0.06840  0.02180  Biso   1.000  H
  H163     1.0000 0.96640  0.13730  0.05880  Biso   1.000  H
  H164     1.0000 0.00170  0.07530  0.05520  Biso   1.000  H
  H165     1.0000 0.94360  0.07320  0.99660  Biso   1.000  H
  H166     1.0000 0.32330  0.74470  0.58000  Biso   1.000  H
  H167     1.0000 0.32660  0.64340  0.58220  Biso   1.000  H
  H168     1.0000 0.34920  0.53660  0.54580  Biso   1.000  H
  H169     1.0000 0.34650  0.43370  0.54400  Biso   1.000  H
  H170     1.0000 0.14090  0.30810  0.50040  Biso   1.000  H
  H171     1.0000 0.17140  0.31720  0.55740  Biso   1.000  H
  H172     1.0000 0.71370  0.95030  0.13060  Biso   1.000  H
  H173     1.0000 0.67420  0.12250  0.12820  Biso   1.000  H
  H174     1.0000 0.70930  0.15740  0.31780  Biso   1.000  H
  H175     1.0000 0.71230  0.08260  0.30720  Biso   1.000  H
  H176     1.0000 0.60280  0.06750  0.03940  Biso   1.000  H
  H177     1.0000 0.65850  0.05140  0.01700  Biso   1.000  H
  H178     1.0000 0.58720  0.00350  0.97880  Biso   1.000  H
  H179     1.0000 0.68590  0.91130  0.04620  Biso   1.000  H
  H180     1.0000 0.63990  0.90710  0.98260  Biso   1.000  H
  H181     1.0000 0.71200  0.95340  0.02180  Biso   1.000  H
  H182     1.0000 0.59240  0.92150  0.05880  Biso   1.000  H
  H183     1.0000 0.55350  0.97990  0.05520  Biso   1.000  H
  H184     1.0000 0.55300  0.92340  0.99660  Biso   1.000  H
  H185     1.0000 0.75670  0.83530  0.58000  Biso   1.000  H
  H186     1.0000 0.75560  0.93880  0.58220  Biso   1.000  H
  H187     1.0000 0.69660  0.00920  0.54580  Biso   1.000  H
  H188     1.0000 0.69750  0.11030  0.54400  Biso   1.000  H
  H189     1.0000 0.85950  0.19230  0.50040  Biso   1.000  H
  H190     1.0000 0.88600  0.24020  0.55740  Biso   1.000  H
  H191     1.0000 0.18030  0.71370  0.63060  Biso   1.000  H
  H192     1.0000 0.00570  0.67420  0.62820  Biso   1.000  H
  H193     1.0000 0.16040  0.70930  0.81780  Biso   1.000  H
  H194     1.0000 0.22460  0.71230  0.80720  Biso   1.000  H
  H195     1.0000 0.97190  0.60280  0.53940  Biso   1.000  H
  H196     1.0000 0.96560  0.65850  0.51700  Biso   1.000  H
  H197     1.0000 0.97530  0.58720  0.47880  Biso   1.000  H
  H198     1.0000 0.13490  0.68590  0.54620  Biso   1.000  H
  H199     1.0000 0.07550  0.63990  0.48260  Biso   1.000  H
  H200     1.0000 0.06840  0.71200  0.52180  Biso   1.000  H
  H201     1.0000 0.13730  0.59240  0.55880  Biso   1.000  H
  H202     1.0000 0.07530  0.55350  0.55520  Biso   1.000  H
  H203     1.0000 0.07320  0.55300  0.49660  Biso   1.000  H
  H204     1.0000 0.74470  0.75670  0.08000  Biso   1.000  H
  H205     1.0000 0.64340  0.75560  0.08220  Biso   1.000  H
  H206     1.0000 0.53660  0.69660  0.04580  Biso   1.000  H
  H207     1.0000 0.43370  0.69750  0.04400  Biso   1.000  H
  H208     1.0000 0.30810  0.85950  0.00040  Biso   1.000  H
  H209     1.0000 0.31720  0.88600  0.05740  Biso   1.000  H
  H210     1.0000 0.95030  0.91690  0.63060  Biso   1.000  H
  H211     1.0000 0.12250  0.95400  0.62820  Biso   1.000  H
  H212     1.0000 0.15740  0.10850  0.81780  Biso   1.000  H
  H213     1.0000 0.08260  0.09490  0.80720  Biso   1.000  H
  H214     1.0000 0.06750  0.93660  0.53940  Biso   1.000  H
  H215     1.0000 0.05140  0.85850  0.51700  Biso   1.000  H
  H216     1.0000 0.00350  0.89160  0.47880  Biso   1.000  H
  H217     1.0000 0.91130  0.86030  0.54620  Biso   1.000  H
  H218     1.0000 0.90710  0.84270  0.48260  Biso   1.000  H
  H219     1.0000 0.95340  0.80980  0.52180  Biso   1.000  H
  H220     1.0000 0.92150  0.96640  0.55880  Biso   1.000  H
  H221     1.0000 0.97990  0.00170  0.55520  Biso   1.000  H
  H222     1.0000 0.92340  0.94360  0.49660  Biso   1.000  H
  H223     1.0000 0.83530  0.32330  0.08000  Biso   1.000  H
  H224     1.0000 0.93880  0.32660  0.08220  Biso   1.000  H
  H225     1.0000 0.00920  0.34920  0.04580  Biso   1.000  H
  H226     1.0000 0.11030  0.34650  0.04400  Biso   1.000  H
  H227     1.0000 0.19230  0.14090  0.00040  Biso   1.000  H
  H228     1.0000 0.24020  0.17140  0.05740  Biso   1.000  H
  H229     1.0000 0.78630  0.31970  0.86940  Biso   1.000  H
  H230     1.0000 0.82580  0.49430  0.87180  Biso   1.000  H
  H231     1.0000 0.79070  0.33960  0.68220  Biso   1.000  H
  H232     1.0000 0.78770  0.27540  0.69280  Biso   1.000  H
  H233     1.0000 0.89720  0.52810  0.96060  Biso   1.000  H
  H234     1.0000 0.84150  0.53440  0.98300  Biso   1.000  H
  H235     1.0000 0.91280  0.52470  0.02120  Biso   1.000  H
  H236     1.0000 0.81410  0.36510  0.95380  Biso   1.000  H
  H237     1.0000 0.86010  0.42450  0.01740  Biso   1.000  H
  H238     1.0000 0.78800  0.43160  0.97820  Biso   1.000  H
  H239     1.0000 0.90760  0.36270  0.94120  Biso   1.000  H
  H240     1.0000 0.94650  0.42470  0.94480  Biso   1.000  H
  H241     1.0000 0.94700  0.42680  0.00340  Biso   1.000  H
  H242     1.0000 0.74330  0.75530  0.42000  Biso   1.000  H
  H243     1.0000 0.74440  0.85660  0.41780  Biso   1.000  H
  H244     1.0000 0.80340  0.96340  0.45420  Biso   1.000  H
  H245     1.0000 0.80250  0.06630  0.45600  Biso   1.000  H
  H246     1.0000 0.64050  0.19190  0.49960  Biso   1.000  H
  H247     1.0000 0.61400  0.18280  0.44260  Biso   1.000  H
  H248     1.0000 0.58310  0.54970  0.86940  Biso   1.000  H
  H249     1.0000 0.54600  0.37750  0.87180  Biso   1.000  H
  H250     1.0000 0.39150  0.34260  0.68220  Biso   1.000  H
  H251     1.0000 0.40510  0.41740  0.69280  Biso   1.000  H
  H252     1.0000 0.56340  0.43250  0.96060  Biso   1.000  H
  H253     1.0000 0.64150  0.44860  0.98300  Biso   1.000  H
  H254     1.0000 0.60840  0.49650  0.02120  Biso   1.000  H
  H255     1.0000 0.63970  0.58870  0.95380  Biso   1.000  H
  H256     1.0000 0.65730  0.59290  0.01740  Biso   1.000  H
  H257     1.0000 0.69020  0.54660  0.97820  Biso   1.000  H
  H258     1.0000 0.53360  0.57850  0.94120  Biso   1.000  H
  H259     1.0000 0.49830  0.52010  0.94480  Biso   1.000  H
  H260     1.0000 0.55640  0.57660  0.00340  Biso   1.000  H
  H261     1.0000 0.17670  0.66470  0.42000  Biso   1.000  H
  H262     1.0000 0.17340  0.56120  0.41780  Biso   1.000  H
  H263     1.0000 0.15080  0.49080  0.45420  Biso   1.000  H
  H264     1.0000 0.15350  0.38970  0.45600  Biso   1.000  H
  H265     1.0000 0.35910  0.30770  0.49960  Biso   1.000  H
  H266     1.0000 0.32860  0.25980  0.44260  Biso   1.000  H
  H267     1.0000 0.54970  0.78630  0.36940  Biso   1.000  H
  H268     1.0000 0.37750  0.82580  0.37180  Biso   1.000  H
  H269     1.0000 0.34260  0.79070  0.18220  Biso   1.000  H
  H270     1.0000 0.41740  0.78770  0.19280  Biso   1.000  H
  H271     1.0000 0.43250  0.89720  0.46060  Biso   1.000  H
  H272     1.0000 0.44860  0.84150  0.48300  Biso   1.000  H
  H273     1.0000 0.49650  0.91280  0.52120  Biso   1.000  H
  H274     1.0000 0.58870  0.81410  0.45380  Biso   1.000  H
  H275     1.0000 0.59290  0.86010  0.51740  Biso   1.000  H
  H276     1.0000 0.54660  0.78800  0.47820  Biso   1.000  H
  H277     1.0000 0.57850  0.90760  0.44120  Biso   1.000  H
  H278     1.0000 0.52010  0.94650  0.44480  Biso   1.000  H
  H279     1.0000 0.57660  0.94700  0.50340  Biso   1.000  H
  H280     1.0000 0.66470  0.74330  0.92000  Biso   1.000  H
  H281     1.0000 0.56120  0.74440  0.91780  Biso   1.000  H
  H282     1.0000 0.49080  0.80340  0.95420  Biso   1.000  H
  H283     1.0000 0.38970  0.80250  0.95600  Biso   1.000  H
  H284     1.0000 0.30770  0.64050  0.99960  Biso   1.000  H
  H285     1.0000 0.25980  0.61400  0.94260  Biso   1.000  H
  H286     1.0000 0.31970  0.58310  0.36940  Biso   1.000  H
  H287     1.0000 0.49430  0.54600  0.37180  Biso   1.000  H
  H288     1.0000 0.33960  0.39150  0.18220  Biso   1.000  H
  H289     1.0000 0.27540  0.40510  0.19280  Biso   1.000  H
  H290     1.0000 0.52810  0.56340  0.46060  Biso   1.000  H
  H291     1.0000 0.53440  0.64150  0.48300  Biso   1.000  H
  H292     1.0000 0.52470  0.60840  0.52120  Biso   1.000  H
  H293     1.0000 0.36510  0.63970  0.45380  Biso   1.000  H
  H294     1.0000 0.42450  0.65730  0.51740  Biso   1.000  H
  H295     1.0000 0.43160  0.69020  0.47820  Biso   1.000  H
  H296     1.0000 0.36270  0.53360  0.44120  Biso   1.000  H
  H297     1.0000 0.42470  0.49830  0.44480  Biso   1.000  H
  H298     1.0000 0.42680  0.55640  0.50340  Biso   1.000  H
  H299     1.0000 0.75530  0.17670  0.92000  Biso   1.000  H
  H300     1.0000 0.85660  0.17340  0.91780  Biso   1.000  H
  H301     1.0000 0.96340  0.15080  0.95420  Biso   1.000  H
  H302     1.0000 0.06630  0.15350  0.95600  Biso   1.000  H
  H303     1.0000 0.19190  0.35910  0.99960  Biso   1.000  H
  H304     1.0000 0.18280  0.32860  0.94260  Biso   1.000  H
  C1       1.0000 0.01120  0.85267  0.75718  Biso   1.000  C
  C2       1.0000 0.03755  0.81554  0.78776  Biso   1.000  C
  C3       1.0000 0.06462  0.84531  0.84908  Biso   1.000  C
  C4       1.0000 0.06549  0.91112  0.88136  Biso   1.000  C
  C5       1.0000 0.04282  0.94826  0.85046  Biso   1.000  C
  C6       1.0000 0.08015  0.72645  0.71096  Biso   1.000  C
  C7       1.0000 0.91256  0.80072  0.67320  Biso   1.000  C
  C8       1.0000 0.88074  0.75806  0.60754  Biso   1.000  C
  C9       1.0000 0.09307  0.94210  0.94886  Biso   1.000  C
  C10      1.0000 0.10230  0.01300  0.98100  Biso   1.000  C
  C11      1.0000 0.15014  0.91334  0.97708  Biso   1.000  C
  C12      1.0000 0.04024  0.91114  0.96068  Biso   1.000  C
  C13      1.0000 0.70726  0.29342  0.45354  Biso   1.000  C
  C14      1.0000 0.70516  0.35358  0.45172  Biso   1.000  C
  C15      1.0000 0.69195  0.49305  0.47326  Biso   1.000  C
  C16      1.0000 0.69402  0.55438  0.47436  Biso   1.000  C
  C17      1.0000 0.24598  0.90451  0.75718  Biso   1.000  C
  C18      1.0000 0.25021  0.97222  0.78776  Biso   1.000  C
  C19      1.0000 0.28446  0.00377  0.84908  Biso   1.000  C
  C20      1.0000 0.31587  0.97024  0.88136  Biso   1.000  C
  C21      1.0000 0.30764  0.90220  0.85046  Biso   1.000  C
  C22      1.0000 0.13081  0.98451  0.71096  Biso   1.000  C
  C23      1.0000 0.26064  0.87248  0.67320  Biso   1.000  C
  C24      1.0000 0.22680  0.84948  0.60754  Biso   1.000  C
  C25      1.0000 0.35579  0.00676  0.94886  Biso   1.000  C
  C26      1.0000 0.37870  0.96800  0.98100  Biso   1.000  C
  C27      1.0000 0.32694  0.06374  0.97708  Biso   1.000  C
  C28      1.0000 0.42044  0.04954  0.96068  Biso   1.000  C
  C29      1.0000 0.24628  0.16012  0.45354  Biso   1.000  C
  C30      1.0000 0.24656  0.09814  0.45172  Biso   1.000  C
  C31      1.0000 0.28131  0.98021  0.47326  Biso   1.000  C
  C32      1.0000 0.28034  0.91998  0.47436  Biso   1.000  C
  C33      1.0000 0.85267  0.24598  0.25718  Biso   1.000  C
  C34      1.0000 0.81554  0.25021  0.28776  Biso   1.000  C
  C35      1.0000 0.84531  0.28446  0.34908  Biso   1.000  C
  C36      1.0000 0.91112  0.31587  0.38136  Biso   1.000  C
  C37      1.0000 0.94826  0.30764  0.35046  Biso   1.000  C
  C38      1.0000 0.72645  0.13081  0.21096  Biso   1.000  C
  C39      1.0000 0.80072  0.26064  0.17320  Biso   1.000  C
  C40      1.0000 0.75806  0.22680  0.10754  Biso   1.000  C
  C41      1.0000 0.94210  0.35579  0.44886  Biso   1.000  C
  C42      1.0000 0.01300  0.37870  0.48100  Biso   1.000  C
  C43      1.0000 0.91334  0.32694  0.47708  Biso   1.000  C
  C44      1.0000 0.91114  0.42044  0.46068  Biso   1.000  C
  C45      1.0000 0.29342  0.24628  0.95354  Biso   1.000  C
  C46      1.0000 0.35358  0.24656  0.95172  Biso   1.000  C
  C47      1.0000 0.49305  0.28131  0.97326  Biso   1.000  C
  C48      1.0000 0.55438  0.28034  0.97436  Biso   1.000  C
  C49      1.0000 0.90451  0.01120  0.25718  Biso   1.000  C
  C50      1.0000 0.97222  0.03755  0.28776  Biso   1.000  C
  C51      1.0000 0.00377  0.06462  0.34908  Biso   1.000  C
  C52      1.0000 0.97024  0.06549  0.38136  Biso   1.000  C
  C53      1.0000 0.90220  0.04282  0.35046  Biso   1.000  C
  C54      1.0000 0.98451  0.08015  0.21096  Biso   1.000  C
  C55      1.0000 0.87248  0.91256  0.17320  Biso   1.000  C
  C56      1.0000 0.84948  0.88074  0.10754  Biso   1.000  C
  C57      1.0000 0.00676  0.09307  0.44886  Biso   1.000  C
  C58      1.0000 0.96800  0.10230  0.48100  Biso   1.000  C
  C59      1.0000 0.06374  0.15014  0.47708  Biso   1.000  C
  C60      1.0000 0.04954  0.04024  0.46068  Biso   1.000  C
  C61      1.0000 0.16012  0.70726  0.95354  Biso   1.000  C
  C62      1.0000 0.09814  0.70516  0.95172  Biso   1.000  C
  C63      1.0000 0.98021  0.69195  0.97326  Biso   1.000  C
  C64      1.0000 0.91998  0.69402  0.97436  Biso   1.000  C
  C65      1.0000 0.25402  0.64733  0.24282  Biso   1.000  C
  C66      1.0000 0.24979  0.68446  0.21224  Biso   1.000  C
  C67      1.0000 0.21554  0.65469  0.15092  Biso   1.000  C
  C68      1.0000 0.18413  0.58888  0.11864  Biso   1.000  C
  C69      1.0000 0.19236  0.55174  0.14954  Biso   1.000  C
  C70      1.0000 0.36919  0.77355  0.28904  Biso   1.000  C
  C71      1.0000 0.23936  0.69928  0.32680  Biso   1.000  C
  C72      1.0000 0.27320  0.74194  0.39246  Biso   1.000  C
  C73      1.0000 0.14421  0.55790  0.05114  Biso   1.000  C
  C74      1.0000 0.12130  0.48700  0.01900  Biso   1.000  C
  C75      1.0000 0.17306  0.58666  0.02292  Biso   1.000  C
  C76      1.0000 0.07956  0.58886  0.03932  Biso   1.000  C
  C77      1.0000 0.25372  0.20658  0.54646  Biso   1.000  C
  C78      1.0000 0.25344  0.14642  0.54828  Biso   1.000  C
  C79      1.0000 0.21869  0.00695  0.52674  Biso   1.000  C
  C80      1.0000 0.21966  0.94562  0.52564  Biso   1.000  C
  C81      1.0000 0.48880  0.59549  0.24282  Biso   1.000  C
  C82      1.0000 0.46245  0.52778  0.21224  Biso   1.000  C
  C83      1.0000 0.43538  0.49623  0.15092  Biso   1.000  C
  C84      1.0000 0.43451  0.52976  0.11864  Biso   1.000  C
  C85      1.0000 0.45718  0.59780  0.14954  Biso   1.000  C
  C86      1.0000 0.41985  0.51549  0.28904  Biso   1.000  C
  C87      1.0000 0.58744  0.62752  0.32680  Biso   1.000  C
  C88      1.0000 0.61926  0.65052  0.39246  Biso   1.000  C
  C89      1.0000 0.40693  0.49324  0.05114  Biso   1.000  C
  C90      1.0000 0.39770  0.53200  0.01900  Biso   1.000  C
  C91      1.0000 0.34986  0.43626  0.02292  Biso   1.000  C
  C92      1.0000 0.45976  0.45046  0.03932  Biso   1.000  C
  C93      1.0000 0.79274  0.33988  0.54646  Biso   1.000  C
  C94      1.0000 0.79484  0.40186  0.54828  Biso   1.000  C
  C95      1.0000 0.80805  0.51979  0.52674  Biso   1.000  C
  C96      1.0000 0.80598  0.58002  0.52564  Biso   1.000  C
  C97      1.0000 0.59549  0.25402  0.74282  Biso   1.000  C
  C98      1.0000 0.52778  0.24979  0.71224  Biso   1.000  C
  C99      1.0000 0.49623  0.21554  0.65092  Biso   1.000  C
  C100     1.0000 0.52976  0.18413  0.61864  Biso   1.000  C
  C101     1.0000 0.59780  0.19236  0.64954  Biso   1.000  C
  C102     1.0000 0.51549  0.36919  0.78904  Biso   1.000  C
  C103     1.0000 0.62752  0.23936  0.82680  Biso   1.000  C
  C104     1.0000 0.65052  0.27320  0.89246  Biso   1.000  C
  C105     1.0000 0.49324  0.14421  0.55114  Biso   1.000  C
  C106     1.0000 0.53200  0.12130  0.51900  Biso   1.000  C
  C107     1.0000 0.43626  0.17306  0.52292  Biso   1.000  C
  C108     1.0000 0.45046  0.07956  0.53932  Biso   1.000  C
  C109     1.0000 0.33988  0.25372  0.04646  Biso   1.000  C
  C110     1.0000 0.40186  0.25344  0.04828  Biso   1.000  C
  C111     1.0000 0.51979  0.21869  0.02674  Biso   1.000  C
  C112     1.0000 0.58002  0.21966  0.02564  Biso   1.000  C
  C113     1.0000 0.64733  0.48880  0.74282  Biso   1.000  C
  C114     1.0000 0.68446  0.46245  0.71224  Biso   1.000  C
  C115     1.0000 0.65469  0.43538  0.65092  Biso   1.000  C
  C116     1.0000 0.58888  0.43451  0.61864  Biso   1.000  C
  C117     1.0000 0.55174  0.45718  0.64954  Biso   1.000  C
  C118     1.0000 0.77355  0.41985  0.78904  Biso   1.000  C
  C119     1.0000 0.69928  0.58744  0.82680  Biso   1.000  C
  C120     1.0000 0.74194  0.61926  0.89246  Biso   1.000  C
  C121     1.0000 0.55790  0.40693  0.55114  Biso   1.000  C
  C122     1.0000 0.48700  0.39770  0.51900  Biso   1.000  C
  C123     1.0000 0.58666  0.34986  0.52292  Biso   1.000  C
  C124     1.0000 0.58886  0.45976  0.53932  Biso   1.000  C
  C125     1.0000 0.20658  0.79274  0.04646  Biso   1.000  C
  C126     1.0000 0.14642  0.79484  0.04828  Biso   1.000  C
  C127     1.0000 0.00695  0.80805  0.02674  Biso   1.000  C
  C128     1.0000 0.94562  0.80598  0.02564  Biso   1.000  C
  C129     1.0000 0.98880  0.14733  0.24282  Biso   1.000  C
  C130     1.0000 0.96245  0.18446  0.21224  Biso   1.000  C
  C131     1.0000 0.93538  0.15469  0.15092  Biso   1.000  C
  C132     1.0000 0.93451  0.08888  0.11864  Biso   1.000  C
  C133     1.0000 0.95718  0.05174  0.14954  Biso   1.000  C
  C134     1.0000 0.91985  0.27355  0.28904  Biso   1.000  C
  C135     1.0000 0.08744  0.19928  0.32680  Biso   1.000  C
  C136     1.0000 0.11926  0.24194  0.39246  Biso   1.000  C
  C137     1.0000 0.90693  0.05790  0.05114  Biso   1.000  C
  C138     1.0000 0.89770  0.98700  0.01900  Biso   1.000  C
  C139     1.0000 0.84986  0.08666  0.02292  Biso   1.000  C
  C140     1.0000 0.95976  0.08886  0.03932  Biso   1.000  C
  C141     1.0000 0.29274  0.70658  0.54646  Biso   1.000  C
  C142     1.0000 0.29484  0.64642  0.54828  Biso   1.000  C
  C143     1.0000 0.30805  0.50695  0.52674  Biso   1.000  C
  C144     1.0000 0.30598  0.44562  0.52564  Biso   1.000  C
  C145     1.0000 0.75402  0.09549  0.24282  Biso   1.000  C
  C146     1.0000 0.74979  0.02778  0.21224  Biso   1.000  C
  C147     1.0000 0.71554  0.99623  0.15092  Biso   1.000  C
  C148     1.0000 0.68413  0.02976  0.11864  Biso   1.000  C
  C149     1.0000 0.69236  0.09780  0.14954  Biso   1.000  C
  C150     1.0000 0.86919  0.01549  0.28904  Biso   1.000  C
  C151     1.0000 0.73936  0.12752  0.32680  Biso   1.000  C
  C152     1.0000 0.77320  0.15052  0.39246  Biso   1.000  C
  C153     1.0000 0.64421  0.99324  0.05114  Biso   1.000  C
  C154     1.0000 0.62130  0.03200  0.01900  Biso   1.000  C
  C155     1.0000 0.67306  0.93626  0.02292  Biso   1.000  C
  C156     1.0000 0.57956  0.95046  0.03932  Biso   1.000  C
  C157     1.0000 0.75372  0.83988  0.54646  Biso   1.000  C
  C158     1.0000 0.75344  0.90186  0.54828  Biso   1.000  C
  C159     1.0000 0.71869  0.01979  0.52674  Biso   1.000  C
  C160     1.0000 0.71966  0.08002  0.52564  Biso   1.000  C
  C161     1.0000 0.14733  0.75402  0.74282  Biso   1.000  C
  C162     1.0000 0.18446  0.74979  0.71224  Biso   1.000  C
  C163     1.0000 0.15469  0.71554  0.65092  Biso   1.000  C
  C164     1.0000 0.08888  0.68413  0.61864  Biso   1.000  C
  C165     1.0000 0.05174  0.69236  0.64954  Biso   1.000  C
  C166     1.0000 0.27355  0.86919  0.78904  Biso   1.000  C
  C167     1.0000 0.19928  0.73936  0.82680  Biso   1.000  C
  C168     1.0000 0.24194  0.77320  0.89246  Biso   1.000  C
  C169     1.0000 0.05790  0.64421  0.55114  Biso   1.000  C
  C170     1.0000 0.98700  0.62130  0.51900  Biso   1.000  C
  C171     1.0000 0.08666  0.67306  0.52292  Biso   1.000  C
  C172     1.0000 0.08886  0.57956  0.53932  Biso   1.000  C
  C173     1.0000 0.70658  0.75372  0.04646  Biso   1.000  C
  C174     1.0000 0.64642  0.75344  0.04828  Biso   1.000  C
  C175     1.0000 0.50695  0.71869  0.02674  Biso   1.000  C
  C176     1.0000 0.44562  0.71966  0.02564  Biso   1.000  C
  C177     1.0000 0.09549  0.98880  0.74282  Biso   1.000  C
  C178     1.0000 0.02778  0.96245  0.71224  Biso   1.000  C
  C179     1.0000 0.99623  0.93538  0.65092  Biso   1.000  C
  C180     1.0000 0.02976  0.93451  0.61864  Biso   1.000  C
  C181     1.0000 0.09780  0.95718  0.64954  Biso   1.000  C
  C182     1.0000 0.01549  0.91985  0.78904  Biso   1.000  C
  C183     1.0000 0.12752  0.08744  0.82680  Biso   1.000  C
  C184     1.0000 0.15052  0.11926  0.89246  Biso   1.000  C
  C185     1.0000 0.99324  0.90693  0.55114  Biso   1.000  C
  C186     1.0000 0.03200  0.89770  0.51900  Biso   1.000  C
  C187     1.0000 0.93626  0.84986  0.52292  Biso   1.000  C
  C188     1.0000 0.95046  0.95976  0.53932  Biso   1.000  C
  C189     1.0000 0.83988  0.29274  0.04646  Biso   1.000  C
  C190     1.0000 0.90186  0.29484  0.04828  Biso   1.000  C
  C191     1.0000 0.01979  0.30805  0.02674  Biso   1.000  C
  C192     1.0000 0.08002  0.30598  0.02564  Biso   1.000  C
  C193     1.0000 0.74598  0.35267  0.75718  Biso   1.000  C
  C194     1.0000 0.75021  0.31554  0.78776  Biso   1.000  C
  C195     1.0000 0.78446  0.34531  0.84908  Biso   1.000  C
  C196     1.0000 0.81587  0.41112  0.88136  Biso   1.000  C
  C197     1.0000 0.80764  0.44826  0.85046  Biso   1.000  C
  C198     1.0000 0.63081  0.22645  0.71096  Biso   1.000  C
  C199     1.0000 0.76064  0.30072  0.67320  Biso   1.000  C
  C200     1.0000 0.72680  0.25806  0.60754  Biso   1.000  C
  C201     1.0000 0.85579  0.44210  0.94886  Biso   1.000  C
  C202     1.0000 0.87870  0.51300  0.98100  Biso   1.000  C
  C203     1.0000 0.82694  0.41334  0.97708  Biso   1.000  C
  C204     1.0000 0.92044  0.41114  0.96068  Biso   1.000  C
  C205     1.0000 0.74628  0.79342  0.45354  Biso   1.000  C
  C206     1.0000 0.74656  0.85358  0.45172  Biso   1.000  C
  C207     1.0000 0.78131  0.99305  0.47326  Biso   1.000  C
  C208     1.0000 0.78034  0.05438  0.47436  Biso   1.000  C
  C209     1.0000 0.51120  0.40451  0.75718  Biso   1.000  C
  C210     1.0000 0.53755  0.47222  0.78776  Biso   1.000  C
  C211     1.0000 0.56462  0.50377  0.84908  Biso   1.000  C
  C212     1.0000 0.56549  0.47024  0.88136  Biso   1.000  C
  C213     1.0000 0.54282  0.40220  0.85046  Biso   1.000  C
  C214     1.0000 0.58015  0.48451  0.71096  Biso   1.000  C
  C215     1.0000 0.41256  0.37248  0.67320  Biso   1.000  C
  C216     1.0000 0.38074  0.34948  0.60754  Biso   1.000  C
  C217     1.0000 0.59307  0.50676  0.94886  Biso   1.000  C
  C218     1.0000 0.60230  0.46800  0.98100  Biso   1.000  C
  C219     1.0000 0.65014  0.56374  0.97708  Biso   1.000  C
  C220     1.0000 0.54024  0.54954  0.96068  Biso   1.000  C
  C221     1.0000 0.20726  0.66012  0.45354  Biso   1.000  C
  C222     1.0000 0.20516  0.59814  0.45172  Biso   1.000  C
  C223     1.0000 0.19195  0.48021  0.47326  Biso   1.000  C
  C224     1.0000 0.19402  0.41998  0.47436  Biso   1.000  C
  C225     1.0000 0.40451  0.74598  0.25718  Biso   1.000  C
  C226     1.0000 0.47222  0.75021  0.28776  Biso   1.000  C
  C227     1.0000 0.50377  0.78446  0.34908  Biso   1.000  C
  C228     1.0000 0.47024  0.81587  0.38136  Biso   1.000  C
  C229     1.0000 0.40220  0.80764  0.35046  Biso   1.000  C
  C230     1.0000 0.48451  0.63081  0.21096  Biso   1.000  C
  C231     1.0000 0.37248  0.76064  0.17320  Biso   1.000  C
  C232     1.0000 0.34948  0.72680  0.10754  Biso   1.000  C
  C233     1.0000 0.50676  0.85579  0.44886  Biso   1.000  C
  C234     1.0000 0.46800  0.87870  0.48100  Biso   1.000  C
  C235     1.0000 0.56374  0.82694  0.47708  Biso   1.000  C
  C236     1.0000 0.54954  0.92044  0.46068  Biso   1.000  C
  C237     1.0000 0.66012  0.74628  0.95354  Biso   1.000  C
  C238     1.0000 0.59814  0.74656  0.95172  Biso   1.000  C
  C239     1.0000 0.48021  0.78131  0.97326  Biso   1.000  C
  C240     1.0000 0.41998  0.78034  0.97436  Biso   1.000  C
  C241     1.0000 0.35267  0.51120  0.25718  Biso   1.000  C
  C242     1.0000 0.31554  0.53755  0.28776  Biso   1.000  C
  C243     1.0000 0.34531  0.56462  0.34908  Biso   1.000  C
  C244     1.0000 0.41112  0.56549  0.38136  Biso   1.000  C
  C245     1.0000 0.44826  0.54282  0.35046  Biso   1.000  C
  C246     1.0000 0.22645  0.58015  0.21096  Biso   1.000  C
  C247     1.0000 0.30072  0.41256  0.17320  Biso   1.000  C
  C248     1.0000 0.25806  0.38074  0.10754  Biso   1.000  C
  C249     1.0000 0.44210  0.59307  0.44886  Biso   1.000  C
  C250     1.0000 0.51300  0.60230  0.48100  Biso   1.000  C
  C251     1.0000 0.41334  0.65014  0.47708  Biso   1.000  C
  C252     1.0000 0.41114  0.54024  0.46068  Biso   1.000  C
  C253     1.0000 0.79342  0.20726  0.95354  Biso   1.000  C
  C254     1.0000 0.85358  0.20516  0.95172  Biso   1.000  C
  C255     1.0000 0.99305  0.19195  0.97326  Biso   1.000  C
  C256     1.0000 0.05438  0.19402  0.97436  Biso   1.000  C
  C257     1.0000 0.75000  0.40938  0.50000  Biso   1.000  C
  C258     1.0000 0.75000  0.47505  0.50000  Biso   1.000  C
  C259     1.0000 0.25000  0.09062  0.50000  Biso   1.000  C
  C260     1.0000 0.25000  0.02495  0.50000  Biso   1.000  C
  C261     1.0000 0.40938  0.25000  1.00000  Biso   1.000  C
  C262     1.0000 0.47505  0.25000  1.00000  Biso   1.000  C
  C263     1.0000 0.09062  0.75000  0.00000  Biso   1.000  C
  C264     1.0000 0.02495  0.75000  0.00000  Biso   1.000  C
  C265     1.0000 0.25000  0.59062  0.50000  Biso   1.000  C
  C266     1.0000 0.25000  0.52495  0.50000  Biso   1.000  C
  C267     1.0000 0.75000  0.90938  0.50000  Biso   1.000  C
  C268     1.0000 0.75000  0.97505  0.50000  Biso   1.000  C
  C269     1.0000 0.59062  0.75000  1.00000  Biso   1.000  C
  C270     1.0000 0.52495  0.75000  0.00000  Biso   1.000  C
  C271     1.0000 0.90938  0.25000  0.00000  Biso   1.000  C
  C272     1.0000 0.97505  0.25000  0.00000  Biso   1.000  C
  S1       1.0000 0.03128  0.72924  0.74820  Biso   1.000  S
  S2       1.0000 0.21692  0.01896  0.74820  Biso   1.000  S
  S3       1.0000 0.72924  0.21692  0.24820  Biso   1.000  S
  S4       1.0000 0.01896  0.03128  0.24820  Biso   1.000  S
  S5       1.0000 0.28308  0.77076  0.25180  Biso   1.000  S
  S6       1.0000 0.46872  0.48104  0.25180  Biso   1.000  S
  S7       1.0000 0.48104  0.28308  0.75180  Biso   1.000  S
  S8       1.0000 0.77076  0.46872  0.75180  Biso   1.000  S
  S9       1.0000 0.96872  0.27076  0.25180  Biso   1.000  S
  S10      1.0000 0.78308  0.98104  0.25180  Biso   1.000  S
  S11      1.0000 0.27076  0.78308  0.75180  Biso   1.000  S
  S12      1.0000 0.98104  0.96872  0.75180  Biso   1.000  S
  S13      1.0000 0.71692  0.22924  0.74820  Biso   1.000  S
  S14      1.0000 0.53128  0.51896  0.74820  Biso   1.000  S
  S15      1.0000 0.51896  0.71692  0.24820  Biso   1.000  S
  S16      1.0000 0.22924  0.53128  0.24820  Biso   1.000  S
  N1       1.0000 0.75000  0.28630  0.50000  Biso   1.000  N
  N2       1.0000 0.75000  0.59805  0.50000  Biso   1.000  N
  N3       1.0000 0.25000  0.21370  0.50000  Biso   1.000  N
  N4       1.0000 0.25000  0.90195  0.50000  Biso   1.000  N
  N5       1.0000 0.28630  0.25000  1.00000  Biso   1.000  N
  N6       1.0000 0.59805  0.25000  0.00000  Biso   1.000  N
  N7       1.0000 0.21370  0.75000  0.00000  Biso   1.000  N
  N8       1.0000 0.90195  0.75000  1.00000  Biso   1.000  N
  N9       1.0000 0.25000  0.71370  0.50000  Biso   1.000  N
  N10      1.0000 0.25000  0.40195  0.50000  Biso   1.000  N
  N11      1.0000 0.75000  0.78630  0.50000  Biso   1.000  N
  N12      1.0000 0.75000  0.09805  0.50000  Biso   1.000  N
  N13      1.0000 0.71370  0.75000  1.00000  Biso   1.000  N
  N14      1.0000 0.40195  0.75000  1.00000  Biso   1.000  N
  N15      1.0000 0.78630  0.25000  0.00000  Biso   1.000  N
  N16      1.0000 0.09805  0.25000  0.00000  Biso   1.000  N
  O1       1.0000 0.98193  0.82282  0.69646  Biso   1.000  O
  O2       1.0000 0.81949  0.73582  0.58672  Biso   1.000  O
  O3       1.0000 0.91335  0.74792  0.57998  Biso   1.000  O
  O4       1.0000 0.82389  0.67718  0.46932  Biso   1.000  O
  O5       1.0000 0.21453  0.87364  0.69646  Biso   1.000  O
  O6       1.0000 0.26723  0.85090  0.58672  Biso   1.000  O
  O7       1.0000 0.16663  0.83206  0.57998  Biso   1.000  O
  O8       1.0000 0.14543  0.79214  0.46932  Biso   1.000  O
  O9       1.0000 0.82282  0.21453  0.19646  Biso   1.000  O
  O10      1.0000 0.73582  0.26723  0.08672  Biso   1.000  O
  O11      1.0000 0.74792  0.16663  0.07998  Biso   1.000  O
  O12      1.0000 0.67718  0.14543  0.96932  Biso   1.000  O
  O13      1.0000 0.87364  0.98193  0.19646  Biso   1.000  O
  O14      1.0000 0.85090  0.81949  0.08672  Biso   1.000  O
  O15      1.0000 0.83206  0.91335  0.07998  Biso   1.000  O
  O16      1.0000 0.79214  0.82389  0.96932  Biso   1.000  O
  O17      1.0000 0.28547  0.67718  0.30354  Biso   1.000  O
  O18      1.0000 0.23277  0.76418  0.41328  Biso   1.000  O
  O19      1.0000 0.33337  0.75208  0.42002  Biso   1.000  O
  O20      1.0000 0.35457  0.82282  0.53068  Biso   1.000  O
  O21      1.0000 0.51807  0.62636  0.30354  Biso   1.000  O
  O22      1.0000 0.68051  0.64910  0.41328  Biso   1.000  O
  O23      1.0000 0.58665  0.66794  0.42002  Biso   1.000  O
  O24      1.0000 0.67611  0.70786  0.53068  Biso   1.000  O
  O25      1.0000 0.62636  0.28547  0.80354  Biso   1.000  O
  O26      1.0000 0.64910  0.23277  0.91328  Biso   1.000  O
  O27      1.0000 0.66794  0.33337  0.92002  Biso   1.000  O
  O28      1.0000 0.70786  0.35457  0.03068  Biso   1.000  O
  O29      1.0000 0.67718  0.51807  0.80354  Biso   1.000  O
  O30      1.0000 0.76418  0.68051  0.91328  Biso   1.000  O
  O31      1.0000 0.75208  0.58665  0.92002  Biso   1.000  O
  O32      1.0000 0.82282  0.67611  0.03068  Biso   1.000  O
  O33      1.0000 0.01807  0.17718  0.30354  Biso   1.000  O
  O34      1.0000 0.18051  0.26418  0.41328  Biso   1.000  O
  O35      1.0000 0.08665  0.25208  0.42002  Biso   1.000  O
  O36      1.0000 0.17611  0.32282  0.53068  Biso   1.000  O
  O37      1.0000 0.78547  0.12636  0.30354  Biso   1.000  O
  O38      1.0000 0.73277  0.14910  0.41328  Biso   1.000  O
  O39      1.0000 0.83337  0.16794  0.42002  Biso   1.000  O
  O40      1.0000 0.85457  0.20786  0.53068  Biso   1.000  O
  O41      1.0000 0.17718  0.78547  0.80354  Biso   1.000  O
  O42      1.0000 0.26418  0.73277  0.91328  Biso   1.000  O
  O43      1.0000 0.25208  0.83337  0.92002  Biso   1.000  O
  O44      1.0000 0.32282  0.85457  0.03068  Biso   1.000  O
  O45      1.0000 0.12636  0.01807  0.80354  Biso   1.000  O
  O46      1.0000 0.14910  0.18051  0.91328  Biso   1.000  O
  O47      1.0000 0.16794  0.08665  0.92002  Biso   1.000  O
  O48      1.0000 0.20786  0.17611  0.03068  Biso   1.000  O
  O49      1.0000 0.71453  0.32282  0.69646  Biso   1.000  O
  O50      1.0000 0.76723  0.23582  0.58672  Biso   1.000  O
  O51      1.0000 0.66663  0.24792  0.57998  Biso   1.000  O
  O52      1.0000 0.64543  0.17718  0.46932  Biso   1.000  O
  O53      1.0000 0.48193  0.37364  0.69646  Biso   1.000  O
  O54      1.0000 0.31949  0.35090  0.58672  Biso   1.000  O
  O55      1.0000 0.41335  0.33206  0.57998  Biso   1.000  O
  O56      1.0000 0.32389  0.29214  0.46932  Biso   1.000  O
  O57      1.0000 0.37364  0.71453  0.19646  Biso   1.000  O
  O58      1.0000 0.35090  0.76723  0.08672  Biso   1.000  O
  O59      1.0000 0.33206  0.66663  0.07998  Biso   1.000  O
  O60      1.0000 0.29214  0.64543  0.96932  Biso   1.000  O
  O61      1.0000 0.32282  0.48193  0.19646  Biso   1.000  O
  O62      1.0000 0.23582  0.31949  0.08672  Biso   1.000  O
  O63      1.0000 0.24792  0.41335  0.07998  Biso   1.000  O
  O64      1.0000 0.17718  0.32389  0.96932  Biso   1.000  O
