data_image0
_cell_length_a       8.8824
_cell_length_b       61.248
_cell_length_c       33.689
_cell_angle_alpha    90
_cell_angle_beta     90
_cell_angle_gamma    90

_symmetry_space_group_name_H-M    "P 1"
_symmetry_int_tables_number       1

loop_
  _symmetry_equiv_pos_as_xyz
  'x, y, z'

loop_
  _atom_site_label
  _atom_site_occupancy
  _atom_site_fract_x
  _atom_site_fract_y
  _atom_site_fract_z
  _atom_site_thermal_displace_type
  _atom_site_B_iso_or_equiv
  _atom_site_type_symbol
  Sc1      1.0000 0.25410  0.58330  0.42633  Biso   1.000  Sc
  Sc2      1.0000 0.75100  0.58330  0.40467  Biso   1.000  Sc
  O1       1.0000 0.12130  0.61027  0.43850  Biso   1.000  O
  O2       1.0000 0.87970  0.60983  0.41980  Biso   1.000  O
  O3       1.0000 0.12100  0.72181  0.40780  Biso   1.000  O
  O4       1.0000 0.88800  0.72296  0.42710  Biso   1.000  O
  O5       1.0000 0.61620  0.73400  0.46770  Biso   1.000  O
  O6       1.0000 0.38210  0.73760  0.44780  Biso   1.000  O
  O7       1.0000 0.37330  0.67253  0.62700  Biso   1.000  O
  O8       1.0000 0.13590  0.67468  0.60560  Biso   1.000  O
  O9       1.0000 0.87260  0.64621  0.61860  Biso   1.000  O
  O10      1.0000 0.63850  0.64690  0.64220  Biso   1.000  O
  O11      1.0000 0.62410  0.58808  0.45410  Biso   1.000  O
  O12      1.0000 0.38810  0.59062  0.47580  Biso   1.000  O
  O13      1.0000 0.11130  0.56473  0.46300  Biso   1.000  O
  O14      1.0000 0.88320  0.56232  0.43760  Biso   1.000  O
  O15      1.0000 0.86860  0.51290  0.63250  Biso   1.000  O
  O16      1.0000 0.63670  0.51220  0.60950  Biso   1.000  O
  O17      1.0000 0.61700  0.55679  0.39090  Biso   1.000  O
  O18      1.0000 0.37630  0.55614  0.41140  Biso   1.000  O
  C1       1.0000 0.00200  0.61960  0.42800  Biso   1.000  C
  C2       1.0000 0.13750  0.65481  0.42480  Biso   1.000  C
  H1       1.0000 0.22760  0.64710  0.42400  Biso   1.000  H
  C3       1.0000 0.13870  0.67748  0.42290  Biso   1.000  C
  H2       1.0000 0.22960  0.68490  0.42090  Biso   1.000  H
  C4       1.0000 0.00400  0.68902  0.42400  Biso   1.000  C
  C5       1.0000 0.86810  0.67789  0.42700  Biso   1.000  C
  H3       1.0000 0.77800  0.68560  0.42780  Biso   1.000  H
  C6       1.0000 0.86690  0.65522  0.42890  Biso   1.000  C
  H4       1.0000 0.77600  0.64780  0.43090  Biso   1.000  H
  C7       1.0000 0.00160  0.64368  0.42780  Biso   1.000  C
  C8       1.0000 0.00100  0.71280  0.41780  Biso   1.000  C
  C9       1.0000 0.48000  0.72970  0.46990  Biso   1.000  C
  C10      1.0000 0.32620  0.69173  0.56740  Biso   1.000  C
  C11      1.0000 0.22600  0.69828  0.53800  Biso   1.000  C
  H5       1.0000 0.12530  0.69420  0.53950  Biso   1.000  H
  C12      1.0000 0.27640  0.71092  0.50640  Biso   1.000  C
  H6       1.0000 0.20940  0.71530  0.48680  Biso   1.000  H
  C13      1.0000 0.42690  0.71700  0.50420  Biso   1.000  C
  C14      1.0000 0.52710  0.71045  0.53360  Biso   1.000  C
  H7       1.0000 0.62780  0.71450  0.53210  Biso   1.000  H
  C15      1.0000 0.47670  0.69782  0.56520  Biso   1.000  C
  H8       1.0000 0.54370  0.69340  0.58490  Biso   1.000  H
  C16      1.0000 0.27300  0.67880  0.60290  Biso   1.000  C
  C17      1.0000 0.73600  0.64170  0.61640  Biso   1.000  C
  C18      1.0000 0.48060  0.61141  0.54410  Biso   1.000  C
  H9       1.0000 0.37930  0.60790  0.54110  Biso   1.000  H
  C19      1.0000 0.58440  0.60494  0.51550  Biso   1.000  C
  C20      1.0000 0.73570  0.61019  0.52000  Biso   1.000  C
  H10      1.0000 0.80510  0.60590  0.50090  Biso   1.000  H
  C21      1.0000 0.78310  0.62191  0.55310  Biso   1.000  C
  H11      1.0000 0.88440  0.62540  0.55610  Biso   1.000  H
  C22      1.0000 0.67930  0.62838  0.58160  Biso   1.000  C
  C23      1.0000 0.52800  0.62313  0.57710  Biso   1.000  C
  H12      1.0000 0.45860  0.62750  0.59620  Biso   1.000  H
  C24      1.0000 0.52200  0.59400  0.47930  Biso   1.000  C
  C25      1.0000 0.97800  0.55897  0.46490  Biso   1.000  C
  C26      1.0000 0.02630  0.54448  0.53220  Biso   1.000  C
  H13      1.0000 0.12560  0.54920  0.53040  Biso   1.000  H
  C27      1.0000 0.97710  0.53366  0.56600  Biso   1.000  C
  H14      1.0000 0.04340  0.53120  0.58690  Biso   1.000  H
  C28      1.0000 0.82880  0.52658  0.56870  Biso   1.000  C
  C29      1.0000 0.72970  0.53033  0.53750  Biso   1.000  C
  H15      1.0000 0.63040  0.52560  0.53930  Biso   1.000  H
  C30      1.0000 0.77890  0.54114  0.50360  Biso   1.000  C
  H16      1.0000 0.71260  0.54360  0.48280  Biso   1.000  H
  C31      1.0000 0.92730  0.54822  0.50100  Biso   1.000  C
  C32      1.0000 0.77400  0.51630  0.60650  Biso   1.000  C
  C33      1.0000 0.49600  0.54706  0.39920  Biso   1.000  C
  C34      1.0000 0.49840  0.52238  0.39780  Biso   1.000  C
  C35      1.0000 0.63300  0.51144  0.39660  Biso   1.000  C
  H17      1.0000 0.72270  0.51920  0.39520  Biso   1.000  H
  C36      1.0000 0.63600  0.48896  0.39760  Biso   1.000  C
  H18      1.0000 0.72720  0.48150  0.39810  Biso   1.000  H
  Sc3      1.0000 0.25410  0.08330  0.92633  Biso   1.000  Sc
  Sc4      1.0000 0.75100  0.08330  0.90467  Biso   1.000  Sc
  O19      1.0000 0.12130  0.11027  0.93850  Biso   1.000  O
  O20      1.0000 0.87970  0.10983  0.91980  Biso   1.000  O
  O21      1.0000 0.12100  0.22181  0.90780  Biso   1.000  O
  O22      1.0000 0.88800  0.22296  0.92710  Biso   1.000  O
  O23      1.0000 0.61620  0.23400  0.96770  Biso   1.000  O
  O24      1.0000 0.38210  0.23760  0.94780  Biso   1.000  O
  O25      1.0000 0.37330  0.17253  0.12700  Biso   1.000  O
  O26      1.0000 0.13590  0.17468  0.10560  Biso   1.000  O
  O27      1.0000 0.87260  0.14621  0.11860  Biso   1.000  O
  O28      1.0000 0.63850  0.14690  0.14220  Biso   1.000  O
  O29      1.0000 0.62410  0.08808  0.95410  Biso   1.000  O
  O30      1.0000 0.38810  0.09062  0.97580  Biso   1.000  O
  O31      1.0000 0.11130  0.06473  0.96300  Biso   1.000  O
  O32      1.0000 0.88320  0.06232  0.93760  Biso   1.000  O
  O33      1.0000 0.86860  0.01290  0.13250  Biso   1.000  O
  O34      1.0000 0.63670  0.01220  0.10950  Biso   1.000  O
  O35      1.0000 0.61700  0.05679  0.89090  Biso   1.000  O
  O36      1.0000 0.37630  0.05614  0.91140  Biso   1.000  O
  C37      1.0000 0.00200  0.11960  0.92800  Biso   1.000  C
  C38      1.0000 0.13750  0.15481  0.92480  Biso   1.000  C
  H19      1.0000 0.22760  0.14710  0.92400  Biso   1.000  H
  C39      1.0000 0.13870  0.17748  0.92290  Biso   1.000  C
  H20      1.0000 0.22960  0.18490  0.92090  Biso   1.000  H
  C40      1.0000 0.00400  0.18902  0.92400  Biso   1.000  C
  C41      1.0000 0.86810  0.17789  0.92700  Biso   1.000  C
  H21      1.0000 0.77800  0.18560  0.92780  Biso   1.000  H
  C42      1.0000 0.86690  0.15522  0.92890  Biso   1.000  C
  H22      1.0000 0.77600  0.14780  0.93090  Biso   1.000  H
  C43      1.0000 0.00160  0.14368  0.92780  Biso   1.000  C
  C44      1.0000 0.00100  0.21280  0.91780  Biso   1.000  C
  C45      1.0000 0.48000  0.22970  0.96990  Biso   1.000  C
  C46      1.0000 0.32620  0.19173  0.06740  Biso   1.000  C
  C47      1.0000 0.22600  0.19828  0.03800  Biso   1.000  C
  H23      1.0000 0.12530  0.19420  0.03950  Biso   1.000  H
  C48      1.0000 0.27640  0.21092  0.00640  Biso   1.000  C
  H24      1.0000 0.20940  0.21530  0.98680  Biso   1.000  H
  C49      1.0000 0.42690  0.21700  0.00420  Biso   1.000  C
  C50      1.0000 0.52710  0.21045  0.03360  Biso   1.000  C
  H25      1.0000 0.62780  0.21450  0.03210  Biso   1.000  H
  C51      1.0000 0.47670  0.19782  0.06520  Biso   1.000  C
  H26      1.0000 0.54370  0.19340  0.08490  Biso   1.000  H
  C52      1.0000 0.27300  0.17880  0.10290  Biso   1.000  C
  C53      1.0000 0.73600  0.14170  0.11640  Biso   1.000  C
  C54      1.0000 0.48060  0.11141  0.04410  Biso   1.000  C
  H27      1.0000 0.37930  0.10790  0.04110  Biso   1.000  H
  C55      1.0000 0.58440  0.10494  0.01550  Biso   1.000  C
  C56      1.0000 0.73570  0.11019  0.02000  Biso   1.000  C
  H28      1.0000 0.80510  0.10590  0.00090  Biso   1.000  H
  C57      1.0000 0.78310  0.12191  0.05310  Biso   1.000  C
  H29      1.0000 0.88440  0.12540  0.05610  Biso   1.000  H
  C58      1.0000 0.67930  0.12838  0.08160  Biso   1.000  C
  C59      1.0000 0.52800  0.12313  0.07710  Biso   1.000  C
  H30      1.0000 0.45860  0.12750  0.09620  Biso   1.000  H
  C60      1.0000 0.52200  0.09400  0.97930  Biso   1.000  C
  C61      1.0000 0.97800  0.05897  0.96490  Biso   1.000  C
  C62      1.0000 0.02630  0.04448  0.03220  Biso   1.000  C
  H31      1.0000 0.12560  0.04920  0.03040  Biso   1.000  H
  C63      1.0000 0.97710  0.03366  0.06600  Biso   1.000  C
  H32      1.0000 0.04340  0.03120  0.08690  Biso   1.000  H
  C64      1.0000 0.82880  0.02658  0.06870  Biso   1.000  C
  C65      1.0000 0.72970  0.03033  0.03750  Biso   1.000  C
  H33      1.0000 0.63040  0.02560  0.03930  Biso   1.000  H
  C66      1.0000 0.77890  0.04114  0.00360  Biso   1.000  C
  H34      1.0000 0.71260  0.04360  0.98280  Biso   1.000  H
  C67      1.0000 0.92730  0.04822  0.00100  Biso   1.000  C
  C68      1.0000 0.77400  0.01630  0.10650  Biso   1.000  C
  C69      1.0000 0.49600  0.04706  0.89920  Biso   1.000  C
  C70      1.0000 0.49840  0.02238  0.89780  Biso   1.000  C
  C71      1.0000 0.63300  0.01144  0.89660  Biso   1.000  C
  H35      1.0000 0.72270  0.01920  0.89520  Biso   1.000  H
  C72      1.0000 0.63600  0.98896  0.89760  Biso   1.000  C
  H36      1.0000 0.72720  0.98150  0.89810  Biso   1.000  H
  Sc5      1.0000 0.75410  0.58330  0.92633  Biso   1.000  Sc
  Sc6      1.0000 0.25100  0.58330  0.90467  Biso   1.000  Sc
  O37      1.0000 0.62130  0.61027  0.93850  Biso   1.000  O
  O38      1.0000 0.37970  0.60983  0.91980  Biso   1.000  O
  O39      1.0000 0.62100  0.72181  0.90780  Biso   1.000  O
  O40      1.0000 0.38800  0.72296  0.92710  Biso   1.000  O
  O41      1.0000 0.11620  0.73400  0.96770  Biso   1.000  O
  O42      1.0000 0.88210  0.73760  0.94780  Biso   1.000  O
  O43      1.0000 0.87330  0.67253  0.12700  Biso   1.000  O
  O44      1.0000 0.63590  0.67468  0.10560  Biso   1.000  O
  O45      1.0000 0.37260  0.64621  0.11860  Biso   1.000  O
  O46      1.0000 0.13850  0.64690  0.14220  Biso   1.000  O
  O47      1.0000 0.12410  0.58808  0.95410  Biso   1.000  O
  O48      1.0000 0.88810  0.59062  0.97580  Biso   1.000  O
  O49      1.0000 0.61130  0.56473  0.96300  Biso   1.000  O
  O50      1.0000 0.38320  0.56232  0.93760  Biso   1.000  O
  O51      1.0000 0.36860  0.51290  0.13250  Biso   1.000  O
  O52      1.0000 0.13670  0.51220  0.10950  Biso   1.000  O
  O53      1.0000 0.11700  0.55679  0.89090  Biso   1.000  O
  O54      1.0000 0.87630  0.55614  0.91140  Biso   1.000  O
  C73      1.0000 0.50200  0.61960  0.92800  Biso   1.000  C
  C74      1.0000 0.63750  0.65481  0.92480  Biso   1.000  C
  H37      1.0000 0.72760  0.64710  0.92400  Biso   1.000  H
  C75      1.0000 0.63870  0.67748  0.92290  Biso   1.000  C
  H38      1.0000 0.72960  0.68490  0.92090  Biso   1.000  H
  C76      1.0000 0.50400  0.68902  0.92400  Biso   1.000  C
  C77      1.0000 0.36810  0.67789  0.92700  Biso   1.000  C
  H39      1.0000 0.27800  0.68560  0.92780  Biso   1.000  H
  C78      1.0000 0.36690  0.65522  0.92890  Biso   1.000  C
  H40      1.0000 0.27600  0.64780  0.93090  Biso   1.000  H
  C79      1.0000 0.50160  0.64368  0.92780  Biso   1.000  C
  C80      1.0000 0.50100  0.71280  0.91780  Biso   1.000  C
  C81      1.0000 0.98000  0.72970  0.96990  Biso   1.000  C
  C82      1.0000 0.82620  0.69173  0.06740  Biso   1.000  C
  C83      1.0000 0.72600  0.69828  0.03800  Biso   1.000  C
  H41      1.0000 0.62530  0.69420  0.03950  Biso   1.000  H
  C84      1.0000 0.77640  0.71092  0.00640  Biso   1.000  C
  H42      1.0000 0.70940  0.71530  0.98680  Biso   1.000  H
  C85      1.0000 0.92690  0.71700  0.00420  Biso   1.000  C
  C86      1.0000 0.02710  0.71045  0.03360  Biso   1.000  C
  H43      1.0000 0.12780  0.71450  0.03210  Biso   1.000  H
  C87      1.0000 0.97670  0.69782  0.06520  Biso   1.000  C
  H44      1.0000 0.04370  0.69340  0.08490  Biso   1.000  H
  C88      1.0000 0.77300  0.67880  0.10290  Biso   1.000  C
  C89      1.0000 0.23600  0.64170  0.11640  Biso   1.000  C
  C90      1.0000 0.98060  0.61141  0.04410  Biso   1.000  C
  H45      1.0000 0.87930  0.60790  0.04110  Biso   1.000  H
  C91      1.0000 0.08440  0.60494  0.01550  Biso   1.000  C
  C92      1.0000 0.23570  0.61019  0.02000  Biso   1.000  C
  H46      1.0000 0.30510  0.60590  0.00090  Biso   1.000  H
  C93      1.0000 0.28310  0.62191  0.05310  Biso   1.000  C
  H47      1.0000 0.38440  0.62540  0.05610  Biso   1.000  H
  C94      1.0000 0.17930  0.62838  0.08160  Biso   1.000  C
  C95      1.0000 0.02800  0.62313  0.07710  Biso   1.000  C
  H48      1.0000 0.95860  0.62750  0.09620  Biso   1.000  H
  C96      1.0000 0.02200  0.59400  0.97930  Biso   1.000  C
  C97      1.0000 0.47800  0.55897  0.96490  Biso   1.000  C
  C98      1.0000 0.52630  0.54448  0.03220  Biso   1.000  C
  H49      1.0000 0.62560  0.54920  0.03040  Biso   1.000  H
  C99      1.0000 0.47710  0.53366  0.06600  Biso   1.000  C
  H50      1.0000 0.54340  0.53120  0.08690  Biso   1.000  H
  C100     1.0000 0.32880  0.52658  0.06870  Biso   1.000  C
  C101     1.0000 0.22970  0.53033  0.03750  Biso   1.000  C
  H51      1.0000 0.13040  0.52560  0.03930  Biso   1.000  H
  C102     1.0000 0.27890  0.54114  0.00360  Biso   1.000  C
  H52      1.0000 0.21260  0.54360  0.98280  Biso   1.000  H
  C103     1.0000 0.42730  0.54822  0.00100  Biso   1.000  C
  C104     1.0000 0.27400  0.51630  0.10650  Biso   1.000  C
  C105     1.0000 0.99600  0.54706  0.89920  Biso   1.000  C
  C106     1.0000 0.99840  0.52238  0.89780  Biso   1.000  C
  C107     1.0000 0.13300  0.51144  0.89660  Biso   1.000  C
  H53      1.0000 0.22270  0.51920  0.89520  Biso   1.000  H
  C108     1.0000 0.13600  0.48896  0.89760  Biso   1.000  C
  H54      1.0000 0.22720  0.48150  0.89810  Biso   1.000  H
  Sc7      1.0000 0.75410  0.08330  0.42633  Biso   1.000  Sc
  Sc8      1.0000 0.25100  0.08330  0.40467  Biso   1.000  Sc
  O55      1.0000 0.62130  0.11027  0.43850  Biso   1.000  O
  O56      1.0000 0.37970  0.10983  0.41980  Biso   1.000  O
  O57      1.0000 0.62100  0.22181  0.40780  Biso   1.000  O
  O58      1.0000 0.38800  0.22296  0.42710  Biso   1.000  O
  O59      1.0000 0.11620  0.23400  0.46770  Biso   1.000  O
  O60      1.0000 0.88210  0.23760  0.44780  Biso   1.000  O
  O61      1.0000 0.87330  0.17253  0.62700  Biso   1.000  O
  O62      1.0000 0.63590  0.17468  0.60560  Biso   1.000  O
  O63      1.0000 0.37260  0.14621  0.61860  Biso   1.000  O
  O64      1.0000 0.13850  0.14690  0.64220  Biso   1.000  O
  O65      1.0000 0.12410  0.08808  0.45410  Biso   1.000  O
  O66      1.0000 0.88810  0.09062  0.47580  Biso   1.000  O
  O67      1.0000 0.61130  0.06473  0.46300  Biso   1.000  O
  O68      1.0000 0.38320  0.06232  0.43760  Biso   1.000  O
  O69      1.0000 0.36860  0.01290  0.63250  Biso   1.000  O
  O70      1.0000 0.13670  0.01220  0.60950  Biso   1.000  O
  O71      1.0000 0.11700  0.05679  0.39090  Biso   1.000  O
  O72      1.0000 0.87630  0.05614  0.41140  Biso   1.000  O
  C109     1.0000 0.50200  0.11960  0.42800  Biso   1.000  C
  C110     1.0000 0.63750  0.15481  0.42480  Biso   1.000  C
  H55      1.0000 0.72760  0.14710  0.42400  Biso   1.000  H
  C111     1.0000 0.63870  0.17748  0.42290  Biso   1.000  C
  H56      1.0000 0.72960  0.18490  0.42090  Biso   1.000  H
  C112     1.0000 0.50400  0.18902  0.42400  Biso   1.000  C
  C113     1.0000 0.36810  0.17789  0.42700  Biso   1.000  C
  H57      1.0000 0.27800  0.18560  0.42780  Biso   1.000  H
  C114     1.0000 0.36690  0.15522  0.42890  Biso   1.000  C
  H58      1.0000 0.27600  0.14780  0.43090  Biso   1.000  H
  C115     1.0000 0.50160  0.14368  0.42780  Biso   1.000  C
  C116     1.0000 0.50100  0.21280  0.41780  Biso   1.000  C
  C117     1.0000 0.98000  0.22970  0.46990  Biso   1.000  C
  C118     1.0000 0.82620  0.19173  0.56740  Biso   1.000  C
  C119     1.0000 0.72600  0.19828  0.53800  Biso   1.000  C
  H59      1.0000 0.62530  0.19420  0.53950  Biso   1.000  H
  C120     1.0000 0.77640  0.21092  0.50640  Biso   1.000  C
  H60      1.0000 0.70940  0.21530  0.48680  Biso   1.000  H
  C121     1.0000 0.92690  0.21700  0.50420  Biso   1.000  C
  C122     1.0000 0.02710  0.21045  0.53360  Biso   1.000  C
  H61      1.0000 0.12780  0.21450  0.53210  Biso   1.000  H
  C123     1.0000 0.97670  0.19782  0.56520  Biso   1.000  C
  H62      1.0000 0.04370  0.19340  0.58490  Biso   1.000  H
  C124     1.0000 0.77300  0.17880  0.60290  Biso   1.000  C
  C125     1.0000 0.23600  0.14170  0.61640  Biso   1.000  C
  C126     1.0000 0.98060  0.11141  0.54410  Biso   1.000  C
  H63      1.0000 0.87930  0.10790  0.54110  Biso   1.000  H
  C127     1.0000 0.08440  0.10494  0.51550  Biso   1.000  C
  C128     1.0000 0.23570  0.11019  0.52000  Biso   1.000  C
  H64      1.0000 0.30510  0.10590  0.50090  Biso   1.000  H
  C129     1.0000 0.28310  0.12191  0.55310  Biso   1.000  C
  H65      1.0000 0.38440  0.12540  0.55610  Biso   1.000  H
  C130     1.0000 0.17930  0.12838  0.58160  Biso   1.000  C
  C131     1.0000 0.02800  0.12313  0.57710  Biso   1.000  C
  H66      1.0000 0.95860  0.12750  0.59620  Biso   1.000  H
  C132     1.0000 0.02200  0.09400  0.47930  Biso   1.000  C
  C133     1.0000 0.47800  0.05897  0.46490  Biso   1.000  C
  C134     1.0000 0.52630  0.04448  0.53220  Biso   1.000  C
  H67      1.0000 0.62560  0.04920  0.53040  Biso   1.000  H
  C135     1.0000 0.47710  0.03366  0.56600  Biso   1.000  C
  H68      1.0000 0.54340  0.03120  0.58690  Biso   1.000  H
  C136     1.0000 0.32880  0.02658  0.56870  Biso   1.000  C
  C137     1.0000 0.22970  0.03033  0.53750  Biso   1.000  C
  H69      1.0000 0.13040  0.02560  0.53930  Biso   1.000  H
  C138     1.0000 0.27890  0.04114  0.50360  Biso   1.000  C
  H70      1.0000 0.21260  0.04360  0.48280  Biso   1.000  H
  C139     1.0000 0.42730  0.04822  0.50100  Biso   1.000  C
  C140     1.0000 0.27400  0.01630  0.60650  Biso   1.000  C
  C141     1.0000 0.99600  0.04706  0.39920  Biso   1.000  C
  C142     1.0000 0.99840  0.02238  0.39780  Biso   1.000  C
  C143     1.0000 0.13300  0.01144  0.39660  Biso   1.000  C
  H71      1.0000 0.22270  0.01920  0.39520  Biso   1.000  H
  C144     1.0000 0.13600  0.98896  0.39760  Biso   1.000  C
  H72      1.0000 0.22720  0.98150  0.39810  Biso   1.000  H
  Sc9      1.0000 0.74590  0.41670  0.42633  Biso   1.000  Sc
  Sc10     1.0000 0.24900  0.41670  0.40467  Biso   1.000  Sc
  O73      1.0000 0.87870  0.38973  0.43850  Biso   1.000  O
  O74      1.0000 0.12030  0.39017  0.41980  Biso   1.000  O
  O75      1.0000 0.87900  0.27819  0.40780  Biso   1.000  O
  O76      1.0000 0.11200  0.27704  0.42710  Biso   1.000  O
  O77      1.0000 0.38380  0.26600  0.46770  Biso   1.000  O
  O78      1.0000 0.61790  0.26240  0.44780  Biso   1.000  O
  O79      1.0000 0.62670  0.32747  0.62700  Biso   1.000  O
  O80      1.0000 0.86410  0.32532  0.60560  Biso   1.000  O
  O81      1.0000 0.12740  0.35379  0.61860  Biso   1.000  O
  O82      1.0000 0.36150  0.35310  0.64220  Biso   1.000  O
  O83      1.0000 0.37590  0.41192  0.45410  Biso   1.000  O
  O84      1.0000 0.61190  0.40938  0.47580  Biso   1.000  O
  O85      1.0000 0.88870  0.43527  0.46300  Biso   1.000  O
  O86      1.0000 0.11680  0.43768  0.43760  Biso   1.000  O
  O87      1.0000 0.13140  0.48710  0.63250  Biso   1.000  O
  O88      1.0000 0.36330  0.48780  0.60950  Biso   1.000  O
  O89      1.0000 0.38300  0.44321  0.39090  Biso   1.000  O
  O90      1.0000 0.62370  0.44386  0.41140  Biso   1.000  O
  C145     1.0000 0.99800  0.38040  0.42800  Biso   1.000  C
  C146     1.0000 0.86250  0.34519  0.42480  Biso   1.000  C
  H73      1.0000 0.77240  0.35290  0.42400  Biso   1.000  H
  C147     1.0000 0.86130  0.32252  0.42290  Biso   1.000  C
  H74      1.0000 0.77040  0.31510  0.42090  Biso   1.000  H
  C148     1.0000 0.99600  0.31098  0.42400  Biso   1.000  C
  C149     1.0000 0.13190  0.32211  0.42700  Biso   1.000  C
  H75      1.0000 0.22200  0.31440  0.42780  Biso   1.000  H
  C150     1.0000 0.13310  0.34478  0.42890  Biso   1.000  C
  H76      1.0000 0.22400  0.35220  0.43090  Biso   1.000  H
  C151     1.0000 0.99840  0.35632  0.42780  Biso   1.000  C
  C152     1.0000 0.99900  0.28720  0.41780  Biso   1.000  C
  C153     1.0000 0.52000  0.27030  0.46990  Biso   1.000  C
  C154     1.0000 0.67380  0.30827  0.56740  Biso   1.000  C
  C155     1.0000 0.77400  0.30172  0.53800  Biso   1.000  C
  H77      1.0000 0.87470  0.30580  0.53950  Biso   1.000  H
  C156     1.0000 0.72360  0.28908  0.50640  Biso   1.000  C
  H78      1.0000 0.79060  0.28470  0.48680  Biso   1.000  H
  C157     1.0000 0.57310  0.28300  0.50420  Biso   1.000  C
  C158     1.0000 0.47290  0.28955  0.53360  Biso   1.000  C
  H79      1.0000 0.37220  0.28550  0.53210  Biso   1.000  H
  C159     1.0000 0.52330  0.30218  0.56520  Biso   1.000  C
  H80      1.0000 0.45630  0.30660  0.58490  Biso   1.000  H
  C160     1.0000 0.72700  0.32120  0.60290  Biso   1.000  C
  C161     1.0000 0.26400  0.35830  0.61640  Biso   1.000  C
  C162     1.0000 0.51940  0.38859  0.54410  Biso   1.000  C
  H81      1.0000 0.62070  0.39210  0.54110  Biso   1.000  H
  C163     1.0000 0.41560  0.39506  0.51550  Biso   1.000  C
  C164     1.0000 0.26430  0.38981  0.52000  Biso   1.000  C
  H82      1.0000 0.19490  0.39410  0.50090  Biso   1.000  H
  C165     1.0000 0.21690  0.37809  0.55310  Biso   1.000  C
  H83      1.0000 0.11560  0.37460  0.55610  Biso   1.000  H
  C166     1.0000 0.32070  0.37162  0.58160  Biso   1.000  C
  C167     1.0000 0.47200  0.37687  0.57710  Biso   1.000  C
  H84      1.0000 0.54140  0.37250  0.59620  Biso   1.000  H
  C168     1.0000 0.47800  0.40600  0.47930  Biso   1.000  C
  C169     1.0000 0.02200  0.44103  0.46490  Biso   1.000  C
  C170     1.0000 0.97370  0.45552  0.53220  Biso   1.000  C
  H85      1.0000 0.87440  0.45080  0.53040  Biso   1.000  H
  C171     1.0000 0.02290  0.46634  0.56600  Biso   1.000  C
  H86      1.0000 0.95660  0.46880  0.58690  Biso   1.000  H
  C172     1.0000 0.17120  0.47342  0.56870  Biso   1.000  C
  C173     1.0000 0.27030  0.46967  0.53750  Biso   1.000  C
  H87      1.0000 0.36960  0.47440  0.53930  Biso   1.000  H
  C174     1.0000 0.22110  0.45886  0.50360  Biso   1.000  C
  H88      1.0000 0.28740  0.45640  0.48280  Biso   1.000  H
  C175     1.0000 0.07270  0.45178  0.50100  Biso   1.000  C
  C176     1.0000 0.22600  0.48370  0.60650  Biso   1.000  C
  C177     1.0000 0.50400  0.45294  0.39920  Biso   1.000  C
  C178     1.0000 0.50160  0.47762  0.39780  Biso   1.000  C
  C179     1.0000 0.36700  0.48856  0.39660  Biso   1.000  C
  H89      1.0000 0.27730  0.48080  0.39520  Biso   1.000  H
  C180     1.0000 0.36400  0.51104  0.39760  Biso   1.000  C
  H90      1.0000 0.27280  0.51850  0.39810  Biso   1.000  H
  Sc11     1.0000 0.74590  0.91670  0.92633  Biso   1.000  Sc
  Sc12     1.0000 0.24900  0.91670  0.90467  Biso   1.000  Sc
  O91      1.0000 0.87870  0.88973  0.93850  Biso   1.000  O
  O92      1.0000 0.12030  0.89017  0.91980  Biso   1.000  O
  O93      1.0000 0.87900  0.77819  0.90780  Biso   1.000  O
  O94      1.0000 0.11200  0.77704  0.92710  Biso   1.000  O
  O95      1.0000 0.38380  0.76600  0.96770  Biso   1.000  O
  O96      1.0000 0.61790  0.76240  0.94780  Biso   1.000  O
  O97      1.0000 0.62670  0.82747  0.12700  Biso   1.000  O
  O98      1.0000 0.86410  0.82532  0.10560  Biso   1.000  O
  O99      1.0000 0.12740  0.85379  0.11860  Biso   1.000  O
  O100     1.0000 0.36150  0.85310  0.14220  Biso   1.000  O
  O101     1.0000 0.37590  0.91192  0.95410  Biso   1.000  O
  O102     1.0000 0.61190  0.90938  0.97580  Biso   1.000  O
  O103     1.0000 0.88870  0.93527  0.96300  Biso   1.000  O
  O104     1.0000 0.11680  0.93768  0.93760  Biso   1.000  O
  O105     1.0000 0.13140  0.98710  0.13250  Biso   1.000  O
  O106     1.0000 0.36330  0.98780  0.10950  Biso   1.000  O
  O107     1.0000 0.38300  0.94321  0.89090  Biso   1.000  O
  O108     1.0000 0.62370  0.94386  0.91140  Biso   1.000  O
  C181     1.0000 0.99800  0.88040  0.92800  Biso   1.000  C
  C182     1.0000 0.86250  0.84519  0.92480  Biso   1.000  C
  H91      1.0000 0.77240  0.85290  0.92400  Biso   1.000  H
  C183     1.0000 0.86130  0.82252  0.92290  Biso   1.000  C
  H92      1.0000 0.77040  0.81510  0.92090  Biso   1.000  H
  C184     1.0000 0.99600  0.81098  0.92400  Biso   1.000  C
  C185     1.0000 0.13190  0.82211  0.92700  Biso   1.000  C
  H93      1.0000 0.22200  0.81440  0.92780  Biso   1.000  H
  C186     1.0000 0.13310  0.84478  0.92890  Biso   1.000  C
  H94      1.0000 0.22400  0.85220  0.93090  Biso   1.000  H
  C187     1.0000 0.99840  0.85632  0.92780  Biso   1.000  C
  C188     1.0000 0.99900  0.78720  0.91780  Biso   1.000  C
  C189     1.0000 0.52000  0.77030  0.96990  Biso   1.000  C
  C190     1.0000 0.67380  0.80827  0.06740  Biso   1.000  C
  C191     1.0000 0.77400  0.80172  0.03800  Biso   1.000  C
  H95      1.0000 0.87470  0.80580  0.03950  Biso   1.000  H
  C192     1.0000 0.72360  0.78908  0.00640  Biso   1.000  C
  H96      1.0000 0.79060  0.78470  0.98680  Biso   1.000  H
  C193     1.0000 0.57310  0.78300  0.00420  Biso   1.000  C
  C194     1.0000 0.47290  0.78955  0.03360  Biso   1.000  C
  H97      1.0000 0.37220  0.78550  0.03210  Biso   1.000  H
  C195     1.0000 0.52330  0.80218  0.06520  Biso   1.000  C
  H98      1.0000 0.45630  0.80660  0.08490  Biso   1.000  H
  C196     1.0000 0.72700  0.82120  0.10290  Biso   1.000  C
  C197     1.0000 0.26400  0.85830  0.11640  Biso   1.000  C
  C198     1.0000 0.51940  0.88859  0.04410  Biso   1.000  C
  H99      1.0000 0.62070  0.89210  0.04110  Biso   1.000  H
  C199     1.0000 0.41560  0.89506  0.01550  Biso   1.000  C
  C200     1.0000 0.26430  0.88981  0.02000  Biso   1.000  C
  H100     1.0000 0.19490  0.89410  0.00090  Biso   1.000  H
  C201     1.0000 0.21690  0.87809  0.05310  Biso   1.000  C
  H101     1.0000 0.11560  0.87460  0.05610  Biso   1.000  H
  C202     1.0000 0.32070  0.87162  0.08160  Biso   1.000  C
  C203     1.0000 0.47200  0.87687  0.07710  Biso   1.000  C
  H102     1.0000 0.54140  0.87250  0.09620  Biso   1.000  H
  C204     1.0000 0.47800  0.90600  0.97930  Biso   1.000  C
  C205     1.0000 0.02200  0.94103  0.96490  Biso   1.000  C
  C206     1.0000 0.97370  0.95552  0.03220  Biso   1.000  C
  H103     1.0000 0.87440  0.95080  0.03040  Biso   1.000  H
  C207     1.0000 0.02290  0.96634  0.06600  Biso   1.000  C
  H104     1.0000 0.95660  0.96880  0.08690  Biso   1.000  H
  C208     1.0000 0.17120  0.97342  0.06870  Biso   1.000  C
  C209     1.0000 0.27030  0.96967  0.03750  Biso   1.000  C
  H105     1.0000 0.36960  0.97440  0.03930  Biso   1.000  H
  C210     1.0000 0.22110  0.95886  0.00360  Biso   1.000  C
  H106     1.0000 0.28740  0.95640  0.98280  Biso   1.000  H
  C211     1.0000 0.07270  0.95178  0.00100  Biso   1.000  C
  C212     1.0000 0.22600  0.98370  0.10650  Biso   1.000  C
  C213     1.0000 0.50400  0.95294  0.89920  Biso   1.000  C
  C214     1.0000 0.50160  0.97762  0.89780  Biso   1.000  C
  C215     1.0000 0.36700  0.98856  0.89660  Biso   1.000  C
  H107     1.0000 0.27730  0.98080  0.89520  Biso   1.000  H
  C216     1.0000 0.36400  0.01104  0.89760  Biso   1.000  C
  H108     1.0000 0.27280  0.01850  0.89810  Biso   1.000  H
  Sc13     1.0000 0.24590  0.41670  0.92633  Biso   1.000  Sc
  Sc14     1.0000 0.74900  0.41670  0.90467  Biso   1.000  Sc
  O109     1.0000 0.37870  0.38973  0.93850  Biso   1.000  O
  O110     1.0000 0.62030  0.39017  0.91980  Biso   1.000  O
  O111     1.0000 0.37900  0.27819  0.90780  Biso   1.000  O
  O112     1.0000 0.61200  0.27704  0.92710  Biso   1.000  O
  O113     1.0000 0.88380  0.26600  0.96770  Biso   1.000  O
  O114     1.0000 0.11790  0.26240  0.94780  Biso   1.000  O
  O115     1.0000 0.12670  0.32747  0.12700  Biso   1.000  O
  O116     1.0000 0.36410  0.32532  0.10560  Biso   1.000  O
  O117     1.0000 0.62740  0.35379  0.11860  Biso   1.000  O
  O118     1.0000 0.86150  0.35310  0.14220  Biso   1.000  O
  O119     1.0000 0.87590  0.41192  0.95410  Biso   1.000  O
  O120     1.0000 0.11190  0.40938  0.97580  Biso   1.000  O
  O121     1.0000 0.38870  0.43527  0.96300  Biso   1.000  O
  O122     1.0000 0.61680  0.43768  0.93760  Biso   1.000  O
  O123     1.0000 0.63140  0.48710  0.13250  Biso   1.000  O
  O124     1.0000 0.86330  0.48780  0.10950  Biso   1.000  O
  O125     1.0000 0.88300  0.44321  0.89090  Biso   1.000  O
  O126     1.0000 0.12370  0.44386  0.91140  Biso   1.000  O
  C217     1.0000 0.49800  0.38040  0.92800  Biso   1.000  C
  C218     1.0000 0.36250  0.34519  0.92480  Biso   1.000  C
  H109     1.0000 0.27240  0.35290  0.92400  Biso   1.000  H
  C219     1.0000 0.36130  0.32252  0.92290  Biso   1.000  C
  H110     1.0000 0.27040  0.31510  0.92090  Biso   1.000  H
  C220     1.0000 0.49600  0.31098  0.92400  Biso   1.000  C
  C221     1.0000 0.63190  0.32211  0.92700  Biso   1.000  C
  H111     1.0000 0.72200  0.31440  0.92780  Biso   1.000  H
  C222     1.0000 0.63310  0.34478  0.92890  Biso   1.000  C
  H112     1.0000 0.72400  0.35220  0.93090  Biso   1.000  H
  C223     1.0000 0.49840  0.35632  0.92780  Biso   1.000  C
  C224     1.0000 0.49900  0.28720  0.91780  Biso   1.000  C
  C225     1.0000 0.02000  0.27030  0.96990  Biso   1.000  C
  C226     1.0000 0.17380  0.30827  0.06740  Biso   1.000  C
  C227     1.0000 0.27400  0.30172  0.03800  Biso   1.000  C
  H113     1.0000 0.37470  0.30580  0.03950  Biso   1.000  H
  C228     1.0000 0.22360  0.28908  0.00640  Biso   1.000  C
  H114     1.0000 0.29060  0.28470  0.98680  Biso   1.000  H
  C229     1.0000 0.07310  0.28300  0.00420  Biso   1.000  C
  C230     1.0000 0.97290  0.28955  0.03360  Biso   1.000  C
  H115     1.0000 0.87220  0.28550  0.03210  Biso   1.000  H
  C231     1.0000 0.02330  0.30218  0.06520  Biso   1.000  C
  H116     1.0000 0.95630  0.30660  0.08490  Biso   1.000  H
  C232     1.0000 0.22700  0.32120  0.10290  Biso   1.000  C
  C233     1.0000 0.76400  0.35830  0.11640  Biso   1.000  C
  C234     1.0000 0.01940  0.38859  0.04410  Biso   1.000  C
  H117     1.0000 0.12070  0.39210  0.04110  Biso   1.000  H
  C235     1.0000 0.91560  0.39506  0.01550  Biso   1.000  C
  C236     1.0000 0.76430  0.38981  0.02000  Biso   1.000  C
  H118     1.0000 0.69490  0.39410  0.00090  Biso   1.000  H
  C237     1.0000 0.71690  0.37809  0.05310  Biso   1.000  C
  H119     1.0000 0.61560  0.37460  0.05610  Biso   1.000  H
  C238     1.0000 0.82070  0.37162  0.08160  Biso   1.000  C
  C239     1.0000 0.97200  0.37687  0.07710  Biso   1.000  C
  H120     1.0000 0.04140  0.37250  0.09620  Biso   1.000  H
  C240     1.0000 0.97800  0.40600  0.97930  Biso   1.000  C
  C241     1.0000 0.52200  0.44103  0.96490  Biso   1.000  C
  C242     1.0000 0.47370  0.45552  0.03220  Biso   1.000  C
  H121     1.0000 0.37440  0.45080  0.03040  Biso   1.000  H
  C243     1.0000 0.52290  0.46634  0.06600  Biso   1.000  C
  H122     1.0000 0.45660  0.46880  0.08690  Biso   1.000  H
  C244     1.0000 0.67120  0.47342  0.06870  Biso   1.000  C
  C245     1.0000 0.77030  0.46967  0.03750  Biso   1.000  C
  H123     1.0000 0.86960  0.47440  0.03930  Biso   1.000  H
  C246     1.0000 0.72110  0.45886  0.00360  Biso   1.000  C
  H124     1.0000 0.78740  0.45640  0.98280  Biso   1.000  H
  C247     1.0000 0.57270  0.45178  0.00100  Biso   1.000  C
  C248     1.0000 0.72600  0.48370  0.10650  Biso   1.000  C
  C249     1.0000 0.00400  0.45294  0.89920  Biso   1.000  C
  C250     1.0000 0.00160  0.47762  0.89780  Biso   1.000  C
  C251     1.0000 0.86700  0.48856  0.89660  Biso   1.000  C
  H125     1.0000 0.77730  0.48080  0.89520  Biso   1.000  H
  C252     1.0000 0.86400  0.51104  0.89760  Biso   1.000  C
  H126     1.0000 0.77280  0.51850  0.89810  Biso   1.000  H
  Sc15     1.0000 0.24590  0.91670  0.42633  Biso   1.000  Sc
  Sc16     1.0000 0.74900  0.91670  0.40467  Biso   1.000  Sc
  O127     1.0000 0.37870  0.88973  0.43850  Biso   1.000  O
  O128     1.0000 0.62030  0.89017  0.41980  Biso   1.000  O
  O129     1.0000 0.37900  0.77819  0.40780  Biso   1.000  O
  O130     1.0000 0.61200  0.77704  0.42710  Biso   1.000  O
  O131     1.0000 0.88380  0.76600  0.46770  Biso   1.000  O
  O132     1.0000 0.11790  0.76240  0.44780  Biso   1.000  O
  O133     1.0000 0.12670  0.82747  0.62700  Biso   1.000  O
  O134     1.0000 0.36410  0.82532  0.60560  Biso   1.000  O
  O135     1.0000 0.62740  0.85379  0.61860  Biso   1.000  O
  O136     1.0000 0.86150  0.85310  0.64220  Biso   1.000  O
  O137     1.0000 0.87590  0.91192  0.45410  Biso   1.000  O
  O138     1.0000 0.11190  0.90938  0.47580  Biso   1.000  O
  O139     1.0000 0.38870  0.93527  0.46300  Biso   1.000  O
  O140     1.0000 0.61680  0.93768  0.43760  Biso   1.000  O
  O141     1.0000 0.63140  0.98710  0.63250  Biso   1.000  O
  O142     1.0000 0.86330  0.98780  0.60950  Biso   1.000  O
  O143     1.0000 0.88300  0.94321  0.39090  Biso   1.000  O
  O144     1.0000 0.12370  0.94386  0.41140  Biso   1.000  O
  C253     1.0000 0.49800  0.88040  0.42800  Biso   1.000  C
  C254     1.0000 0.36250  0.84519  0.42480  Biso   1.000  C
  H127     1.0000 0.27240  0.85290  0.42400  Biso   1.000  H
  C255     1.0000 0.36130  0.82252  0.42290  Biso   1.000  C
  H128     1.0000 0.27040  0.81510  0.42090  Biso   1.000  H
  C256     1.0000 0.49600  0.81098  0.42400  Biso   1.000  C
  C257     1.0000 0.63190  0.82211  0.42700  Biso   1.000  C
  H129     1.0000 0.72200  0.81440  0.42780  Biso   1.000  H
  C258     1.0000 0.63310  0.84478  0.42890  Biso   1.000  C
  H130     1.0000 0.72400  0.85220  0.43090  Biso   1.000  H
  C259     1.0000 0.49840  0.85632  0.42780  Biso   1.000  C
  C260     1.0000 0.49900  0.78720  0.41780  Biso   1.000  C
  C261     1.0000 0.02000  0.77030  0.46990  Biso   1.000  C
  C262     1.0000 0.17380  0.80827  0.56740  Biso   1.000  C
  C263     1.0000 0.27400  0.80172  0.53800  Biso   1.000  C
  H131     1.0000 0.37470  0.80580  0.53950  Biso   1.000  H
  C264     1.0000 0.22360  0.78908  0.50640  Biso   1.000  C
  H132     1.0000 0.29060  0.78470  0.48680  Biso   1.000  H
  C265     1.0000 0.07310  0.78300  0.50420  Biso   1.000  C
  C266     1.0000 0.97290  0.78955  0.53360  Biso   1.000  C
  H133     1.0000 0.87220  0.78550  0.53210  Biso   1.000  H
  C267     1.0000 0.02330  0.80218  0.56520  Biso   1.000  C
  H134     1.0000 0.95630  0.80660  0.58490  Biso   1.000  H
  C268     1.0000 0.22700  0.82120  0.60290  Biso   1.000  C
  C269     1.0000 0.76400  0.85830  0.61640  Biso   1.000  C
  C270     1.0000 0.01940  0.88859  0.54410  Biso   1.000  C
  H135     1.0000 0.12070  0.89210  0.54110  Biso   1.000  H
  C271     1.0000 0.91560  0.89506  0.51550  Biso   1.000  C
  C272     1.0000 0.76430  0.88981  0.52000  Biso   1.000  C
  H136     1.0000 0.69490  0.89410  0.50090  Biso   1.000  H
  C273     1.0000 0.71690  0.87809  0.55310  Biso   1.000  C
  H137     1.0000 0.61560  0.87460  0.55610  Biso   1.000  H
  C274     1.0000 0.82070  0.87162  0.58160  Biso   1.000  C
  C275     1.0000 0.97200  0.87687  0.57710  Biso   1.000  C
  H138     1.0000 0.04140  0.87250  0.59620  Biso   1.000  H
  C276     1.0000 0.97800  0.90600  0.47930  Biso   1.000  C
  C277     1.0000 0.52200  0.94103  0.46490  Biso   1.000  C
  C278     1.0000 0.47370  0.95552  0.53220  Biso   1.000  C
  H139     1.0000 0.37440  0.95080  0.53040  Biso   1.000  H
  C279     1.0000 0.52290  0.96634  0.56600  Biso   1.000  C
  H140     1.0000 0.45660  0.96880  0.58690  Biso   1.000  H
  C280     1.0000 0.67120  0.97342  0.56870  Biso   1.000  C
  C281     1.0000 0.77030  0.96967  0.53750  Biso   1.000  C
  H141     1.0000 0.86960  0.97440  0.53930  Biso   1.000  H
  C282     1.0000 0.72110  0.95886  0.50360  Biso   1.000  C
  H142     1.0000 0.78740  0.95640  0.48280  Biso   1.000  H
  C283     1.0000 0.57270  0.95178  0.50100  Biso   1.000  C
  C284     1.0000 0.72600  0.98370  0.60650  Biso   1.000  C
  C285     1.0000 0.00400  0.95294  0.39920  Biso   1.000  C
  C286     1.0000 0.00160  0.97762  0.39780  Biso   1.000  C
  C287     1.0000 0.86700  0.98856  0.39660  Biso   1.000  C
  H143     1.0000 0.77730  0.98080  0.39520  Biso   1.000  H
  C288     1.0000 0.86400  0.01104  0.39760  Biso   1.000  C
  H144     1.0000 0.77280  0.01850  0.39810  Biso   1.000  H
  Sc17     1.0000 0.50410  0.66670  0.67633  Biso   1.000  Sc
  Sc18     1.0000 0.00100  0.66670  0.65467  Biso   1.000  Sc
  O145     1.0000 0.37130  0.63973  0.68850  Biso   1.000  O
  O146     1.0000 0.12970  0.64017  0.66980  Biso   1.000  O
  O147     1.0000 0.37100  0.52819  0.65780  Biso   1.000  O
  O148     1.0000 0.13800  0.52704  0.67710  Biso   1.000  O
  O149     1.0000 0.86620  0.51600  0.71770  Biso   1.000  O
  O150     1.0000 0.63210  0.51240  0.69780  Biso   1.000  O
  O151     1.0000 0.62330  0.57747  0.87700  Biso   1.000  O
  O152     1.0000 0.38590  0.57532  0.85560  Biso   1.000  O
  O153     1.0000 0.12260  0.60379  0.86860  Biso   1.000  O
  O154     1.0000 0.88850  0.60310  0.89220  Biso   1.000  O
  O155     1.0000 0.87410  0.66192  0.70410  Biso   1.000  O
  O156     1.0000 0.63810  0.65938  0.72580  Biso   1.000  O
  O157     1.0000 0.36130  0.68527  0.71300  Biso   1.000  O
  O158     1.0000 0.13320  0.68768  0.68760  Biso   1.000  O
  O159     1.0000 0.11860  0.73710  0.88250  Biso   1.000  O
  O160     1.0000 0.88670  0.73780  0.85950  Biso   1.000  O
  O161     1.0000 0.86700  0.69321  0.64090  Biso   1.000  O
  O162     1.0000 0.62630  0.69386  0.66140  Biso   1.000  O
  C289     1.0000 0.25200  0.63040  0.67800  Biso   1.000  C
  C290     1.0000 0.38750  0.59519  0.67480  Biso   1.000  C
  H145     1.0000 0.47760  0.60290  0.67400  Biso   1.000  H
  C291     1.0000 0.38870  0.57252  0.67290  Biso   1.000  C
  H146     1.0000 0.47960  0.56510  0.67090  Biso   1.000  H
  C292     1.0000 0.25400  0.56098  0.67400  Biso   1.000  C
  C293     1.0000 0.11810  0.57211  0.67700  Biso   1.000  C
  H147     1.0000 0.02800  0.56440  0.67780  Biso   1.000  H
  C294     1.0000 0.11690  0.59478  0.67890  Biso   1.000  C
  H148     1.0000 0.02600  0.60220  0.68090  Biso   1.000  H
  C295     1.0000 0.25160  0.60632  0.67780  Biso   1.000  C
  C296     1.0000 0.25100  0.53720  0.66780  Biso   1.000  C
  C297     1.0000 0.73000  0.52030  0.71990  Biso   1.000  C
  C298     1.0000 0.57620  0.55827  0.81740  Biso   1.000  C
  C299     1.0000 0.47600  0.55172  0.78800  Biso   1.000  C
  H149     1.0000 0.37530  0.55580  0.78950  Biso   1.000  H
  C300     1.0000 0.52640  0.53908  0.75640  Biso   1.000  C
  H150     1.0000 0.45940  0.53470  0.73680  Biso   1.000  H
  C301     1.0000 0.67690  0.53300  0.75420  Biso   1.000  C
  C302     1.0000 0.77710  0.53955  0.78360  Biso   1.000  C
  H151     1.0000 0.87780  0.53550  0.78210  Biso   1.000  H
  C303     1.0000 0.72670  0.55218  0.81520  Biso   1.000  C
  H152     1.0000 0.79370  0.55660  0.83490  Biso   1.000  H
  C304     1.0000 0.52300  0.57120  0.85290  Biso   1.000  C
  C305     1.0000 0.98600  0.60830  0.86640  Biso   1.000  C
  C306     1.0000 0.73060  0.63859  0.79410  Biso   1.000  C
  H153     1.0000 0.62930  0.64210  0.79110  Biso   1.000  H
  C307     1.0000 0.83440  0.64506  0.76550  Biso   1.000  C
  C308     1.0000 0.98570  0.63981  0.77000  Biso   1.000  C
  H154     1.0000 0.05510  0.64410  0.75090  Biso   1.000  H
  C309     1.0000 0.03310  0.62809  0.80310  Biso   1.000  C
  H155     1.0000 0.13440  0.62460  0.80610  Biso   1.000  H
  C310     1.0000 0.92930  0.62162  0.83160  Biso   1.000  C
  C311     1.0000 0.77800  0.62687  0.82710  Biso   1.000  C
  H156     1.0000 0.70860  0.62250  0.84620  Biso   1.000  H
  C312     1.0000 0.77200  0.65600  0.72930  Biso   1.000  C
  C313     1.0000 0.22800  0.69103  0.71490  Biso   1.000  C
  C314     1.0000 0.27630  0.70552  0.78220  Biso   1.000  C
  H157     1.0000 0.37560  0.70080  0.78040  Biso   1.000  H
  C315     1.0000 0.22710  0.71634  0.81600  Biso   1.000  C
  H158     1.0000 0.29340  0.71880  0.83690  Biso   1.000  H
  C316     1.0000 0.07880  0.72342  0.81870  Biso   1.000  C
  C317     1.0000 0.97970  0.71967  0.78750  Biso   1.000  C
  H159     1.0000 0.88040  0.72440  0.78930  Biso   1.000  H
  C318     1.0000 0.02890  0.70886  0.75360  Biso   1.000  C
  H160     1.0000 0.96260  0.70640  0.73280  Biso   1.000  H
  C319     1.0000 0.17730  0.70178  0.75100  Biso   1.000  C
  C320     1.0000 0.02400  0.73370  0.85650  Biso   1.000  C
  C321     1.0000 0.74600  0.70294  0.64920  Biso   1.000  C
  C322     1.0000 0.74840  0.72762  0.64780  Biso   1.000  C
  C323     1.0000 0.88300  0.73856  0.64660  Biso   1.000  C
  H161     1.0000 0.97270  0.73080  0.64520  Biso   1.000  H
  C324     1.0000 0.88600  0.76104  0.64760  Biso   1.000  C
  H162     1.0000 0.97720  0.76850  0.64810  Biso   1.000  H
  Sc19     1.0000 0.50410  0.16670  0.17633  Biso   1.000  Sc
  Sc20     1.0000 0.00100  0.16670  0.15467  Biso   1.000  Sc
  O163     1.0000 0.37130  0.13973  0.18850  Biso   1.000  O
  O164     1.0000 0.12970  0.14017  0.16980  Biso   1.000  O
  O165     1.0000 0.37100  0.02819  0.15780  Biso   1.000  O
  O166     1.0000 0.13800  0.02704  0.17710  Biso   1.000  O
  O167     1.0000 0.86620  0.01600  0.21770  Biso   1.000  O
  O168     1.0000 0.63210  0.01240  0.19780  Biso   1.000  O
  O169     1.0000 0.62330  0.07747  0.37700  Biso   1.000  O
  O170     1.0000 0.38590  0.07532  0.35560  Biso   1.000  O
  O171     1.0000 0.12260  0.10379  0.36860  Biso   1.000  O
  O172     1.0000 0.88850  0.10310  0.39220  Biso   1.000  O
  O173     1.0000 0.87410  0.16192  0.20410  Biso   1.000  O
  O174     1.0000 0.63810  0.15938  0.22580  Biso   1.000  O
  O175     1.0000 0.36130  0.18527  0.21300  Biso   1.000  O
  O176     1.0000 0.13320  0.18768  0.18760  Biso   1.000  O
  O177     1.0000 0.11860  0.23710  0.38250  Biso   1.000  O
  O178     1.0000 0.88670  0.23780  0.35950  Biso   1.000  O
  O179     1.0000 0.86700  0.19321  0.14090  Biso   1.000  O
  O180     1.0000 0.62630  0.19386  0.16140  Biso   1.000  O
  C325     1.0000 0.25200  0.13040  0.17800  Biso   1.000  C
  C326     1.0000 0.38750  0.09519  0.17480  Biso   1.000  C
  H163     1.0000 0.47760  0.10290  0.17400  Biso   1.000  H
  C327     1.0000 0.38870  0.07252  0.17290  Biso   1.000  C
  H164     1.0000 0.47960  0.06510  0.17090  Biso   1.000  H
  C328     1.0000 0.25400  0.06098  0.17400  Biso   1.000  C
  C329     1.0000 0.11810  0.07211  0.17700  Biso   1.000  C
  H165     1.0000 0.02800  0.06440  0.17780  Biso   1.000  H
  C330     1.0000 0.11690  0.09478  0.17890  Biso   1.000  C
  H166     1.0000 0.02600  0.10220  0.18090  Biso   1.000  H
  C331     1.0000 0.25160  0.10632  0.17780  Biso   1.000  C
  C332     1.0000 0.25100  0.03720  0.16780  Biso   1.000  C
  C333     1.0000 0.73000  0.02030  0.21990  Biso   1.000  C
  C334     1.0000 0.57620  0.05827  0.31740  Biso   1.000  C
  C335     1.0000 0.47600  0.05172  0.28800  Biso   1.000  C
  H167     1.0000 0.37530  0.05580  0.28950  Biso   1.000  H
  C336     1.0000 0.52640  0.03908  0.25640  Biso   1.000  C
  H168     1.0000 0.45940  0.03470  0.23680  Biso   1.000  H
  C337     1.0000 0.67690  0.03300  0.25420  Biso   1.000  C
  C338     1.0000 0.77710  0.03955  0.28360  Biso   1.000  C
  H169     1.0000 0.87780  0.03550  0.28210  Biso   1.000  H
  C339     1.0000 0.72670  0.05218  0.31520  Biso   1.000  C
  H170     1.0000 0.79370  0.05660  0.33490  Biso   1.000  H
  C340     1.0000 0.52300  0.07120  0.35290  Biso   1.000  C
  C341     1.0000 0.98600  0.10830  0.36640  Biso   1.000  C
  C342     1.0000 0.73060  0.13859  0.29410  Biso   1.000  C
  H171     1.0000 0.62930  0.14210  0.29110  Biso   1.000  H
  C343     1.0000 0.83440  0.14506  0.26550  Biso   1.000  C
  C344     1.0000 0.98570  0.13981  0.27000  Biso   1.000  C
  H172     1.0000 0.05510  0.14410  0.25090  Biso   1.000  H
  C345     1.0000 0.03310  0.12809  0.30310  Biso   1.000  C
  H173     1.0000 0.13440  0.12460  0.30610  Biso   1.000  H
  C346     1.0000 0.92930  0.12162  0.33160  Biso   1.000  C
  C347     1.0000 0.77800  0.12687  0.32710  Biso   1.000  C
  H174     1.0000 0.70860  0.12250  0.34620  Biso   1.000  H
  C348     1.0000 0.77200  0.15600  0.22930  Biso   1.000  C
  C349     1.0000 0.22800  0.19103  0.21490  Biso   1.000  C
  C350     1.0000 0.27630  0.20552  0.28220  Biso   1.000  C
  H175     1.0000 0.37560  0.20080  0.28040  Biso   1.000  H
  C351     1.0000 0.22710  0.21634  0.31600  Biso   1.000  C
  H176     1.0000 0.29340  0.21880  0.33690  Biso   1.000  H
  C352     1.0000 0.07880  0.22342  0.31870  Biso   1.000  C
  C353     1.0000 0.97970  0.21967  0.28750  Biso   1.000  C
  H177     1.0000 0.88040  0.22440  0.28930  Biso   1.000  H
  C354     1.0000 0.02890  0.20886  0.25360  Biso   1.000  C
  H178     1.0000 0.96260  0.20640  0.23280  Biso   1.000  H
  C355     1.0000 0.17730  0.20178  0.25100  Biso   1.000  C
  C356     1.0000 0.02400  0.23370  0.35650  Biso   1.000  C
  C357     1.0000 0.74600  0.20294  0.14920  Biso   1.000  C
  C358     1.0000 0.74840  0.22762  0.14780  Biso   1.000  C
  C359     1.0000 0.88300  0.23856  0.14660  Biso   1.000  C
  H179     1.0000 0.97270  0.23080  0.14520  Biso   1.000  H
  C360     1.0000 0.88600  0.26104  0.14760  Biso   1.000  C
  H180     1.0000 0.97720  0.26850  0.14810  Biso   1.000  H
  Sc21     1.0000 0.00410  0.66670  0.17633  Biso   1.000  Sc
  Sc22     1.0000 0.50100  0.66670  0.15467  Biso   1.000  Sc
  O181     1.0000 0.87130  0.63973  0.18850  Biso   1.000  O
  O182     1.0000 0.62970  0.64017  0.16980  Biso   1.000  O
  O183     1.0000 0.87100  0.52819  0.15780  Biso   1.000  O
  O184     1.0000 0.63800  0.52704  0.17710  Biso   1.000  O
  O185     1.0000 0.36620  0.51600  0.21770  Biso   1.000  O
  O186     1.0000 0.13210  0.51240  0.19780  Biso   1.000  O
  O187     1.0000 0.12330  0.57747  0.37700  Biso   1.000  O
  O188     1.0000 0.88590  0.57532  0.35560  Biso   1.000  O
  O189     1.0000 0.62260  0.60379  0.36860  Biso   1.000  O
  O190     1.0000 0.38850  0.60310  0.39220  Biso   1.000  O
  O191     1.0000 0.37410  0.66192  0.20410  Biso   1.000  O
  O192     1.0000 0.13810  0.65938  0.22580  Biso   1.000  O
  O193     1.0000 0.86130  0.68527  0.21300  Biso   1.000  O
  O194     1.0000 0.63320  0.68768  0.18760  Biso   1.000  O
  O195     1.0000 0.61860  0.73710  0.38250  Biso   1.000  O
  O196     1.0000 0.38670  0.73780  0.35950  Biso   1.000  O
  O197     1.0000 0.36700  0.69321  0.14090  Biso   1.000  O
  O198     1.0000 0.12630  0.69386  0.16140  Biso   1.000  O
  C361     1.0000 0.75200  0.63040  0.17800  Biso   1.000  C
  C362     1.0000 0.88750  0.59519  0.17480  Biso   1.000  C
  H181     1.0000 0.97760  0.60290  0.17400  Biso   1.000  H
  C363     1.0000 0.88870  0.57252  0.17290  Biso   1.000  C
  H182     1.0000 0.97960  0.56510  0.17090  Biso   1.000  H
  C364     1.0000 0.75400  0.56098  0.17400  Biso   1.000  C
  C365     1.0000 0.61810  0.57211  0.17700  Biso   1.000  C
  H183     1.0000 0.52800  0.56440  0.17780  Biso   1.000  H
  C366     1.0000 0.61690  0.59478  0.17890  Biso   1.000  C
  H184     1.0000 0.52600  0.60220  0.18090  Biso   1.000  H
  C367     1.0000 0.75160  0.60632  0.17780  Biso   1.000  C
  C368     1.0000 0.75100  0.53720  0.16780  Biso   1.000  C
  C369     1.0000 0.23000  0.52030  0.21990  Biso   1.000  C
  C370     1.0000 0.07620  0.55827  0.31740  Biso   1.000  C
  C371     1.0000 0.97600  0.55172  0.28800  Biso   1.000  C
  H185     1.0000 0.87530  0.55580  0.28950  Biso   1.000  H
  C372     1.0000 0.02640  0.53908  0.25640  Biso   1.000  C
  H186     1.0000 0.95940  0.53470  0.23680  Biso   1.000  H
  C373     1.0000 0.17690  0.53300  0.25420  Biso   1.000  C
  C374     1.0000 0.27710  0.53955  0.28360  Biso   1.000  C
  H187     1.0000 0.37780  0.53550  0.28210  Biso   1.000  H
  C375     1.0000 0.22670  0.55218  0.31520  Biso   1.000  C
  H188     1.0000 0.29370  0.55660  0.33490  Biso   1.000  H
  C376     1.0000 0.02300  0.57120  0.35290  Biso   1.000  C
  C377     1.0000 0.48600  0.60830  0.36640  Biso   1.000  C
  C378     1.0000 0.23060  0.63859  0.29410  Biso   1.000  C
  H189     1.0000 0.12930  0.64210  0.29110  Biso   1.000  H
  C379     1.0000 0.33440  0.64506  0.26550  Biso   1.000  C
  C380     1.0000 0.48570  0.63981  0.27000  Biso   1.000  C
  H190     1.0000 0.55510  0.64410  0.25090  Biso   1.000  H
  C381     1.0000 0.53310  0.62809  0.30310  Biso   1.000  C
  H191     1.0000 0.63440  0.62460  0.30610  Biso   1.000  H
  C382     1.0000 0.42930  0.62162  0.33160  Biso   1.000  C
  C383     1.0000 0.27800  0.62687  0.32710  Biso   1.000  C
  H192     1.0000 0.20860  0.62250  0.34620  Biso   1.000  H
  C384     1.0000 0.27200  0.65600  0.22930  Biso   1.000  C
  C385     1.0000 0.72800  0.69103  0.21490  Biso   1.000  C
  C386     1.0000 0.77630  0.70552  0.28220  Biso   1.000  C
  H193     1.0000 0.87560  0.70080  0.28040  Biso   1.000  H
  C387     1.0000 0.72710  0.71634  0.31600  Biso   1.000  C
  H194     1.0000 0.79340  0.71880  0.33690  Biso   1.000  H
  C388     1.0000 0.57880  0.72342  0.31870  Biso   1.000  C
  C389     1.0000 0.47970  0.71967  0.28750  Biso   1.000  C
  H195     1.0000 0.38040  0.72440  0.28930  Biso   1.000  H
  C390     1.0000 0.52890  0.70886  0.25360  Biso   1.000  C
  H196     1.0000 0.46260  0.70640  0.23280  Biso   1.000  H
  C391     1.0000 0.67730  0.70178  0.25100  Biso   1.000  C
  C392     1.0000 0.52400  0.73370  0.35650  Biso   1.000  C
  C393     1.0000 0.24600  0.70294  0.14920  Biso   1.000  C
  C394     1.0000 0.24840  0.72762  0.14780  Biso   1.000  C
  C395     1.0000 0.38300  0.73856  0.14660  Biso   1.000  C
  H197     1.0000 0.47270  0.73080  0.14520  Biso   1.000  H
  C396     1.0000 0.38600  0.76104  0.14760  Biso   1.000  C
  H198     1.0000 0.47720  0.76850  0.14810  Biso   1.000  H
  Sc23     1.0000 0.00410  0.16670  0.67633  Biso   1.000  Sc
  Sc24     1.0000 0.50100  0.16670  0.65467  Biso   1.000  Sc
  O199     1.0000 0.87130  0.13973  0.68850  Biso   1.000  O
  O200     1.0000 0.62970  0.14017  0.66980  Biso   1.000  O
  O201     1.0000 0.87100  0.02819  0.65780  Biso   1.000  O
  O202     1.0000 0.63800  0.02704  0.67710  Biso   1.000  O
  O203     1.0000 0.36620  0.01600  0.71770  Biso   1.000  O
  O204     1.0000 0.13210  0.01240  0.69780  Biso   1.000  O
  O205     1.0000 0.12330  0.07747  0.87700  Biso   1.000  O
  O206     1.0000 0.88590  0.07532  0.85560  Biso   1.000  O
  O207     1.0000 0.62260  0.10379  0.86860  Biso   1.000  O
  O208     1.0000 0.38850  0.10310  0.89220  Biso   1.000  O
  O209     1.0000 0.37410  0.16192  0.70410  Biso   1.000  O
  O210     1.0000 0.13810  0.15938  0.72580  Biso   1.000  O
  O211     1.0000 0.86130  0.18527  0.71300  Biso   1.000  O
  O212     1.0000 0.63320  0.18768  0.68760  Biso   1.000  O
  O213     1.0000 0.61860  0.23710  0.88250  Biso   1.000  O
  O214     1.0000 0.38670  0.23780  0.85950  Biso   1.000  O
  O215     1.0000 0.36700  0.19321  0.64090  Biso   1.000  O
  O216     1.0000 0.12630  0.19386  0.66140  Biso   1.000  O
  C397     1.0000 0.75200  0.13040  0.67800  Biso   1.000  C
  C398     1.0000 0.88750  0.09519  0.67480  Biso   1.000  C
  H199     1.0000 0.97760  0.10290  0.67400  Biso   1.000  H
  C399     1.0000 0.88870  0.07252  0.67290  Biso   1.000  C
  H200     1.0000 0.97960  0.06510  0.67090  Biso   1.000  H
  C400     1.0000 0.75400  0.06098  0.67400  Biso   1.000  C
  C401     1.0000 0.61810  0.07211  0.67700  Biso   1.000  C
  H201     1.0000 0.52800  0.06440  0.67780  Biso   1.000  H
  C402     1.0000 0.61690  0.09478  0.67890  Biso   1.000  C
  H202     1.0000 0.52600  0.10220  0.68090  Biso   1.000  H
  C403     1.0000 0.75160  0.10632  0.67780  Biso   1.000  C
  C404     1.0000 0.75100  0.03720  0.66780  Biso   1.000  C
  C405     1.0000 0.23000  0.02030  0.71990  Biso   1.000  C
  C406     1.0000 0.07620  0.05827  0.81740  Biso   1.000  C
  C407     1.0000 0.97600  0.05172  0.78800  Biso   1.000  C
  H203     1.0000 0.87530  0.05580  0.78950  Biso   1.000  H
  C408     1.0000 0.02640  0.03908  0.75640  Biso   1.000  C
  H204     1.0000 0.95940  0.03470  0.73680  Biso   1.000  H
  C409     1.0000 0.17690  0.03300  0.75420  Biso   1.000  C
  C410     1.0000 0.27710  0.03955  0.78360  Biso   1.000  C
  H205     1.0000 0.37780  0.03550  0.78210  Biso   1.000  H
  C411     1.0000 0.22670  0.05218  0.81520  Biso   1.000  C
  H206     1.0000 0.29370  0.05660  0.83490  Biso   1.000  H
  C412     1.0000 0.02300  0.07120  0.85290  Biso   1.000  C
  C413     1.0000 0.48600  0.10830  0.86640  Biso   1.000  C
  C414     1.0000 0.23060  0.13859  0.79410  Biso   1.000  C
  H207     1.0000 0.12930  0.14210  0.79110  Biso   1.000  H
  C415     1.0000 0.33440  0.14506  0.76550  Biso   1.000  C
  C416     1.0000 0.48570  0.13981  0.77000  Biso   1.000  C
  H208     1.0000 0.55510  0.14410  0.75090  Biso   1.000  H
  C417     1.0000 0.53310  0.12809  0.80310  Biso   1.000  C
  H209     1.0000 0.63440  0.12460  0.80610  Biso   1.000  H
  C418     1.0000 0.42930  0.12162  0.83160  Biso   1.000  C
  C419     1.0000 0.27800  0.12687  0.82710  Biso   1.000  C
  H210     1.0000 0.20860  0.12250  0.84620  Biso   1.000  H
  C420     1.0000 0.27200  0.15600  0.72930  Biso   1.000  C
  C421     1.0000 0.72800  0.19103  0.71490  Biso   1.000  C
  C422     1.0000 0.77630  0.20552  0.78220  Biso   1.000  C
  H211     1.0000 0.87560  0.20080  0.78040  Biso   1.000  H
  C423     1.0000 0.72710  0.21634  0.81600  Biso   1.000  C
  H212     1.0000 0.79340  0.21880  0.83690  Biso   1.000  H
  C424     1.0000 0.57880  0.22342  0.81870  Biso   1.000  C
  C425     1.0000 0.47970  0.21967  0.78750  Biso   1.000  C
  H213     1.0000 0.38040  0.22440  0.78930  Biso   1.000  H
  C426     1.0000 0.52890  0.20886  0.75360  Biso   1.000  C
  H214     1.0000 0.46260  0.20640  0.73280  Biso   1.000  H
  C427     1.0000 0.67730  0.20178  0.75100  Biso   1.000  C
  C428     1.0000 0.52400  0.23370  0.85650  Biso   1.000  C
  C429     1.0000 0.24600  0.20294  0.64920  Biso   1.000  C
  C430     1.0000 0.24840  0.22762  0.64780  Biso   1.000  C
  C431     1.0000 0.38300  0.23856  0.64660  Biso   1.000  C
  H215     1.0000 0.47270  0.23080  0.64520  Biso   1.000  H
  C432     1.0000 0.38600  0.26104  0.64760  Biso   1.000  C
  H216     1.0000 0.47720  0.26850  0.64810  Biso   1.000  H
  Sc25     1.0000 0.99590  0.83330  0.67633  Biso   1.000  Sc
  Sc26     1.0000 0.49900  0.83330  0.65467  Biso   1.000  Sc
  O217     1.0000 0.12870  0.86027  0.68850  Biso   1.000  O
  O218     1.0000 0.37030  0.85983  0.66980  Biso   1.000  O
  O219     1.0000 0.12900  0.97181  0.65780  Biso   1.000  O
  O220     1.0000 0.36200  0.97296  0.67710  Biso   1.000  O
  O221     1.0000 0.63380  0.98400  0.71770  Biso   1.000  O
  O222     1.0000 0.86790  0.98760  0.69780  Biso   1.000  O
  O223     1.0000 0.87670  0.92253  0.87700  Biso   1.000  O
  O224     1.0000 0.11410  0.92468  0.85560  Biso   1.000  O
  O225     1.0000 0.37740  0.89621  0.86860  Biso   1.000  O
  O226     1.0000 0.61150  0.89690  0.89220  Biso   1.000  O
  O227     1.0000 0.62590  0.83808  0.70410  Biso   1.000  O
  O228     1.0000 0.86190  0.84062  0.72580  Biso   1.000  O
  O229     1.0000 0.13870  0.81473  0.71300  Biso   1.000  O
  O230     1.0000 0.36680  0.81232  0.68760  Biso   1.000  O
  O231     1.0000 0.38140  0.76290  0.88250  Biso   1.000  O
  O232     1.0000 0.61330  0.76220  0.85950  Biso   1.000  O
  O233     1.0000 0.63300  0.80679  0.64090  Biso   1.000  O
  O234     1.0000 0.87370  0.80614  0.66140  Biso   1.000  O
  C433     1.0000 0.24800  0.86960  0.67800  Biso   1.000  C
  C434     1.0000 0.11250  0.90481  0.67480  Biso   1.000  C
  H217     1.0000 0.02240  0.89710  0.67400  Biso   1.000  H
  C435     1.0000 0.11130  0.92748  0.67290  Biso   1.000  C
  H218     1.0000 0.02040  0.93490  0.67090  Biso   1.000  H
  C436     1.0000 0.24600  0.93902  0.67400  Biso   1.000  C
  C437     1.0000 0.38190  0.92789  0.67700  Biso   1.000  C
  H219     1.0000 0.47200  0.93560  0.67780  Biso   1.000  H
  C438     1.0000 0.38310  0.90522  0.67890  Biso   1.000  C
  H220     1.0000 0.47400  0.89780  0.68090  Biso   1.000  H
  C439     1.0000 0.24840  0.89368  0.67780  Biso   1.000  C
  C440     1.0000 0.24900  0.96280  0.66780  Biso   1.000  C
  C441     1.0000 0.77000  0.97970  0.71990  Biso   1.000  C
  C442     1.0000 0.92380  0.94173  0.81740  Biso   1.000  C
  C443     1.0000 0.02400  0.94828  0.78800  Biso   1.000  C
  H221     1.0000 0.12470  0.94420  0.78950  Biso   1.000  H
  C444     1.0000 0.97360  0.96092  0.75640  Biso   1.000  C
  H222     1.0000 0.04060  0.96530  0.73680  Biso   1.000  H
  C445     1.0000 0.82310  0.96700  0.75420  Biso   1.000  C
  C446     1.0000 0.72290  0.96045  0.78360  Biso   1.000  C
  H223     1.0000 0.62220  0.96450  0.78210  Biso   1.000  H
  C447     1.0000 0.77330  0.94782  0.81520  Biso   1.000  C
  H224     1.0000 0.70630  0.94340  0.83490  Biso   1.000  H
  C448     1.0000 0.97700  0.92880  0.85290  Biso   1.000  C
  C449     1.0000 0.51400  0.89170  0.86640  Biso   1.000  C
  C450     1.0000 0.76940  0.86141  0.79410  Biso   1.000  C
  H225     1.0000 0.87070  0.85790  0.79110  Biso   1.000  H
  C451     1.0000 0.66560  0.85494  0.76550  Biso   1.000  C
  C452     1.0000 0.51430  0.86019  0.77000  Biso   1.000  C
  H226     1.0000 0.44490  0.85590  0.75090  Biso   1.000  H
  C453     1.0000 0.46690  0.87191  0.80310  Biso   1.000  C
  H227     1.0000 0.36560  0.87540  0.80610  Biso   1.000  H
  C454     1.0000 0.57070  0.87838  0.83160  Biso   1.000  C
  C455     1.0000 0.72200  0.87313  0.82710  Biso   1.000  C
  H228     1.0000 0.79140  0.87750  0.84620  Biso   1.000  H
  C456     1.0000 0.72800  0.84400  0.72930  Biso   1.000  C
  C457     1.0000 0.27200  0.80897  0.71490  Biso   1.000  C
  C458     1.0000 0.22370  0.79448  0.78220  Biso   1.000  C
  H229     1.0000 0.12440  0.79920  0.78040  Biso   1.000  H
  C459     1.0000 0.27290  0.78366  0.81600  Biso   1.000  C
  H230     1.0000 0.20660  0.78120  0.83690  Biso   1.000  H
  C460     1.0000 0.42120  0.77658  0.81870  Biso   1.000  C
  C461     1.0000 0.52030  0.78033  0.78750  Biso   1.000  C
  H231     1.0000 0.61960  0.77560  0.78930  Biso   1.000  H
  C462     1.0000 0.47110  0.79114  0.75360  Biso   1.000  C
  H232     1.0000 0.53740  0.79360  0.73280  Biso   1.000  H
  C463     1.0000 0.32270  0.79822  0.75100  Biso   1.000  C
  C464     1.0000 0.47600  0.76630  0.85650  Biso   1.000  C
  C465     1.0000 0.75400  0.79706  0.64920  Biso   1.000  C
  C466     1.0000 0.75160  0.77238  0.64780  Biso   1.000  C
  C467     1.0000 0.61700  0.76144  0.64660  Biso   1.000  C
  H233     1.0000 0.52730  0.76920  0.64520  Biso   1.000  H
  C468     1.0000 0.61400  0.73896  0.64760  Biso   1.000  C
  H234     1.0000 0.52280  0.73150  0.64810  Biso   1.000  H
  Sc27     1.0000 0.99590  0.33330  0.17633  Biso   1.000  Sc
  Sc28     1.0000 0.49900  0.33330  0.15467  Biso   1.000  Sc
  O235     1.0000 0.12870  0.36027  0.18850  Biso   1.000  O
  O236     1.0000 0.37030  0.35983  0.16980  Biso   1.000  O
  O237     1.0000 0.12900  0.47181  0.15780  Biso   1.000  O
  O238     1.0000 0.36200  0.47296  0.17710  Biso   1.000  O
  O239     1.0000 0.63380  0.48400  0.21770  Biso   1.000  O
  O240     1.0000 0.86790  0.48760  0.19780  Biso   1.000  O
  O241     1.0000 0.87670  0.42253  0.37700  Biso   1.000  O
  O242     1.0000 0.11410  0.42468  0.35560  Biso   1.000  O
  O243     1.0000 0.37740  0.39621  0.36860  Biso   1.000  O
  O244     1.0000 0.61150  0.39690  0.39220  Biso   1.000  O
  O245     1.0000 0.62590  0.33808  0.20410  Biso   1.000  O
  O246     1.0000 0.86190  0.34062  0.22580  Biso   1.000  O
  O247     1.0000 0.13870  0.31473  0.21300  Biso   1.000  O
  O248     1.0000 0.36680  0.31232  0.18760  Biso   1.000  O
  O249     1.0000 0.38140  0.26290  0.38250  Biso   1.000  O
  O250     1.0000 0.61330  0.26220  0.35950  Biso   1.000  O
  O251     1.0000 0.63300  0.30679  0.14090  Biso   1.000  O
  O252     1.0000 0.87370  0.30614  0.16140  Biso   1.000  O
  C469     1.0000 0.24800  0.36960  0.17800  Biso   1.000  C
  C470     1.0000 0.11250  0.40481  0.17480  Biso   1.000  C
  H235     1.0000 0.02240  0.39710  0.17400  Biso   1.000  H
  C471     1.0000 0.11130  0.42748  0.17290  Biso   1.000  C
  H236     1.0000 0.02040  0.43490  0.17090  Biso   1.000  H
  C472     1.0000 0.24600  0.43902  0.17400  Biso   1.000  C
  C473     1.0000 0.38190  0.42789  0.17700  Biso   1.000  C
  H237     1.0000 0.47200  0.43560  0.17780  Biso   1.000  H
  C474     1.0000 0.38310  0.40522  0.17890  Biso   1.000  C
  H238     1.0000 0.47400  0.39780  0.18090  Biso   1.000  H
  C475     1.0000 0.24840  0.39368  0.17780  Biso   1.000  C
  C476     1.0000 0.24900  0.46280  0.16780  Biso   1.000  C
  C477     1.0000 0.77000  0.47970  0.21990  Biso   1.000  C
  C478     1.0000 0.92380  0.44173  0.31740  Biso   1.000  C
  C479     1.0000 0.02400  0.44828  0.28800  Biso   1.000  C
  H239     1.0000 0.12470  0.44420  0.28950  Biso   1.000  H
  C480     1.0000 0.97360  0.46092  0.25640  Biso   1.000  C
  H240     1.0000 0.04060  0.46530  0.23680  Biso   1.000  H
  C481     1.0000 0.82310  0.46700  0.25420  Biso   1.000  C
  C482     1.0000 0.72290  0.46045  0.28360  Biso   1.000  C
  H241     1.0000 0.62220  0.46450  0.28210  Biso   1.000  H
  C483     1.0000 0.77330  0.44782  0.31520  Biso   1.000  C
  H242     1.0000 0.70630  0.44340  0.33490  Biso   1.000  H
  C484     1.0000 0.97700  0.42880  0.35290  Biso   1.000  C
  C485     1.0000 0.51400  0.39170  0.36640  Biso   1.000  C
  C486     1.0000 0.76940  0.36141  0.29410  Biso   1.000  C
  H243     1.0000 0.87070  0.35790  0.29110  Biso   1.000  H
  C487     1.0000 0.66560  0.35494  0.26550  Biso   1.000  C
  C488     1.0000 0.51430  0.36019  0.27000  Biso   1.000  C
  H244     1.0000 0.44490  0.35590  0.25090  Biso   1.000  H
  C489     1.0000 0.46690  0.37191  0.30310  Biso   1.000  C
  H245     1.0000 0.36560  0.37540  0.30610  Biso   1.000  H
  C490     1.0000 0.57070  0.37838  0.33160  Biso   1.000  C
  C491     1.0000 0.72200  0.37313  0.32710  Biso   1.000  C
  H246     1.0000 0.79140  0.37750  0.34620  Biso   1.000  H
  C492     1.0000 0.72800  0.34400  0.22930  Biso   1.000  C
  C493     1.0000 0.27200  0.30897  0.21490  Biso   1.000  C
  C494     1.0000 0.22370  0.29448  0.28220  Biso   1.000  C
  H247     1.0000 0.12440  0.29920  0.28040  Biso   1.000  H
  C495     1.0000 0.27290  0.28366  0.31600  Biso   1.000  C
  H248     1.0000 0.20660  0.28120  0.33690  Biso   1.000  H
  C496     1.0000 0.42120  0.27658  0.31870  Biso   1.000  C
  C497     1.0000 0.52030  0.28033  0.28750  Biso   1.000  C
  H249     1.0000 0.61960  0.27560  0.28930  Biso   1.000  H
  C498     1.0000 0.47110  0.29114  0.25360  Biso   1.000  C
  H250     1.0000 0.53740  0.29360  0.23280  Biso   1.000  H
  C499     1.0000 0.32270  0.29822  0.25100  Biso   1.000  C
  C500     1.0000 0.47600  0.26630  0.35650  Biso   1.000  C
  C501     1.0000 0.75400  0.29706  0.14920  Biso   1.000  C
  C502     1.0000 0.75160  0.27238  0.14780  Biso   1.000  C
  C503     1.0000 0.61700  0.26144  0.14660  Biso   1.000  C
  H251     1.0000 0.52730  0.26920  0.14520  Biso   1.000  H
  C504     1.0000 0.61400  0.23896  0.14760  Biso   1.000  C
  H252     1.0000 0.52280  0.23150  0.14810  Biso   1.000  H
  Sc29     1.0000 0.49590  0.83330  0.17633  Biso   1.000  Sc
  Sc30     1.0000 0.99900  0.83330  0.15467  Biso   1.000  Sc
  O253     1.0000 0.62870  0.86027  0.18850  Biso   1.000  O
  O254     1.0000 0.87030  0.85983  0.16980  Biso   1.000  O
  O255     1.0000 0.62900  0.97181  0.15780  Biso   1.000  O
  O256     1.0000 0.86200  0.97296  0.17710  Biso   1.000  O
  O257     1.0000 0.13380  0.98400  0.21770  Biso   1.000  O
  O258     1.0000 0.36790  0.98760  0.19780  Biso   1.000  O
  O259     1.0000 0.37670  0.92253  0.37700  Biso   1.000  O
  O260     1.0000 0.61410  0.92468  0.35560  Biso   1.000  O
  O261     1.0000 0.87740  0.89621  0.36860  Biso   1.000  O
  O262     1.0000 0.11150  0.89690  0.39220  Biso   1.000  O
  O263     1.0000 0.12590  0.83808  0.20410  Biso   1.000  O
  O264     1.0000 0.36190  0.84062  0.22580  Biso   1.000  O
  O265     1.0000 0.63870  0.81473  0.21300  Biso   1.000  O
  O266     1.0000 0.86680  0.81232  0.18760  Biso   1.000  O
  O267     1.0000 0.88140  0.76290  0.38250  Biso   1.000  O
  O268     1.0000 0.11330  0.76220  0.35950  Biso   1.000  O
  O269     1.0000 0.13300  0.80679  0.14090  Biso   1.000  O
  O270     1.0000 0.37370  0.80614  0.16140  Biso   1.000  O
  C505     1.0000 0.74800  0.86960  0.17800  Biso   1.000  C
  C506     1.0000 0.61250  0.90481  0.17480  Biso   1.000  C
  H253     1.0000 0.52240  0.89710  0.17400  Biso   1.000  H
  C507     1.0000 0.61130  0.92748  0.17290  Biso   1.000  C
  H254     1.0000 0.52040  0.93490  0.17090  Biso   1.000  H
  C508     1.0000 0.74600  0.93902  0.17400  Biso   1.000  C
  C509     1.0000 0.88190  0.92789  0.17700  Biso   1.000  C
  H255     1.0000 0.97200  0.93560  0.17780  Biso   1.000  H
  C510     1.0000 0.88310  0.90522  0.17890  Biso   1.000  C
  H256     1.0000 0.97400  0.89780  0.18090  Biso   1.000  H
  C511     1.0000 0.74840  0.89368  0.17780  Biso   1.000  C
  C512     1.0000 0.74900  0.96280  0.16780  Biso   1.000  C
  C513     1.0000 0.27000  0.97970  0.21990  Biso   1.000  C
  C514     1.0000 0.42380  0.94173  0.31740  Biso   1.000  C
  C515     1.0000 0.52400  0.94828  0.28800  Biso   1.000  C
  H257     1.0000 0.62470  0.94420  0.28950  Biso   1.000  H
  C516     1.0000 0.47360  0.96092  0.25640  Biso   1.000  C
  H258     1.0000 0.54060  0.96530  0.23680  Biso   1.000  H
  C517     1.0000 0.32310  0.96700  0.25420  Biso   1.000  C
  C518     1.0000 0.22290  0.96045  0.28360  Biso   1.000  C
  H259     1.0000 0.12220  0.96450  0.28210  Biso   1.000  H
  C519     1.0000 0.27330  0.94782  0.31520  Biso   1.000  C
  H260     1.0000 0.20630  0.94340  0.33490  Biso   1.000  H
  C520     1.0000 0.47700  0.92880  0.35290  Biso   1.000  C
  C521     1.0000 0.01400  0.89170  0.36640  Biso   1.000  C
  C522     1.0000 0.26940  0.86141  0.29410  Biso   1.000  C
  H261     1.0000 0.37070  0.85790  0.29110  Biso   1.000  H
  C523     1.0000 0.16560  0.85494  0.26550  Biso   1.000  C
  C524     1.0000 0.01430  0.86019  0.27000  Biso   1.000  C
  H262     1.0000 0.94490  0.85590  0.25090  Biso   1.000  H
  C525     1.0000 0.96690  0.87191  0.30310  Biso   1.000  C
  H263     1.0000 0.86560  0.87540  0.30610  Biso   1.000  H
  C526     1.0000 0.07070  0.87838  0.33160  Biso   1.000  C
  C527     1.0000 0.22200  0.87313  0.32710  Biso   1.000  C
  H264     1.0000 0.29140  0.87750  0.34620  Biso   1.000  H
  C528     1.0000 0.22800  0.84400  0.22930  Biso   1.000  C
  C529     1.0000 0.77200  0.80897  0.21490  Biso   1.000  C
  C530     1.0000 0.72370  0.79448  0.28220  Biso   1.000  C
  H265     1.0000 0.62440  0.79920  0.28040  Biso   1.000  H
  C531     1.0000 0.77290  0.78366  0.31600  Biso   1.000  C
  H266     1.0000 0.70660  0.78120  0.33690  Biso   1.000  H
  C532     1.0000 0.92120  0.77658  0.31870  Biso   1.000  C
  C533     1.0000 0.02030  0.78033  0.28750  Biso   1.000  C
  H267     1.0000 0.11960  0.77560  0.28930  Biso   1.000  H
  C534     1.0000 0.97110  0.79114  0.25360  Biso   1.000  C
  H268     1.0000 0.03740  0.79360  0.23280  Biso   1.000  H
  C535     1.0000 0.82270  0.79822  0.25100  Biso   1.000  C
  C536     1.0000 0.97600  0.76630  0.35650  Biso   1.000  C
  C537     1.0000 0.25400  0.79706  0.14920  Biso   1.000  C
  C538     1.0000 0.25160  0.77238  0.14780  Biso   1.000  C
  C539     1.0000 0.11700  0.76144  0.14660  Biso   1.000  C
  H269     1.0000 0.02730  0.76920  0.14520  Biso   1.000  H
  C540     1.0000 0.11400  0.73896  0.14760  Biso   1.000  C
  H270     1.0000 0.02280  0.73150  0.14810  Biso   1.000  H
  Sc31     1.0000 0.49590  0.33330  0.67633  Biso   1.000  Sc
  Sc32     1.0000 0.99900  0.33330  0.65467  Biso   1.000  Sc
  O271     1.0000 0.62870  0.36027  0.68850  Biso   1.000  O
  O272     1.0000 0.87030  0.35983  0.66980  Biso   1.000  O
  O273     1.0000 0.62900  0.47181  0.65780  Biso   1.000  O
  O274     1.0000 0.86200  0.47296  0.67710  Biso   1.000  O
  O275     1.0000 0.13380  0.48400  0.71770  Biso   1.000  O
  O276     1.0000 0.36790  0.48760  0.69780  Biso   1.000  O
  O277     1.0000 0.37670  0.42253  0.87700  Biso   1.000  O
  O278     1.0000 0.61410  0.42468  0.85560  Biso   1.000  O
  O279     1.0000 0.87740  0.39621  0.86860  Biso   1.000  O
  O280     1.0000 0.11150  0.39690  0.89220  Biso   1.000  O
  O281     1.0000 0.12590  0.33808  0.70410  Biso   1.000  O
  O282     1.0000 0.36190  0.34062  0.72580  Biso   1.000  O
  O283     1.0000 0.63870  0.31473  0.71300  Biso   1.000  O
  O284     1.0000 0.86680  0.31232  0.68760  Biso   1.000  O
  O285     1.0000 0.88140  0.26290  0.88250  Biso   1.000  O
  O286     1.0000 0.11330  0.26220  0.85950  Biso   1.000  O
  O287     1.0000 0.13300  0.30679  0.64090  Biso   1.000  O
  O288     1.0000 0.37370  0.30614  0.66140  Biso   1.000  O
  C541     1.0000 0.74800  0.36960  0.67800  Biso   1.000  C
  C542     1.0000 0.61250  0.40481  0.67480  Biso   1.000  C
  H271     1.0000 0.52240  0.39710  0.67400  Biso   1.000  H
  C543     1.0000 0.61130  0.42748  0.67290  Biso   1.000  C
  H272     1.0000 0.52040  0.43490  0.67090  Biso   1.000  H
  C544     1.0000 0.74600  0.43902  0.67400  Biso   1.000  C
  C545     1.0000 0.88190  0.42789  0.67700  Biso   1.000  C
  H273     1.0000 0.97200  0.43560  0.67780  Biso   1.000  H
  C546     1.0000 0.88310  0.40522  0.67890  Biso   1.000  C
  H274     1.0000 0.97400  0.39780  0.68090  Biso   1.000  H
  C547     1.0000 0.74840  0.39368  0.67780  Biso   1.000  C
  C548     1.0000 0.74900  0.46280  0.66780  Biso   1.000  C
  C549     1.0000 0.27000  0.47970  0.71990  Biso   1.000  C
  C550     1.0000 0.42380  0.44173  0.81740  Biso   1.000  C
  C551     1.0000 0.52400  0.44828  0.78800  Biso   1.000  C
  H275     1.0000 0.62470  0.44420  0.78950  Biso   1.000  H
  C552     1.0000 0.47360  0.46092  0.75640  Biso   1.000  C
  H276     1.0000 0.54060  0.46530  0.73680  Biso   1.000  H
  C553     1.0000 0.32310  0.46700  0.75420  Biso   1.000  C
  C554     1.0000 0.22290  0.46045  0.78360  Biso   1.000  C
  H277     1.0000 0.12220  0.46450  0.78210  Biso   1.000  H
  C555     1.0000 0.27330  0.44782  0.81520  Biso   1.000  C
  H278     1.0000 0.20630  0.44340  0.83490  Biso   1.000  H
  C556     1.0000 0.47700  0.42880  0.85290  Biso   1.000  C
  C557     1.0000 0.01400  0.39170  0.86640  Biso   1.000  C
  C558     1.0000 0.26940  0.36141  0.79410  Biso   1.000  C
  H279     1.0000 0.37070  0.35790  0.79110  Biso   1.000  H
  C559     1.0000 0.16560  0.35494  0.76550  Biso   1.000  C
  C560     1.0000 0.01430  0.36019  0.77000  Biso   1.000  C
  H280     1.0000 0.94490  0.35590  0.75090  Biso   1.000  H
  C561     1.0000 0.96690  0.37191  0.80310  Biso   1.000  C
  H281     1.0000 0.86560  0.37540  0.80610  Biso   1.000  H
  C562     1.0000 0.07070  0.37838  0.83160  Biso   1.000  C
  C563     1.0000 0.22200  0.37313  0.82710  Biso   1.000  C
  H282     1.0000 0.29140  0.37750  0.84620  Biso   1.000  H
  C564     1.0000 0.22800  0.34400  0.72930  Biso   1.000  C
  C565     1.0000 0.77200  0.30897  0.71490  Biso   1.000  C
  C566     1.0000 0.72370  0.29448  0.78220  Biso   1.000  C
  H283     1.0000 0.62440  0.29920  0.78040  Biso   1.000  H
  C567     1.0000 0.77290  0.28366  0.81600  Biso   1.000  C
  H284     1.0000 0.70660  0.28120  0.83690  Biso   1.000  H
  C568     1.0000 0.92120  0.27658  0.81870  Biso   1.000  C
  C569     1.0000 0.02030  0.28033  0.78750  Biso   1.000  C
  H285     1.0000 0.11960  0.27560  0.78930  Biso   1.000  H
  C570     1.0000 0.97110  0.29114  0.75360  Biso   1.000  C
  H286     1.0000 0.03740  0.29360  0.73280  Biso   1.000  H
  C571     1.0000 0.82270  0.29822  0.75100  Biso   1.000  C
  C572     1.0000 0.97600  0.26630  0.85650  Biso   1.000  C
  C573     1.0000 0.25400  0.29706  0.64920  Biso   1.000  C
  C574     1.0000 0.25160  0.27238  0.64780  Biso   1.000  C
  C575     1.0000 0.11700  0.26144  0.64660  Biso   1.000  C
  H287     1.0000 0.02730  0.26920  0.64520  Biso   1.000  H
  C576     1.0000 0.11400  0.23896  0.64760  Biso   1.000  C
  H288     1.0000 0.02280  0.23150  0.64810  Biso   1.000  H
  Sc33     1.0000 0.75000  0.75000  0.42626  Biso   1.000  Sc
  Sc34     1.0000 0.75000  0.25000  0.92626  Biso   1.000  Sc
  Sc35     1.0000 0.25000  0.25000  0.42626  Biso   1.000  Sc
  Sc36     1.0000 0.25000  0.75000  0.92626  Biso   1.000  Sc
  Sc37     1.0000 0.00000  0.50000  0.67626  Biso   1.000  Sc
  Sc38     1.0000 0.00000  0.00000  0.17626  Biso   1.000  Sc
  Sc39     1.0000 0.50000  0.50000  0.17626  Biso   1.000  Sc
  Sc40     1.0000 0.50000  0.00000  0.67626  Biso   1.000  Sc
  Sc41     1.0000 0.25000  0.75000  0.40465  Biso   1.000  Sc
  Sc42     1.0000 0.25000  0.25000  0.90465  Biso   1.000  Sc
  Sc43     1.0000 0.75000  0.25000  0.40465  Biso   1.000  Sc
  Sc44     1.0000 0.75000  0.75000  0.90465  Biso   1.000  Sc
  Sc45     1.0000 0.50000  0.50000  0.65465  Biso   1.000  Sc
  Sc46     1.0000 0.50000  0.00000  0.15465  Biso   1.000  Sc
  Sc47     1.0000 0.00000  0.00000  0.65465  Biso   1.000  Sc
  Sc48     1.0000 0.00000  0.50000  0.15465  Biso   1.000  Sc
