data_image0
_cell_length_a       38.342
_cell_length_b       39.707
_cell_length_c       39.707
_cell_angle_alpha    90
_cell_angle_beta     90
_cell_angle_gamma    90

_symmetry_space_group_name_H-M    P 1
_symmetry_int_tables_number       1

loop_
  _symmetry_equiv_pos_as_xyz
  'x, y, z'

loop_
  _atom_site_label
  _atom_site_occupancy
  _atom_site_fract_x
  _atom_site_fract_y
  _atom_site_fract_z
  _atom_site_thermal_displace_type
  _atom_site_B_iso_or_equiv
  _atom_site_type_symbol
  Cu1      1.0000 0.04678  0.25000  0.25000  Biso   1.000  Cu
  Cu2      1.0000 0.11629  0.25000  0.25000  Biso   1.000  Cu
  Cu3      1.0000 0.54678  0.25000  0.25000  Biso   1.000  Cu
  Cu4      1.0000 0.61629  0.25000  0.25000  Biso   1.000  Cu
  Cu5      1.0000 0.31622  0.46040  0.75000  Biso   1.000  Cu
  Cu6      1.0000 0.31846  0.52750  0.75000  Biso   1.000  Cu
  Cu7      1.0000 0.31622  0.03960  0.75000  Biso   1.000  Cu
  Cu8      1.0000 0.31846  0.97250  0.75000  Biso   1.000  Cu
  Cu9      1.0000 0.81622  0.75000  0.46040  Biso   1.000  Cu
  Cu10     1.0000 0.81846  0.75000  0.52750  Biso   1.000  Cu
  Cu11     1.0000 0.81622  0.75000  0.03960  Biso   1.000  Cu
  Cu12     1.0000 0.81846  0.75000  0.97250  Biso   1.000  Cu
  H1       1.0000 0.02790  0.46340  0.42360  Biso   1.000  H
  H2       1.0000 0.02850  0.41970  0.38460  Biso   1.000  H
  H3       1.0000 0.12580  0.39460  0.41360  Biso   1.000  H
  H4       1.0000 0.12430  0.43710  0.45290  Biso   1.000  H
  H5       1.0000 0.02490  0.36300  0.36570  Biso   1.000  H
  H6       1.0000 0.02990  0.32000  0.32530  Biso   1.000  H
  H7       1.0000 0.13260  0.33630  0.32320  Biso   1.000  H
  H8       1.0000 0.12730  0.37830  0.36290  Biso   1.000  H
  H9       1.0000 0.14230  0.45560  0.53520  Biso   1.000  H
  H10      1.0000 0.18340  0.45490  0.57800  Biso   1.000  H
  H11      1.0000 0.14070  0.54110  0.61130  Biso   1.000  H
  H12      1.0000 0.10550  0.54360  0.56590  Biso   1.000  H
  H13      1.0000 0.19150  0.44870  0.62900  Biso   1.000  H
  H14      1.0000 0.23340  0.44400  0.66970  Biso   1.000  H
  H15      1.0000 0.24220  0.54620  0.67330  Biso   1.000  H
  H16      1.0000 0.20100  0.54870  0.63010  Biso   1.000  H
  H17      1.0000 0.03840  0.57450  0.53270  Biso   1.000  H
  H18      1.0000 0.99650  0.61810  0.53340  Biso   1.000  H
  H19      1.0000 0.95240  0.57360  0.45160  Biso   1.000  H
  H20      1.0000 0.99250  0.53040  0.45190  Biso   1.000  H
  H21      1.0000 0.94020  0.63110  0.54090  Biso   1.000  H
  H22      1.0000 0.90030  0.67530  0.54230  Biso   1.000  H
  H23      1.0000 0.89240  0.67450  0.44400  Biso   1.000  H
  H24      1.0000 0.93340  0.63090  0.43780  Biso   1.000  H
  H25      1.0000 0.02790  0.03660  0.07640  Biso   1.000  H
  H26      1.0000 0.02850  0.08030  0.11540  Biso   1.000  H
  H27      1.0000 0.12580  0.10540  0.08640  Biso   1.000  H
  H28      1.0000 0.12430  0.06290  0.04710  Biso   1.000  H
  H29      1.0000 0.02490  0.13700  0.13430  Biso   1.000  H
  H30      1.0000 0.02990  0.18000  0.17470  Biso   1.000  H
  H31      1.0000 0.13260  0.16370  0.17680  Biso   1.000  H
  H32      1.0000 0.12730  0.12170  0.13710  Biso   1.000  H
  H33      1.0000 0.14230  0.04440  0.96480  Biso   1.000  H
  H34      1.0000 0.18340  0.04510  0.92200  Biso   1.000  H
  H35      1.0000 0.14070  0.95890  0.88870  Biso   1.000  H
  H36      1.0000 0.10550  0.95640  0.93410  Biso   1.000  H
  H37      1.0000 0.19150  0.05130  0.87100  Biso   1.000  H
  H38      1.0000 0.23340  0.05600  0.83030  Biso   1.000  H
  H39      1.0000 0.24220  0.95380  0.82670  Biso   1.000  H
  H40      1.0000 0.20100  0.95130  0.86990  Biso   1.000  H
  H41      1.0000 0.03840  0.92550  0.96730  Biso   1.000  H
  H42      1.0000 0.99650  0.88190  0.96660  Biso   1.000  H
  H43      1.0000 0.95240  0.92640  0.04840  Biso   1.000  H
  H44      1.0000 0.99250  0.96960  0.04810  Biso   1.000  H
  H45      1.0000 0.94020  0.86890  0.95910  Biso   1.000  H
  H46      1.0000 0.90030  0.82470  0.95770  Biso   1.000  H
  H47      1.0000 0.89240  0.82550  0.05600  Biso   1.000  H
  H48      1.0000 0.93340  0.86910  0.06220  Biso   1.000  H
  H49      1.0000 0.52790  0.07640  0.46340  Biso   1.000  H
  H50      1.0000 0.52850  0.11540  0.41970  Biso   1.000  H
  H51      1.0000 0.62580  0.08640  0.39460  Biso   1.000  H
  H52      1.0000 0.62430  0.04710  0.43710  Biso   1.000  H
  H53      1.0000 0.52490  0.13430  0.36300  Biso   1.000  H
  H54      1.0000 0.52990  0.17470  0.32000  Biso   1.000  H
  H55      1.0000 0.63260  0.17680  0.33630  Biso   1.000  H
  H56      1.0000 0.62730  0.13710  0.37830  Biso   1.000  H
  H57      1.0000 0.64230  0.96480  0.45560  Biso   1.000  H
  H58      1.0000 0.68340  0.92200  0.45490  Biso   1.000  H
  H59      1.0000 0.64070  0.88870  0.54110  Biso   1.000  H
  H60      1.0000 0.60550  0.93410  0.54360  Biso   1.000  H
  H61      1.0000 0.69150  0.87100  0.44870  Biso   1.000  H
  H62      1.0000 0.73340  0.83030  0.44400  Biso   1.000  H
  H63      1.0000 0.74220  0.82670  0.54620  Biso   1.000  H
  H64      1.0000 0.70100  0.86990  0.54870  Biso   1.000  H
  H65      1.0000 0.53840  0.96730  0.57450  Biso   1.000  H
  H66      1.0000 0.49650  0.96660  0.61810  Biso   1.000  H
  H67      1.0000 0.45240  0.04840  0.57360  Biso   1.000  H
  H68      1.0000 0.49250  0.04810  0.53040  Biso   1.000  H
  H69      1.0000 0.44020  0.95910  0.63110  Biso   1.000  H
  H70      1.0000 0.40030  0.95770  0.67530  Biso   1.000  H
  H71      1.0000 0.39240  0.05600  0.67450  Biso   1.000  H
  H72      1.0000 0.43340  0.06220  0.63090  Biso   1.000  H
  H73      1.0000 0.52790  0.42360  0.03660  Biso   1.000  H
  H74      1.0000 0.52850  0.38460  0.08030  Biso   1.000  H
  H75      1.0000 0.62580  0.41360  0.10540  Biso   1.000  H
  H76      1.0000 0.62430  0.45290  0.06290  Biso   1.000  H
  H77      1.0000 0.52490  0.36570  0.13700  Biso   1.000  H
  H78      1.0000 0.52990  0.32530  0.18000  Biso   1.000  H
  H79      1.0000 0.63260  0.32320  0.16370  Biso   1.000  H
  H80      1.0000 0.62730  0.36290  0.12170  Biso   1.000  H
  H81      1.0000 0.64230  0.53520  0.04440  Biso   1.000  H
  H82      1.0000 0.68340  0.57800  0.04510  Biso   1.000  H
  H83      1.0000 0.64070  0.61130  0.95890  Biso   1.000  H
  H84      1.0000 0.60550  0.56590  0.95640  Biso   1.000  H
  H85      1.0000 0.69150  0.62900  0.05130  Biso   1.000  H
  H86      1.0000 0.73340  0.66970  0.05600  Biso   1.000  H
  H87      1.0000 0.74220  0.67330  0.95380  Biso   1.000  H
  H88      1.0000 0.70100  0.63010  0.95130  Biso   1.000  H
  H89      1.0000 0.53840  0.53270  0.92550  Biso   1.000  H
  H90      1.0000 0.49650  0.53340  0.88190  Biso   1.000  H
  H91      1.0000 0.45240  0.45160  0.92640  Biso   1.000  H
  H92      1.0000 0.49250  0.45190  0.96960  Biso   1.000  H
  H93      1.0000 0.44020  0.54090  0.86890  Biso   1.000  H
  H94      1.0000 0.40030  0.54230  0.82470  Biso   1.000  H
  H95      1.0000 0.39240  0.44400  0.82550  Biso   1.000  H
  H96      1.0000 0.43340  0.43780  0.86910  Biso   1.000  H
  H97      1.0000 0.02790  0.46340  0.07640  Biso   1.000  H
  H98      1.0000 0.02850  0.41970  0.11540  Biso   1.000  H
  H99      1.0000 0.12580  0.39460  0.08640  Biso   1.000  H
  H100     1.0000 0.12430  0.43710  0.04710  Biso   1.000  H
  H101     1.0000 0.02490  0.36300  0.13430  Biso   1.000  H
  H102     1.0000 0.02990  0.32000  0.17470  Biso   1.000  H
  H103     1.0000 0.13260  0.33630  0.17680  Biso   1.000  H
  H104     1.0000 0.12730  0.37830  0.13710  Biso   1.000  H
  H105     1.0000 0.14230  0.45560  0.96480  Biso   1.000  H
  H106     1.0000 0.18340  0.45490  0.92200  Biso   1.000  H
  H107     1.0000 0.14070  0.54110  0.88870  Biso   1.000  H
  H108     1.0000 0.10550  0.54360  0.93410  Biso   1.000  H
  H109     1.0000 0.19150  0.44870  0.87100  Biso   1.000  H
  H110     1.0000 0.23340  0.44400  0.83030  Biso   1.000  H
  H111     1.0000 0.24220  0.54620  0.82670  Biso   1.000  H
  H112     1.0000 0.20100  0.54870  0.86990  Biso   1.000  H
  H113     1.0000 0.03840  0.57450  0.96730  Biso   1.000  H
  H114     1.0000 0.99650  0.61810  0.96660  Biso   1.000  H
  H115     1.0000 0.95240  0.57360  0.04840  Biso   1.000  H
  H116     1.0000 0.99250  0.53040  0.04810  Biso   1.000  H
  H117     1.0000 0.94020  0.63110  0.95910  Biso   1.000  H
  H118     1.0000 0.90030  0.67530  0.95770  Biso   1.000  H
  H119     1.0000 0.89240  0.67450  0.05600  Biso   1.000  H
  H120     1.0000 0.93340  0.63090  0.06220  Biso   1.000  H
  H121     1.0000 0.02790  0.03660  0.42360  Biso   1.000  H
  H122     1.0000 0.02850  0.08030  0.38460  Biso   1.000  H
  H123     1.0000 0.12580  0.10540  0.41360  Biso   1.000  H
  H124     1.0000 0.12430  0.06290  0.45290  Biso   1.000  H
  H125     1.0000 0.02490  0.13700  0.36570  Biso   1.000  H
  H126     1.0000 0.02990  0.18000  0.32530  Biso   1.000  H
  H127     1.0000 0.13260  0.16370  0.32320  Biso   1.000  H
  H128     1.0000 0.12730  0.12170  0.36290  Biso   1.000  H
  H129     1.0000 0.14230  0.04440  0.53520  Biso   1.000  H
  H130     1.0000 0.18340  0.04510  0.57800  Biso   1.000  H
  H131     1.0000 0.14070  0.95890  0.61130  Biso   1.000  H
  H132     1.0000 0.10550  0.95640  0.56590  Biso   1.000  H
  H133     1.0000 0.19150  0.05130  0.62900  Biso   1.000  H
  H134     1.0000 0.23340  0.05600  0.66970  Biso   1.000  H
  H135     1.0000 0.24220  0.95380  0.67330  Biso   1.000  H
  H136     1.0000 0.20100  0.95130  0.63010  Biso   1.000  H
  H137     1.0000 0.03840  0.92550  0.53270  Biso   1.000  H
  H138     1.0000 0.99650  0.88190  0.53340  Biso   1.000  H
  H139     1.0000 0.95240  0.92640  0.45160  Biso   1.000  H
  H140     1.0000 0.99250  0.96960  0.45190  Biso   1.000  H
  H141     1.0000 0.94020  0.86890  0.54090  Biso   1.000  H
  H142     1.0000 0.90030  0.82470  0.54230  Biso   1.000  H
  H143     1.0000 0.89240  0.82550  0.44400  Biso   1.000  H
  H144     1.0000 0.93340  0.86910  0.43780  Biso   1.000  H
  H145     1.0000 0.52790  0.07640  0.03660  Biso   1.000  H
  H146     1.0000 0.52850  0.11540  0.08030  Biso   1.000  H
  H147     1.0000 0.62580  0.08640  0.10540  Biso   1.000  H
  H148     1.0000 0.62430  0.04710  0.06290  Biso   1.000  H
  H149     1.0000 0.52490  0.13430  0.13700  Biso   1.000  H
  H150     1.0000 0.52990  0.17470  0.18000  Biso   1.000  H
  H151     1.0000 0.63260  0.17680  0.16370  Biso   1.000  H
  H152     1.0000 0.62730  0.13710  0.12170  Biso   1.000  H
  H153     1.0000 0.64230  0.96480  0.04440  Biso   1.000  H
  H154     1.0000 0.68340  0.92200  0.04510  Biso   1.000  H
  H155     1.0000 0.64070  0.88870  0.95890  Biso   1.000  H
  H156     1.0000 0.60550  0.93410  0.95640  Biso   1.000  H
  H157     1.0000 0.69150  0.87100  0.05130  Biso   1.000  H
  H158     1.0000 0.73340  0.83030  0.05600  Biso   1.000  H
  H159     1.0000 0.74220  0.82670  0.95380  Biso   1.000  H
  H160     1.0000 0.70100  0.86990  0.95130  Biso   1.000  H
  H161     1.0000 0.53840  0.96730  0.92550  Biso   1.000  H
  H162     1.0000 0.49650  0.96660  0.88190  Biso   1.000  H
  H163     1.0000 0.45240  0.04840  0.92640  Biso   1.000  H
  H164     1.0000 0.49250  0.04810  0.96960  Biso   1.000  H
  H165     1.0000 0.44020  0.95910  0.86890  Biso   1.000  H
  H166     1.0000 0.40030  0.95770  0.82470  Biso   1.000  H
  H167     1.0000 0.39240  0.05600  0.82550  Biso   1.000  H
  H168     1.0000 0.43340  0.06220  0.86910  Biso   1.000  H
  H169     1.0000 0.52790  0.42360  0.46340  Biso   1.000  H
  H170     1.0000 0.52850  0.38460  0.41970  Biso   1.000  H
  H171     1.0000 0.62580  0.41360  0.39460  Biso   1.000  H
  H172     1.0000 0.62430  0.45290  0.43710  Biso   1.000  H
  H173     1.0000 0.52490  0.36570  0.36300  Biso   1.000  H
  H174     1.0000 0.52990  0.32530  0.32000  Biso   1.000  H
  H175     1.0000 0.63260  0.32320  0.33630  Biso   1.000  H
  H176     1.0000 0.62730  0.36290  0.37830  Biso   1.000  H
  H177     1.0000 0.64230  0.53520  0.45560  Biso   1.000  H
  H178     1.0000 0.68340  0.57800  0.45490  Biso   1.000  H
  H179     1.0000 0.64070  0.61130  0.54110  Biso   1.000  H
  H180     1.0000 0.60550  0.56590  0.54360  Biso   1.000  H
  H181     1.0000 0.69150  0.62900  0.44870  Biso   1.000  H
  H182     1.0000 0.73340  0.66970  0.44400  Biso   1.000  H
  H183     1.0000 0.74220  0.67330  0.54620  Biso   1.000  H
  H184     1.0000 0.70100  0.63010  0.54870  Biso   1.000  H
  H185     1.0000 0.53840  0.53270  0.57450  Biso   1.000  H
  H186     1.0000 0.49650  0.53340  0.61810  Biso   1.000  H
  H187     1.0000 0.45240  0.45160  0.57360  Biso   1.000  H
  H188     1.0000 0.49250  0.45190  0.53040  Biso   1.000  H
  H189     1.0000 0.44020  0.54090  0.63110  Biso   1.000  H
  H190     1.0000 0.40030  0.54230  0.67530  Biso   1.000  H
  H191     1.0000 0.39240  0.44400  0.67450  Biso   1.000  H
  H192     1.0000 0.43340  0.43780  0.63090  Biso   1.000  H
  C1       1.0000 0.07420  0.47820  0.46960  Biso   1.000  C
  C2       1.0000 0.09460  0.50070  0.51980  Biso   1.000  C
  C3       1.0000 0.04720  0.52300  0.49250  Biso   1.000  C
  C4       1.0000 0.07540  0.45270  0.44250  Biso   1.000  C
  C5       1.0000 0.04710  0.44920  0.42160  Biso   1.000  C
  C6       1.0000 0.04810  0.42420  0.39760  Biso   1.000  C
  C7       1.0000 0.07810  0.40610  0.39310  Biso   1.000  C
  C8       1.0000 0.10660  0.40890  0.41520  Biso   1.000  C
  C9       1.0000 0.10530  0.43330  0.43900  Biso   1.000  C
  C10      1.0000 0.07650  0.37750  0.36790  Biso   1.000  C
  C11      1.0000 0.04680  0.35810  0.35670  Biso   1.000  C
  C12      1.0000 0.04970  0.33160  0.33250  Biso   1.000  C
  C13      1.0000 0.08200  0.32350  0.31980  Biso   1.000  C
  C14      1.0000 0.11050  0.34150  0.33140  Biso   1.000  C
  C15      1.0000 0.10720  0.36760  0.35540  Biso   1.000  C
  C16      1.0000 0.07880  0.29410  0.29510  Biso   1.000  C
  C17      1.0000 0.12010  0.50040  0.54730  Biso   1.000  C
  C18      1.0000 0.14340  0.47320  0.55060  Biso   1.000  C
  C19      1.0000 0.16720  0.47220  0.57580  Biso   1.000  C
  C20      1.0000 0.16560  0.49830  0.59710  Biso   1.000  C
  C21      1.0000 0.14170  0.52450  0.59490  Biso   1.000  C
  C22      1.0000 0.12040  0.52530  0.56890  Biso   1.000  C
  C23      1.0000 0.19280  0.49860  0.62500  Biso   1.000  C
  C24      1.0000 0.20210  0.46800  0.63740  Biso   1.000  C
  C25      1.0000 0.22670  0.46520  0.66220  Biso   1.000  C
  C26      1.0000 0.24210  0.49400  0.67620  Biso   1.000  C
  C27      1.0000 0.23250  0.52670  0.66430  Biso   1.000  C
  C28      1.0000 0.20780  0.52790  0.63860  Biso   1.000  C
  C29      1.0000 0.27160  0.49460  0.70680  Biso   1.000  C
  C30      1.0000 0.01930  0.54830  0.49250  Biso   1.000  C
  C31      1.0000 0.02060  0.57460  0.51670  Biso   1.000  C
  C32      1.0000 0.99570  0.60100  0.51740  Biso   1.000  C
  C33      1.0000 0.96980  0.59940  0.49250  Biso   1.000  C
  C34      1.0000 0.96960  0.57330  0.46820  Biso   1.000  C
  C35      1.0000 0.99350  0.54750  0.46780  Biso   1.000  C
  C36      1.0000 0.94150  0.62770  0.48980  Biso   1.000  C
  C37      1.0000 0.93110  0.63990  0.52100  Biso   1.000  C
  C38      1.0000 0.90640  0.66610  0.52150  Biso   1.000  C
  C39      1.0000 0.89050  0.67890  0.49300  Biso   1.000  C
  C40      1.0000 0.90210  0.66550  0.46360  Biso   1.000  C
  C41      1.0000 0.92710  0.63940  0.45880  Biso   1.000  C
  C42      1.0000 0.86370  0.70360  0.49270  Biso   1.000  C
  C43      1.0000 0.07420  0.02180  0.03040  Biso   1.000  C
  C44      1.0000 0.09460  0.99930  0.98020  Biso   1.000  C
  C45      1.0000 0.04720  0.97700  0.00750  Biso   1.000  C
  C46      1.0000 0.07540  0.04730  0.05750  Biso   1.000  C
  C47      1.0000 0.04710  0.05080  0.07840  Biso   1.000  C
  C48      1.0000 0.04810  0.07580  0.10240  Biso   1.000  C
  C49      1.0000 0.07810  0.09390  0.10690  Biso   1.000  C
  C50      1.0000 0.10660  0.09110  0.08480  Biso   1.000  C
  C51      1.0000 0.10530  0.06670  0.06100  Biso   1.000  C
  C52      1.0000 0.07650  0.12250  0.13210  Biso   1.000  C
  C53      1.0000 0.04680  0.14190  0.14330  Biso   1.000  C
  C54      1.0000 0.04970  0.16840  0.16750  Biso   1.000  C
  C55      1.0000 0.08200  0.17650  0.18020  Biso   1.000  C
  C56      1.0000 0.11050  0.15850  0.16860  Biso   1.000  C
  C57      1.0000 0.10720  0.13240  0.14460  Biso   1.000  C
  C58      1.0000 0.07880  0.20590  0.20490  Biso   1.000  C
  C59      1.0000 0.12010  0.99960  0.95270  Biso   1.000  C
  C60      1.0000 0.14340  0.02680  0.94940  Biso   1.000  C
  C61      1.0000 0.16720  0.02780  0.92420  Biso   1.000  C
  C62      1.0000 0.16560  0.00170  0.90290  Biso   1.000  C
  C63      1.0000 0.14170  0.97550  0.90510  Biso   1.000  C
  C64      1.0000 0.12040  0.97470  0.93110  Biso   1.000  C
  C65      1.0000 0.19280  0.00140  0.87500  Biso   1.000  C
  C66      1.0000 0.20210  0.03200  0.86260  Biso   1.000  C
  C67      1.0000 0.22670  0.03480  0.83780  Biso   1.000  C
  C68      1.0000 0.24210  0.00600  0.82380  Biso   1.000  C
  C69      1.0000 0.23250  0.97330  0.83570  Biso   1.000  C
  C70      1.0000 0.20780  0.97210  0.86140  Biso   1.000  C
  C71      1.0000 0.27160  0.00540  0.79320  Biso   1.000  C
  C72      1.0000 0.01930  0.95170  0.00750  Biso   1.000  C
  C73      1.0000 0.02060  0.92540  0.98330  Biso   1.000  C
  C74      1.0000 0.99570  0.89900  0.98260  Biso   1.000  C
  C75      1.0000 0.96980  0.90060  0.00750  Biso   1.000  C
  C76      1.0000 0.96960  0.92670  0.03180  Biso   1.000  C
  C77      1.0000 0.99350  0.95250  0.03220  Biso   1.000  C
  C78      1.0000 0.94150  0.87230  0.01020  Biso   1.000  C
  C79      1.0000 0.93110  0.86010  0.97900  Biso   1.000  C
  C80      1.0000 0.90640  0.83390  0.97850  Biso   1.000  C
  C81      1.0000 0.89050  0.82110  0.00700  Biso   1.000  C
  C82      1.0000 0.90210  0.83450  0.03640  Biso   1.000  C
  C83      1.0000 0.92710  0.86060  0.04120  Biso   1.000  C
  C84      1.0000 0.86370  0.79640  0.00730  Biso   1.000  C
  C85      1.0000 0.57420  0.03040  0.47820  Biso   1.000  C
  C86      1.0000 0.59460  0.98020  0.50070  Biso   1.000  C
  C87      1.0000 0.54720  0.00750  0.52300  Biso   1.000  C
  C88      1.0000 0.57540  0.05750  0.45270  Biso   1.000  C
  C89      1.0000 0.54710  0.07840  0.44920  Biso   1.000  C
  C90      1.0000 0.54810  0.10240  0.42420  Biso   1.000  C
  C91      1.0000 0.57810  0.10690  0.40610  Biso   1.000  C
  C92      1.0000 0.60660  0.08480  0.40890  Biso   1.000  C
  C93      1.0000 0.60530  0.06100  0.43330  Biso   1.000  C
  C94      1.0000 0.57650  0.13210  0.37750  Biso   1.000  C
  C95      1.0000 0.54680  0.14330  0.35810  Biso   1.000  C
  C96      1.0000 0.54970  0.16750  0.33160  Biso   1.000  C
  C97      1.0000 0.58200  0.18020  0.32350  Biso   1.000  C
  C98      1.0000 0.61050  0.16860  0.34150  Biso   1.000  C
  C99      1.0000 0.60720  0.14460  0.36760  Biso   1.000  C
  C100     1.0000 0.57880  0.20490  0.29410  Biso   1.000  C
  C101     1.0000 0.62010  0.95270  0.50040  Biso   1.000  C
  C102     1.0000 0.64340  0.94940  0.47320  Biso   1.000  C
  C103     1.0000 0.66720  0.92420  0.47220  Biso   1.000  C
  C104     1.0000 0.66560  0.90290  0.49830  Biso   1.000  C
  C105     1.0000 0.64170  0.90510  0.52450  Biso   1.000  C
  C106     1.0000 0.62040  0.93110  0.52530  Biso   1.000  C
  C107     1.0000 0.69280  0.87500  0.49860  Biso   1.000  C
  C108     1.0000 0.70210  0.86260  0.46800  Biso   1.000  C
  C109     1.0000 0.72670  0.83780  0.46520  Biso   1.000  C
  C110     1.0000 0.74210  0.82380  0.49400  Biso   1.000  C
  C111     1.0000 0.73250  0.83570  0.52670  Biso   1.000  C
  C112     1.0000 0.70780  0.86140  0.52790  Biso   1.000  C
  C113     1.0000 0.77160  0.79320  0.49460  Biso   1.000  C
  C114     1.0000 0.51930  0.00750  0.54830  Biso   1.000  C
  C115     1.0000 0.52060  0.98330  0.57460  Biso   1.000  C
  C116     1.0000 0.49570  0.98260  0.60100  Biso   1.000  C
  C117     1.0000 0.46980  0.00750  0.59940  Biso   1.000  C
  C118     1.0000 0.46960  0.03180  0.57330  Biso   1.000  C
  C119     1.0000 0.49350  0.03220  0.54750  Biso   1.000  C
  C120     1.0000 0.44150  0.01020  0.62770  Biso   1.000  C
  C121     1.0000 0.43110  0.97900  0.63990  Biso   1.000  C
  C122     1.0000 0.40640  0.97850  0.66610  Biso   1.000  C
  C123     1.0000 0.39050  0.00700  0.67890  Biso   1.000  C
  C124     1.0000 0.40210  0.03640  0.66550  Biso   1.000  C
  C125     1.0000 0.42710  0.04120  0.63940  Biso   1.000  C
  C126     1.0000 0.36370  0.00730  0.70360  Biso   1.000  C
  C127     1.0000 0.57420  0.46960  0.02180  Biso   1.000  C
  C128     1.0000 0.59460  0.51980  0.99930  Biso   1.000  C
  C129     1.0000 0.54720  0.49250  0.97700  Biso   1.000  C
  C130     1.0000 0.57540  0.44250  0.04730  Biso   1.000  C
  C131     1.0000 0.54710  0.42160  0.05080  Biso   1.000  C
  C132     1.0000 0.54810  0.39760  0.07580  Biso   1.000  C
  C133     1.0000 0.57810  0.39310  0.09390  Biso   1.000  C
  C134     1.0000 0.60660  0.41520  0.09110  Biso   1.000  C
  C135     1.0000 0.60530  0.43900  0.06670  Biso   1.000  C
  C136     1.0000 0.57650  0.36790  0.12250  Biso   1.000  C
  C137     1.0000 0.54680  0.35670  0.14190  Biso   1.000  C
  C138     1.0000 0.54970  0.33250  0.16840  Biso   1.000  C
  C139     1.0000 0.58200  0.31980  0.17650  Biso   1.000  C
  C140     1.0000 0.61050  0.33140  0.15850  Biso   1.000  C
  C141     1.0000 0.60720  0.35540  0.13240  Biso   1.000  C
  C142     1.0000 0.57880  0.29510  0.20590  Biso   1.000  C
  C143     1.0000 0.62010  0.54730  0.99960  Biso   1.000  C
  C144     1.0000 0.64340  0.55060  0.02680  Biso   1.000  C
  C145     1.0000 0.66720  0.57580  0.02780  Biso   1.000  C
  C146     1.0000 0.66560  0.59710  0.00170  Biso   1.000  C
  C147     1.0000 0.64170  0.59490  0.97550  Biso   1.000  C
  C148     1.0000 0.62040  0.56890  0.97470  Biso   1.000  C
  C149     1.0000 0.69280  0.62500  0.00140  Biso   1.000  C
  C150     1.0000 0.70210  0.63740  0.03200  Biso   1.000  C
  C151     1.0000 0.72670  0.66220  0.03480  Biso   1.000  C
  C152     1.0000 0.74210  0.67620  0.00600  Biso   1.000  C
  C153     1.0000 0.73250  0.66430  0.97330  Biso   1.000  C
  C154     1.0000 0.70780  0.63860  0.97210  Biso   1.000  C
  C155     1.0000 0.77160  0.70680  0.00540  Biso   1.000  C
  C156     1.0000 0.51930  0.49250  0.95170  Biso   1.000  C
  C157     1.0000 0.52060  0.51670  0.92540  Biso   1.000  C
  C158     1.0000 0.49570  0.51740  0.89900  Biso   1.000  C
  C159     1.0000 0.46980  0.49250  0.90060  Biso   1.000  C
  C160     1.0000 0.46960  0.46820  0.92670  Biso   1.000  C
  C161     1.0000 0.49350  0.46780  0.95250  Biso   1.000  C
  C162     1.0000 0.44150  0.48980  0.87230  Biso   1.000  C
  C163     1.0000 0.43110  0.52100  0.86010  Biso   1.000  C
  C164     1.0000 0.40640  0.52150  0.83390  Biso   1.000  C
  C165     1.0000 0.39050  0.49300  0.82110  Biso   1.000  C
  C166     1.0000 0.40210  0.46360  0.83450  Biso   1.000  C
  C167     1.0000 0.42710  0.45880  0.86060  Biso   1.000  C
  C168     1.0000 0.36370  0.49270  0.79640  Biso   1.000  C
  C169     1.0000 0.07420  0.47820  0.03040  Biso   1.000  C
  C170     1.0000 0.09460  0.50070  0.98020  Biso   1.000  C
  C171     1.0000 0.04720  0.52300  0.00750  Biso   1.000  C
  C172     1.0000 0.07540  0.45270  0.05750  Biso   1.000  C
  C173     1.0000 0.04710  0.44920  0.07840  Biso   1.000  C
  C174     1.0000 0.04810  0.42420  0.10240  Biso   1.000  C
  C175     1.0000 0.07810  0.40610  0.10690  Biso   1.000  C
  C176     1.0000 0.10660  0.40890  0.08480  Biso   1.000  C
  C177     1.0000 0.10530  0.43330  0.06100  Biso   1.000  C
  C178     1.0000 0.07650  0.37750  0.13210  Biso   1.000  C
  C179     1.0000 0.04680  0.35810  0.14330  Biso   1.000  C
  C180     1.0000 0.04970  0.33160  0.16750  Biso   1.000  C
  C181     1.0000 0.08200  0.32350  0.18020  Biso   1.000  C
  C182     1.0000 0.11050  0.34150  0.16860  Biso   1.000  C
  C183     1.0000 0.10720  0.36760  0.14460  Biso   1.000  C
  C184     1.0000 0.07880  0.29410  0.20490  Biso   1.000  C
  C185     1.0000 0.12010  0.50040  0.95270  Biso   1.000  C
  C186     1.0000 0.14340  0.47320  0.94940  Biso   1.000  C
  C187     1.0000 0.16720  0.47220  0.92420  Biso   1.000  C
  C188     1.0000 0.16560  0.49830  0.90290  Biso   1.000  C
  C189     1.0000 0.14170  0.52450  0.90510  Biso   1.000  C
  C190     1.0000 0.12040  0.52530  0.93110  Biso   1.000  C
  C191     1.0000 0.19280  0.49860  0.87500  Biso   1.000  C
  C192     1.0000 0.20210  0.46800  0.86260  Biso   1.000  C
  C193     1.0000 0.22670  0.46520  0.83780  Biso   1.000  C
  C194     1.0000 0.24210  0.49400  0.82380  Biso   1.000  C
  C195     1.0000 0.23250  0.52670  0.83570  Biso   1.000  C
  C196     1.0000 0.20780  0.52790  0.86140  Biso   1.000  C
  C197     1.0000 0.27160  0.49460  0.79320  Biso   1.000  C
  C198     1.0000 0.01930  0.54830  0.00750  Biso   1.000  C
  C199     1.0000 0.02060  0.57460  0.98330  Biso   1.000  C
  C200     1.0000 0.99570  0.60100  0.98260  Biso   1.000  C
  C201     1.0000 0.96980  0.59940  0.00750  Biso   1.000  C
  C202     1.0000 0.96960  0.57330  0.03180  Biso   1.000  C
  C203     1.0000 0.99350  0.54750  0.03220  Biso   1.000  C
  C204     1.0000 0.94150  0.62770  0.01020  Biso   1.000  C
  C205     1.0000 0.93110  0.63990  0.97900  Biso   1.000  C
  C206     1.0000 0.90640  0.66610  0.97850  Biso   1.000  C
  C207     1.0000 0.89050  0.67890  0.00700  Biso   1.000  C
  C208     1.0000 0.90210  0.66550  0.03640  Biso   1.000  C
  C209     1.0000 0.92710  0.63940  0.04120  Biso   1.000  C
  C210     1.0000 0.86370  0.70360  0.00730  Biso   1.000  C
  C211     1.0000 0.07420  0.02180  0.46960  Biso   1.000  C
  C212     1.0000 0.09460  0.99930  0.51980  Biso   1.000  C
  C213     1.0000 0.04720  0.97700  0.49250  Biso   1.000  C
  C214     1.0000 0.07540  0.04730  0.44250  Biso   1.000  C
  C215     1.0000 0.04710  0.05080  0.42160  Biso   1.000  C
  C216     1.0000 0.04810  0.07580  0.39760  Biso   1.000  C
  C217     1.0000 0.07810  0.09390  0.39310  Biso   1.000  C
  C218     1.0000 0.10660  0.09110  0.41520  Biso   1.000  C
  C219     1.0000 0.10530  0.06670  0.43900  Biso   1.000  C
  C220     1.0000 0.07650  0.12250  0.36790  Biso   1.000  C
  C221     1.0000 0.04680  0.14190  0.35670  Biso   1.000  C
  C222     1.0000 0.04970  0.16840  0.33250  Biso   1.000  C
  C223     1.0000 0.08200  0.17650  0.31980  Biso   1.000  C
  C224     1.0000 0.11050  0.15850  0.33140  Biso   1.000  C
  C225     1.0000 0.10720  0.13240  0.35540  Biso   1.000  C
  C226     1.0000 0.07880  0.20590  0.29510  Biso   1.000  C
  C227     1.0000 0.12010  0.99960  0.54730  Biso   1.000  C
  C228     1.0000 0.14340  0.02680  0.55060  Biso   1.000  C
  C229     1.0000 0.16720  0.02780  0.57580  Biso   1.000  C
  C230     1.0000 0.16560  0.00170  0.59710  Biso   1.000  C
  C231     1.0000 0.14170  0.97550  0.59490  Biso   1.000  C
  C232     1.0000 0.12040  0.97470  0.56890  Biso   1.000  C
  C233     1.0000 0.19280  0.00140  0.62500  Biso   1.000  C
  C234     1.0000 0.20210  0.03200  0.63740  Biso   1.000  C
  C235     1.0000 0.22670  0.03480  0.66220  Biso   1.000  C
  C236     1.0000 0.24210  0.00600  0.67620  Biso   1.000  C
  C237     1.0000 0.23250  0.97330  0.66430  Biso   1.000  C
  C238     1.0000 0.20780  0.97210  0.63860  Biso   1.000  C
  C239     1.0000 0.27160  0.00540  0.70680  Biso   1.000  C
  C240     1.0000 0.01930  0.95170  0.49250  Biso   1.000  C
  C241     1.0000 0.02060  0.92540  0.51670  Biso   1.000  C
  C242     1.0000 0.99570  0.89900  0.51740  Biso   1.000  C
  C243     1.0000 0.96980  0.90060  0.49250  Biso   1.000  C
  C244     1.0000 0.96960  0.92670  0.46820  Biso   1.000  C
  C245     1.0000 0.99350  0.95250  0.46780  Biso   1.000  C
  C246     1.0000 0.94150  0.87230  0.48980  Biso   1.000  C
  C247     1.0000 0.93110  0.86010  0.52100  Biso   1.000  C
  C248     1.0000 0.90640  0.83390  0.52150  Biso   1.000  C
  C249     1.0000 0.89050  0.82110  0.49300  Biso   1.000  C
  C250     1.0000 0.90210  0.83450  0.46360  Biso   1.000  C
  C251     1.0000 0.92710  0.86060  0.45880  Biso   1.000  C
  C252     1.0000 0.86370  0.79640  0.49270  Biso   1.000  C
  C253     1.0000 0.57420  0.03040  0.02180  Biso   1.000  C
  C254     1.0000 0.59460  0.98020  0.99930  Biso   1.000  C
  C255     1.0000 0.54720  0.00750  0.97700  Biso   1.000  C
  C256     1.0000 0.57540  0.05750  0.04730  Biso   1.000  C
  C257     1.0000 0.54710  0.07840  0.05080  Biso   1.000  C
  C258     1.0000 0.54810  0.10240  0.07580  Biso   1.000  C
  C259     1.0000 0.57810  0.10690  0.09390  Biso   1.000  C
  C260     1.0000 0.60660  0.08480  0.09110  Biso   1.000  C
  C261     1.0000 0.60530  0.06100  0.06670  Biso   1.000  C
  C262     1.0000 0.57650  0.13210  0.12250  Biso   1.000  C
  C263     1.0000 0.54680  0.14330  0.14190  Biso   1.000  C
  C264     1.0000 0.54970  0.16750  0.16840  Biso   1.000  C
  C265     1.0000 0.58200  0.18020  0.17650  Biso   1.000  C
  C266     1.0000 0.61050  0.16860  0.15850  Biso   1.000  C
  C267     1.0000 0.60720  0.14460  0.13240  Biso   1.000  C
  C268     1.0000 0.57880  0.20490  0.20590  Biso   1.000  C
  C269     1.0000 0.62010  0.95270  0.99960  Biso   1.000  C
  C270     1.0000 0.64340  0.94940  0.02680  Biso   1.000  C
  C271     1.0000 0.66720  0.92420  0.02780  Biso   1.000  C
  C272     1.0000 0.66560  0.90290  0.00170  Biso   1.000  C
  C273     1.0000 0.64170  0.90510  0.97550  Biso   1.000  C
  C274     1.0000 0.62040  0.93110  0.97470  Biso   1.000  C
  C275     1.0000 0.69280  0.87500  0.00140  Biso   1.000  C
  C276     1.0000 0.70210  0.86260  0.03200  Biso   1.000  C
  C277     1.0000 0.72670  0.83780  0.03480  Biso   1.000  C
  C278     1.0000 0.74210  0.82380  0.00600  Biso   1.000  C
  C279     1.0000 0.73250  0.83570  0.97330  Biso   1.000  C
  C280     1.0000 0.70780  0.86140  0.97210  Biso   1.000  C
  C281     1.0000 0.77160  0.79320  0.00540  Biso   1.000  C
  C282     1.0000 0.51930  0.00750  0.95170  Biso   1.000  C
  C283     1.0000 0.52060  0.98330  0.92540  Biso   1.000  C
  C284     1.0000 0.49570  0.98260  0.89900  Biso   1.000  C
  C285     1.0000 0.46980  0.00750  0.90060  Biso   1.000  C
  C286     1.0000 0.46960  0.03180  0.92670  Biso   1.000  C
  C287     1.0000 0.49350  0.03220  0.95250  Biso   1.000  C
  C288     1.0000 0.44150  0.01020  0.87230  Biso   1.000  C
  C289     1.0000 0.43110  0.97900  0.86010  Biso   1.000  C
  C290     1.0000 0.40640  0.97850  0.83390  Biso   1.000  C
  C291     1.0000 0.39050  0.00700  0.82110  Biso   1.000  C
  C292     1.0000 0.40210  0.03640  0.83450  Biso   1.000  C
  C293     1.0000 0.42710  0.04120  0.86060  Biso   1.000  C
  C294     1.0000 0.36370  0.00730  0.79640  Biso   1.000  C
  C295     1.0000 0.57420  0.46960  0.47820  Biso   1.000  C
  C296     1.0000 0.59460  0.51980  0.50070  Biso   1.000  C
  C297     1.0000 0.54720  0.49250  0.52300  Biso   1.000  C
  C298     1.0000 0.57540  0.44250  0.45270  Biso   1.000  C
  C299     1.0000 0.54710  0.42160  0.44920  Biso   1.000  C
  C300     1.0000 0.54810  0.39760  0.42420  Biso   1.000  C
  C301     1.0000 0.57810  0.39310  0.40610  Biso   1.000  C
  C302     1.0000 0.60660  0.41520  0.40890  Biso   1.000  C
  C303     1.0000 0.60530  0.43900  0.43330  Biso   1.000  C
  C304     1.0000 0.57650  0.36790  0.37750  Biso   1.000  C
  C305     1.0000 0.54680  0.35670  0.35810  Biso   1.000  C
  C306     1.0000 0.54970  0.33250  0.33160  Biso   1.000  C
  C307     1.0000 0.58200  0.31980  0.32350  Biso   1.000  C
  C308     1.0000 0.61050  0.33140  0.34150  Biso   1.000  C
  C309     1.0000 0.60720  0.35540  0.36760  Biso   1.000  C
  C310     1.0000 0.57880  0.29510  0.29410  Biso   1.000  C
  C311     1.0000 0.62010  0.54730  0.50040  Biso   1.000  C
  C312     1.0000 0.64340  0.55060  0.47320  Biso   1.000  C
  C313     1.0000 0.66720  0.57580  0.47220  Biso   1.000  C
  C314     1.0000 0.66560  0.59710  0.49830  Biso   1.000  C
  C315     1.0000 0.64170  0.59490  0.52450  Biso   1.000  C
  C316     1.0000 0.62040  0.56890  0.52530  Biso   1.000  C
  C317     1.0000 0.69280  0.62500  0.49860  Biso   1.000  C
  C318     1.0000 0.70210  0.63740  0.46800  Biso   1.000  C
  C319     1.0000 0.72670  0.66220  0.46520  Biso   1.000  C
  C320     1.0000 0.74210  0.67620  0.49400  Biso   1.000  C
  C321     1.0000 0.73250  0.66430  0.52670  Biso   1.000  C
  C322     1.0000 0.70780  0.63860  0.52790  Biso   1.000  C
  C323     1.0000 0.77160  0.70680  0.49460  Biso   1.000  C
  C324     1.0000 0.51930  0.49250  0.54830  Biso   1.000  C
  C325     1.0000 0.52060  0.51670  0.57460  Biso   1.000  C
  C326     1.0000 0.49570  0.51740  0.60100  Biso   1.000  C
  C327     1.0000 0.46980  0.49250  0.59940  Biso   1.000  C
  C328     1.0000 0.46960  0.46820  0.57330  Biso   1.000  C
  C329     1.0000 0.49350  0.46780  0.54750  Biso   1.000  C
  C330     1.0000 0.44150  0.48980  0.62770  Biso   1.000  C
  C331     1.0000 0.43110  0.52100  0.63990  Biso   1.000  C
  C332     1.0000 0.40640  0.52150  0.66610  Biso   1.000  C
  C333     1.0000 0.39050  0.49300  0.67890  Biso   1.000  C
  C334     1.0000 0.40210  0.46360  0.66550  Biso   1.000  C
  C335     1.0000 0.42710  0.45880  0.63940  Biso   1.000  C
  C336     1.0000 0.36370  0.49270  0.70360  Biso   1.000  C
  N1       1.0000 0.04790  0.50060  0.46720  Biso   1.000  N
  N2       1.0000 0.09730  0.47710  0.49520  Biso   1.000  N
  N3       1.0000 0.06940  0.52410  0.51900  Biso   1.000  N
  N4       1.0000 0.04790  0.99940  0.03280  Biso   1.000  N
  N5       1.0000 0.09730  0.02290  0.00480  Biso   1.000  N
  N6       1.0000 0.06940  0.97590  0.98100  Biso   1.000  N
  N7       1.0000 0.54790  0.03280  0.50060  Biso   1.000  N
  N8       1.0000 0.59730  0.00480  0.47710  Biso   1.000  N
  N9       1.0000 0.56940  0.98100  0.52410  Biso   1.000  N
  N10      1.0000 0.54790  0.46720  0.99940  Biso   1.000  N
  N11      1.0000 0.59730  0.49520  0.02290  Biso   1.000  N
  N12      1.0000 0.56940  0.51900  0.97590  Biso   1.000  N
  N13      1.0000 0.04790  0.50060  0.03280  Biso   1.000  N
  N14      1.0000 0.09730  0.47710  0.00480  Biso   1.000  N
  N15      1.0000 0.06940  0.52410  0.98100  Biso   1.000  N
  N16      1.0000 0.04790  0.99940  0.46720  Biso   1.000  N
  N17      1.0000 0.09730  0.02290  0.49520  Biso   1.000  N
  N18      1.0000 0.06940  0.97590  0.51900  Biso   1.000  N
  N19      1.0000 0.54790  0.03280  0.99940  Biso   1.000  N
  N20      1.0000 0.59730  0.00480  0.02290  Biso   1.000  N
  N21      1.0000 0.56940  0.98100  0.97590  Biso   1.000  N
  N22      1.0000 0.54790  0.46720  0.50060  Biso   1.000  N
  N23      1.0000 0.59730  0.49520  0.47710  Biso   1.000  N
  N24      1.0000 0.56940  0.51900  0.52410  Biso   1.000  N
  O1       1.0000 0.05177  0.28420  0.28490  Biso   1.000  O
  O2       1.0000 0.10907  0.28479  0.28471  Biso   1.000  O
  O3       1.0000 0.28049  0.46647  0.71596  Biso   1.000  O
  O4       1.0000 0.28197  0.52411  0.71555  Biso   1.000  O
  O5       1.0000 0.85467  0.71561  0.51915  Biso   1.000  O
  O6       1.0000 0.85220  0.71550  0.46514  Biso   1.000  O
  O7       1.0000 0.05177  0.21580  0.21510  Biso   1.000  O
  O8       1.0000 0.10907  0.21521  0.21529  Biso   1.000  O
  O9       1.0000 0.28049  0.03353  0.78404  Biso   1.000  O
  O10      1.0000 0.28197  0.97589  0.78445  Biso   1.000  O
  O11      1.0000 0.85467  0.78439  0.98085  Biso   1.000  O
  O12      1.0000 0.85220  0.78450  0.03486  Biso   1.000  O
  O13      1.0000 0.55177  0.21510  0.28420  Biso   1.000  O
  O14      1.0000 0.60907  0.21529  0.28479  Biso   1.000  O
  O15      1.0000 0.78049  0.78404  0.46647  Biso   1.000  O
  O16      1.0000 0.78197  0.78445  0.52411  Biso   1.000  O
  O17      1.0000 0.35467  0.98085  0.71561  Biso   1.000  O
  O18      1.0000 0.35220  0.03486  0.71550  Biso   1.000  O
  O19      1.0000 0.55177  0.28490  0.21580  Biso   1.000  O
  O20      1.0000 0.60907  0.28471  0.21521  Biso   1.000  O
  O21      1.0000 0.78049  0.71596  0.03353  Biso   1.000  O
  O22      1.0000 0.78197  0.71555  0.97589  Biso   1.000  O
  O23      1.0000 0.35467  0.51915  0.78439  Biso   1.000  O
  O24      1.0000 0.35220  0.46514  0.78450  Biso   1.000  O
  O25      1.0000 0.05177  0.28420  0.21510  Biso   1.000  O
  O26      1.0000 0.10907  0.28479  0.21529  Biso   1.000  O
  O27      1.0000 0.28049  0.46647  0.78404  Biso   1.000  O
  O28      1.0000 0.28197  0.52411  0.78445  Biso   1.000  O
  O29      1.0000 0.85467  0.71561  0.98085  Biso   1.000  O
  O30      1.0000 0.85220  0.71550  0.03486  Biso   1.000  O
  O31      1.0000 0.05177  0.21580  0.28490  Biso   1.000  O
  O32      1.0000 0.10907  0.21521  0.28471  Biso   1.000  O
  O33      1.0000 0.28049  0.03353  0.71596  Biso   1.000  O
  O34      1.0000 0.28197  0.97589  0.71555  Biso   1.000  O
  O35      1.0000 0.85467  0.78439  0.51915  Biso   1.000  O
  O36      1.0000 0.85220  0.78450  0.46514  Biso   1.000  O
  O37      1.0000 0.55177  0.21510  0.21580  Biso   1.000  O
  O38      1.0000 0.60907  0.21529  0.21521  Biso   1.000  O
  O39      1.0000 0.78049  0.78404  0.03353  Biso   1.000  O
  O40      1.0000 0.78197  0.78445  0.97589  Biso   1.000  O
  O41      1.0000 0.35467  0.98085  0.78439  Biso   1.000  O
  O42      1.0000 0.35220  0.03486  0.78450  Biso   1.000  O
  O43      1.0000 0.55177  0.28490  0.28420  Biso   1.000  O
  O44      1.0000 0.60907  0.28471  0.28479  Biso   1.000  O
  O45      1.0000 0.78049  0.71596  0.46647  Biso   1.000  O
  O46      1.0000 0.78197  0.71555  0.52411  Biso   1.000  O
  O47      1.0000 0.35467  0.51915  0.71561  Biso   1.000  O
  O48      1.0000 0.35220  0.46514  0.71550  Biso   1.000  O
  Cu13     1.0000 0.95322  0.75000  0.75000  Biso   1.000  Cu
  Cu14     1.0000 0.88371  0.75000  0.75000  Biso   1.000  Cu
  Cu15     1.0000 0.45322  0.75000  0.75000  Biso   1.000  Cu
  Cu16     1.0000 0.38371  0.75000  0.75000  Biso   1.000  Cu
  Cu17     1.0000 0.68378  0.53960  0.25000  Biso   1.000  Cu
  Cu18     1.0000 0.68154  0.47250  0.25000  Biso   1.000  Cu
  Cu19     1.0000 0.68378  0.96040  0.25000  Biso   1.000  Cu
  Cu20     1.0000 0.68154  0.02750  0.25000  Biso   1.000  Cu
  Cu21     1.0000 0.18378  0.25000  0.96040  Biso   1.000  Cu
  Cu22     1.0000 0.18154  0.25000  0.02750  Biso   1.000  Cu
  Cu23     1.0000 0.18378  0.25000  0.53960  Biso   1.000  Cu
  Cu24     1.0000 0.18154  0.25000  0.47250  Biso   1.000  Cu
  H193     1.0000 0.97210  0.53660  0.92360  Biso   1.000  H
  H194     1.0000 0.97150  0.58030  0.88460  Biso   1.000  H
  H195     1.0000 0.87420  0.60540  0.91360  Biso   1.000  H
  H196     1.0000 0.87570  0.56290  0.95290  Biso   1.000  H
  H197     1.0000 0.97510  0.63700  0.86570  Biso   1.000  H
  H198     1.0000 0.97010  0.68000  0.82530  Biso   1.000  H
  H199     1.0000 0.86740  0.66370  0.82320  Biso   1.000  H
  H200     1.0000 0.87270  0.62170  0.86290  Biso   1.000  H
  H201     1.0000 0.85770  0.54440  0.03520  Biso   1.000  H
  H202     1.0000 0.81660  0.54510  0.07800  Biso   1.000  H
  H203     1.0000 0.85930  0.45890  0.11130  Biso   1.000  H
  H204     1.0000 0.89450  0.45640  0.06590  Biso   1.000  H
  H205     1.0000 0.80850  0.55130  0.12900  Biso   1.000  H
  H206     1.0000 0.76660  0.55600  0.16970  Biso   1.000  H
  H207     1.0000 0.75780  0.45380  0.17330  Biso   1.000  H
  H208     1.0000 0.79900  0.45130  0.13010  Biso   1.000  H
  H209     1.0000 0.96160  0.42550  0.03270  Biso   1.000  H
  H210     1.0000 0.00350  0.38190  0.03340  Biso   1.000  H
  H211     1.0000 0.04760  0.42640  0.95160  Biso   1.000  H
  H212     1.0000 0.00750  0.46960  0.95190  Biso   1.000  H
  H213     1.0000 0.05980  0.36890  0.04090  Biso   1.000  H
  H214     1.0000 0.09970  0.32470  0.04230  Biso   1.000  H
  H215     1.0000 0.10760  0.32550  0.94400  Biso   1.000  H
  H216     1.0000 0.06660  0.36910  0.93780  Biso   1.000  H
  H217     1.0000 0.97210  0.96340  0.57640  Biso   1.000  H
  H218     1.0000 0.97150  0.91970  0.61540  Biso   1.000  H
  H219     1.0000 0.87420  0.89460  0.58640  Biso   1.000  H
  H220     1.0000 0.87570  0.93710  0.54710  Biso   1.000  H
  H221     1.0000 0.97510  0.86300  0.63430  Biso   1.000  H
  H222     1.0000 0.97010  0.82000  0.67470  Biso   1.000  H
  H223     1.0000 0.86740  0.83630  0.67680  Biso   1.000  H
  H224     1.0000 0.87270  0.87830  0.63710  Biso   1.000  H
  H225     1.0000 0.85770  0.95560  0.46480  Biso   1.000  H
  H226     1.0000 0.81660  0.95490  0.42200  Biso   1.000  H
  H227     1.0000 0.85930  0.04110  0.38870  Biso   1.000  H
  H228     1.0000 0.89450  0.04360  0.43410  Biso   1.000  H
  H229     1.0000 0.80850  0.94870  0.37100  Biso   1.000  H
  H230     1.0000 0.76660  0.94400  0.33030  Biso   1.000  H
  H231     1.0000 0.75780  0.04620  0.32670  Biso   1.000  H
  H232     1.0000 0.79900  0.04870  0.36990  Biso   1.000  H
  H233     1.0000 0.96160  0.07450  0.46730  Biso   1.000  H
  H234     1.0000 0.00350  0.11810  0.46660  Biso   1.000  H
  H235     1.0000 0.04760  0.07360  0.54840  Biso   1.000  H
  H236     1.0000 0.00750  0.03040  0.54810  Biso   1.000  H
  H237     1.0000 0.05980  0.13110  0.45910  Biso   1.000  H
  H238     1.0000 0.09970  0.17530  0.45770  Biso   1.000  H
  H239     1.0000 0.10760  0.17450  0.55600  Biso   1.000  H
  H240     1.0000 0.06660  0.13090  0.56220  Biso   1.000  H
  H241     1.0000 0.47210  0.92360  0.96340  Biso   1.000  H
  H242     1.0000 0.47150  0.88460  0.91970  Biso   1.000  H
  H243     1.0000 0.37420  0.91360  0.89460  Biso   1.000  H
  H244     1.0000 0.37570  0.95290  0.93710  Biso   1.000  H
  H245     1.0000 0.47510  0.86570  0.86300  Biso   1.000  H
  H246     1.0000 0.47010  0.82530  0.82000  Biso   1.000  H
  H247     1.0000 0.36740  0.82320  0.83630  Biso   1.000  H
  H248     1.0000 0.37270  0.86290  0.87830  Biso   1.000  H
  H249     1.0000 0.35770  0.03520  0.95560  Biso   1.000  H
  H250     1.0000 0.31660  0.07800  0.95490  Biso   1.000  H
  H251     1.0000 0.35930  0.11130  0.04110  Biso   1.000  H
  H252     1.0000 0.39450  0.06590  0.04360  Biso   1.000  H
  H253     1.0000 0.30850  0.12900  0.94870  Biso   1.000  H
  H254     1.0000 0.26660  0.16970  0.94400  Biso   1.000  H
  H255     1.0000 0.25780  0.17330  0.04620  Biso   1.000  H
  H256     1.0000 0.29900  0.13010  0.04870  Biso   1.000  H
  H257     1.0000 0.46160  0.03270  0.07450  Biso   1.000  H
  H258     1.0000 0.50350  0.03340  0.11810  Biso   1.000  H
  H259     1.0000 0.54760  0.95160  0.07360  Biso   1.000  H
  H260     1.0000 0.50750  0.95190  0.03040  Biso   1.000  H
  H261     1.0000 0.55980  0.04090  0.13110  Biso   1.000  H
  H262     1.0000 0.59970  0.04230  0.17530  Biso   1.000  H
  H263     1.0000 0.60760  0.94400  0.17450  Biso   1.000  H
  H264     1.0000 0.56660  0.93780  0.13090  Biso   1.000  H
  H265     1.0000 0.47210  0.57640  0.53660  Biso   1.000  H
  H266     1.0000 0.47150  0.61540  0.58030  Biso   1.000  H
  H267     1.0000 0.37420  0.58640  0.60540  Biso   1.000  H
  H268     1.0000 0.37570  0.54710  0.56290  Biso   1.000  H
  H269     1.0000 0.47510  0.63430  0.63700  Biso   1.000  H
  H270     1.0000 0.47010  0.67470  0.68000  Biso   1.000  H
  H271     1.0000 0.36740  0.67680  0.66370  Biso   1.000  H
  H272     1.0000 0.37270  0.63710  0.62170  Biso   1.000  H
  H273     1.0000 0.35770  0.46480  0.54440  Biso   1.000  H
  H274     1.0000 0.31660  0.42200  0.54510  Biso   1.000  H
  H275     1.0000 0.35930  0.38870  0.45890  Biso   1.000  H
  H276     1.0000 0.39450  0.43410  0.45640  Biso   1.000  H
  H277     1.0000 0.30850  0.37100  0.55130  Biso   1.000  H
  H278     1.0000 0.26660  0.33030  0.55600  Biso   1.000  H
  H279     1.0000 0.25780  0.32670  0.45380  Biso   1.000  H
  H280     1.0000 0.29900  0.36990  0.45130  Biso   1.000  H
  H281     1.0000 0.46160  0.46730  0.42550  Biso   1.000  H
  H282     1.0000 0.50350  0.46660  0.38190  Biso   1.000  H
  H283     1.0000 0.54760  0.54840  0.42640  Biso   1.000  H
  H284     1.0000 0.50750  0.54810  0.46960  Biso   1.000  H
  H285     1.0000 0.55980  0.45910  0.36890  Biso   1.000  H
  H286     1.0000 0.59970  0.45770  0.32470  Biso   1.000  H
  H287     1.0000 0.60760  0.55600  0.32550  Biso   1.000  H
  H288     1.0000 0.56660  0.56220  0.36910  Biso   1.000  H
  H289     1.0000 0.97210  0.53660  0.57640  Biso   1.000  H
  H290     1.0000 0.97150  0.58030  0.61540  Biso   1.000  H
  H291     1.0000 0.87420  0.60540  0.58640  Biso   1.000  H
  H292     1.0000 0.87570  0.56290  0.54710  Biso   1.000  H
  H293     1.0000 0.97510  0.63700  0.63430  Biso   1.000  H
  H294     1.0000 0.97010  0.68000  0.67470  Biso   1.000  H
  H295     1.0000 0.86740  0.66370  0.67680  Biso   1.000  H
  H296     1.0000 0.87270  0.62170  0.63710  Biso   1.000  H
  H297     1.0000 0.85770  0.54440  0.46480  Biso   1.000  H
  H298     1.0000 0.81660  0.54510  0.42200  Biso   1.000  H
  H299     1.0000 0.85930  0.45890  0.38870  Biso   1.000  H
  H300     1.0000 0.89450  0.45640  0.43410  Biso   1.000  H
  H301     1.0000 0.80850  0.55130  0.37100  Biso   1.000  H
  H302     1.0000 0.76660  0.55600  0.33030  Biso   1.000  H
  H303     1.0000 0.75780  0.45380  0.32670  Biso   1.000  H
  H304     1.0000 0.79900  0.45130  0.36990  Biso   1.000  H
  H305     1.0000 0.96160  0.42550  0.46730  Biso   1.000  H
  H306     1.0000 0.00350  0.38190  0.46660  Biso   1.000  H
  H307     1.0000 0.04760  0.42640  0.54840  Biso   1.000  H
  H308     1.0000 0.00750  0.46960  0.54810  Biso   1.000  H
  H309     1.0000 0.05980  0.36890  0.45910  Biso   1.000  H
  H310     1.0000 0.09970  0.32470  0.45770  Biso   1.000  H
  H311     1.0000 0.10760  0.32550  0.55600  Biso   1.000  H
  H312     1.0000 0.06660  0.36910  0.56220  Biso   1.000  H
  H313     1.0000 0.97210  0.96340  0.92360  Biso   1.000  H
  H314     1.0000 0.97150  0.91970  0.88460  Biso   1.000  H
  H315     1.0000 0.87420  0.89460  0.91360  Biso   1.000  H
  H316     1.0000 0.87570  0.93710  0.95290  Biso   1.000  H
  H317     1.0000 0.97510  0.86300  0.86570  Biso   1.000  H
  H318     1.0000 0.97010  0.82000  0.82530  Biso   1.000  H
  H319     1.0000 0.86740  0.83630  0.82320  Biso   1.000  H
  H320     1.0000 0.87270  0.87830  0.86290  Biso   1.000  H
  H321     1.0000 0.85770  0.95560  0.03520  Biso   1.000  H
  H322     1.0000 0.81660  0.95490  0.07800  Biso   1.000  H
  H323     1.0000 0.85930  0.04110  0.11130  Biso   1.000  H
  H324     1.0000 0.89450  0.04360  0.06590  Biso   1.000  H
  H325     1.0000 0.80850  0.94870  0.12900  Biso   1.000  H
  H326     1.0000 0.76660  0.94400  0.16970  Biso   1.000  H
  H327     1.0000 0.75780  0.04620  0.17330  Biso   1.000  H
  H328     1.0000 0.79900  0.04870  0.13010  Biso   1.000  H
  H329     1.0000 0.96160  0.07450  0.03270  Biso   1.000  H
  H330     1.0000 0.00350  0.11810  0.03340  Biso   1.000  H
  H331     1.0000 0.04760  0.07360  0.95160  Biso   1.000  H
  H332     1.0000 0.00750  0.03040  0.95190  Biso   1.000  H
  H333     1.0000 0.05980  0.13110  0.04090  Biso   1.000  H
  H334     1.0000 0.09970  0.17530  0.04230  Biso   1.000  H
  H335     1.0000 0.10760  0.17450  0.94400  Biso   1.000  H
  H336     1.0000 0.06660  0.13090  0.93780  Biso   1.000  H
  H337     1.0000 0.47210  0.92360  0.53660  Biso   1.000  H
  H338     1.0000 0.47150  0.88460  0.58030  Biso   1.000  H
  H339     1.0000 0.37420  0.91360  0.60540  Biso   1.000  H
  H340     1.0000 0.37570  0.95290  0.56290  Biso   1.000  H
  H341     1.0000 0.47510  0.86570  0.63700  Biso   1.000  H
  H342     1.0000 0.47010  0.82530  0.68000  Biso   1.000  H
  H343     1.0000 0.36740  0.82320  0.66370  Biso   1.000  H
  H344     1.0000 0.37270  0.86290  0.62170  Biso   1.000  H
  H345     1.0000 0.35770  0.03520  0.54440  Biso   1.000  H
  H346     1.0000 0.31660  0.07800  0.54510  Biso   1.000  H
  H347     1.0000 0.35930  0.11130  0.45890  Biso   1.000  H
  H348     1.0000 0.39450  0.06590  0.45640  Biso   1.000  H
  H349     1.0000 0.30850  0.12900  0.55130  Biso   1.000  H
  H350     1.0000 0.26660  0.16970  0.55600  Biso   1.000  H
  H351     1.0000 0.25780  0.17330  0.45380  Biso   1.000  H
  H352     1.0000 0.29900  0.13010  0.45130  Biso   1.000  H
  H353     1.0000 0.46160  0.03270  0.42550  Biso   1.000  H
  H354     1.0000 0.50350  0.03340  0.38190  Biso   1.000  H
  H355     1.0000 0.54760  0.95160  0.42640  Biso   1.000  H
  H356     1.0000 0.50750  0.95190  0.46960  Biso   1.000  H
  H357     1.0000 0.55980  0.04090  0.36890  Biso   1.000  H
  H358     1.0000 0.59970  0.04230  0.32470  Biso   1.000  H
  H359     1.0000 0.60760  0.94400  0.32550  Biso   1.000  H
  H360     1.0000 0.56660  0.93780  0.36910  Biso   1.000  H
  H361     1.0000 0.47210  0.57640  0.96340  Biso   1.000  H
  H362     1.0000 0.47150  0.61540  0.91970  Biso   1.000  H
  H363     1.0000 0.37420  0.58640  0.89460  Biso   1.000  H
  H364     1.0000 0.37570  0.54710  0.93710  Biso   1.000  H
  H365     1.0000 0.47510  0.63430  0.86300  Biso   1.000  H
  H366     1.0000 0.47010  0.67470  0.82000  Biso   1.000  H
  H367     1.0000 0.36740  0.67680  0.83630  Biso   1.000  H
  H368     1.0000 0.37270  0.63710  0.87830  Biso   1.000  H
  H369     1.0000 0.35770  0.46480  0.95560  Biso   1.000  H
  H370     1.0000 0.31660  0.42200  0.95490  Biso   1.000  H
  H371     1.0000 0.35930  0.38870  0.04110  Biso   1.000  H
  H372     1.0000 0.39450  0.43410  0.04360  Biso   1.000  H
  H373     1.0000 0.30850  0.37100  0.94870  Biso   1.000  H
  H374     1.0000 0.26660  0.33030  0.94400  Biso   1.000  H
  H375     1.0000 0.25780  0.32670  0.04620  Biso   1.000  H
  H376     1.0000 0.29900  0.36990  0.04870  Biso   1.000  H
  H377     1.0000 0.46160  0.46730  0.07450  Biso   1.000  H
  H378     1.0000 0.50350  0.46660  0.11810  Biso   1.000  H
  H379     1.0000 0.54760  0.54840  0.07360  Biso   1.000  H
  H380     1.0000 0.50750  0.54810  0.03040  Biso   1.000  H
  H381     1.0000 0.55980  0.45910  0.13110  Biso   1.000  H
  H382     1.0000 0.59970  0.45770  0.17530  Biso   1.000  H
  H383     1.0000 0.60760  0.55600  0.17450  Biso   1.000  H
  H384     1.0000 0.56660  0.56220  0.13090  Biso   1.000  H
  C337     1.0000 0.92580  0.52180  0.96960  Biso   1.000  C
  C338     1.0000 0.90540  0.49930  0.01980  Biso   1.000  C
  C339     1.0000 0.95280  0.47700  0.99250  Biso   1.000  C
  C340     1.0000 0.92460  0.54730  0.94250  Biso   1.000  C
  C341     1.0000 0.95290  0.55080  0.92160  Biso   1.000  C
  C342     1.0000 0.95190  0.57580  0.89760  Biso   1.000  C
  C343     1.0000 0.92190  0.59390  0.89310  Biso   1.000  C
  C344     1.0000 0.89340  0.59110  0.91520  Biso   1.000  C
  C345     1.0000 0.89470  0.56670  0.93900  Biso   1.000  C
  C346     1.0000 0.92350  0.62250  0.86790  Biso   1.000  C
  C347     1.0000 0.95320  0.64190  0.85670  Biso   1.000  C
  C348     1.0000 0.95030  0.66840  0.83250  Biso   1.000  C
  C349     1.0000 0.91800  0.67650  0.81980  Biso   1.000  C
  C350     1.0000 0.88950  0.65850  0.83140  Biso   1.000  C
  C351     1.0000 0.89280  0.63240  0.85540  Biso   1.000  C
  C352     1.0000 0.92120  0.70590  0.79510  Biso   1.000  C
  C353     1.0000 0.87990  0.49960  0.04730  Biso   1.000  C
  C354     1.0000 0.85660  0.52680  0.05060  Biso   1.000  C
  C355     1.0000 0.83280  0.52780  0.07580  Biso   1.000  C
  C356     1.0000 0.83440  0.50170  0.09710  Biso   1.000  C
  C357     1.0000 0.85830  0.47550  0.09490  Biso   1.000  C
  C358     1.0000 0.87960  0.47470  0.06890  Biso   1.000  C
  C359     1.0000 0.80720  0.50140  0.12500  Biso   1.000  C
  C360     1.0000 0.79790  0.53200  0.13740  Biso   1.000  C
  C361     1.0000 0.77330  0.53480  0.16220  Biso   1.000  C
  C362     1.0000 0.75790  0.50600  0.17620  Biso   1.000  C
  C363     1.0000 0.76750  0.47330  0.16430  Biso   1.000  C
  C364     1.0000 0.79220  0.47210  0.13860  Biso   1.000  C
  C365     1.0000 0.72840  0.50540  0.20680  Biso   1.000  C
  C366     1.0000 0.98070  0.45170  0.99250  Biso   1.000  C
  C367     1.0000 0.97940  0.42540  0.01670  Biso   1.000  C
  C368     1.0000 0.00430  0.39900  0.01740  Biso   1.000  C
  C369     1.0000 0.03020  0.40060  0.99250  Biso   1.000  C
  C370     1.0000 0.03040  0.42670  0.96820  Biso   1.000  C
  C371     1.0000 0.00650  0.45250  0.96780  Biso   1.000  C
  C372     1.0000 0.05850  0.37230  0.98980  Biso   1.000  C
  C373     1.0000 0.06890  0.36010  0.02100  Biso   1.000  C
  C374     1.0000 0.09360  0.33390  0.02150  Biso   1.000  C
  C375     1.0000 0.10950  0.32110  0.99300  Biso   1.000  C
  C376     1.0000 0.09790  0.33450  0.96360  Biso   1.000  C
  C377     1.0000 0.07290  0.36060  0.95880  Biso   1.000  C
  C378     1.0000 0.13630  0.29640  0.99270  Biso   1.000  C
  C379     1.0000 0.92580  0.97820  0.53040  Biso   1.000  C
  C380     1.0000 0.90540  0.00070  0.48020  Biso   1.000  C
  C381     1.0000 0.95280  0.02300  0.50750  Biso   1.000  C
  C382     1.0000 0.92460  0.95270  0.55750  Biso   1.000  C
  C383     1.0000 0.95290  0.94920  0.57840  Biso   1.000  C
  C384     1.0000 0.95190  0.92420  0.60240  Biso   1.000  C
  C385     1.0000 0.92190  0.90610  0.60690  Biso   1.000  C
  C386     1.0000 0.89340  0.90890  0.58480  Biso   1.000  C
  C387     1.0000 0.89470  0.93330  0.56100  Biso   1.000  C
  C388     1.0000 0.92350  0.87750  0.63210  Biso   1.000  C
  C389     1.0000 0.95320  0.85810  0.64330  Biso   1.000  C
  C390     1.0000 0.95030  0.83160  0.66750  Biso   1.000  C
  C391     1.0000 0.91800  0.82350  0.68020  Biso   1.000  C
  C392     1.0000 0.88950  0.84150  0.66860  Biso   1.000  C
  C393     1.0000 0.89280  0.86760  0.64460  Biso   1.000  C
  C394     1.0000 0.92120  0.79410  0.70490  Biso   1.000  C
  C395     1.0000 0.87990  0.00040  0.45270  Biso   1.000  C
  C396     1.0000 0.85660  0.97320  0.44940  Biso   1.000  C
  C397     1.0000 0.83280  0.97220  0.42420  Biso   1.000  C
  C398     1.0000 0.83440  0.99830  0.40290  Biso   1.000  C
  C399     1.0000 0.85830  0.02450  0.40510  Biso   1.000  C
  C400     1.0000 0.87960  0.02530  0.43110  Biso   1.000  C
  C401     1.0000 0.80720  0.99860  0.37500  Biso   1.000  C
  C402     1.0000 0.79790  0.96800  0.36260  Biso   1.000  C
  C403     1.0000 0.77330  0.96520  0.33780  Biso   1.000  C
  C404     1.0000 0.75790  0.99400  0.32380  Biso   1.000  C
  C405     1.0000 0.76750  0.02670  0.33570  Biso   1.000  C
  C406     1.0000 0.79220  0.02790  0.36140  Biso   1.000  C
  C407     1.0000 0.72840  0.99460  0.29320  Biso   1.000  C
  C408     1.0000 0.98070  0.04830  0.50750  Biso   1.000  C
  C409     1.0000 0.97940  0.07460  0.48330  Biso   1.000  C
  C410     1.0000 0.00430  0.10100  0.48260  Biso   1.000  C
  C411     1.0000 0.03020  0.09940  0.50750  Biso   1.000  C
  C412     1.0000 0.03040  0.07330  0.53180  Biso   1.000  C
  C413     1.0000 0.00650  0.04750  0.53220  Biso   1.000  C
  C414     1.0000 0.05850  0.12770  0.51020  Biso   1.000  C
  C415     1.0000 0.06890  0.13990  0.47900  Biso   1.000  C
  C416     1.0000 0.09360  0.16610  0.47850  Biso   1.000  C
  C417     1.0000 0.10950  0.17890  0.50700  Biso   1.000  C
  C418     1.0000 0.09790  0.16550  0.53640  Biso   1.000  C
  C419     1.0000 0.07290  0.13940  0.54120  Biso   1.000  C
  C420     1.0000 0.13630  0.20360  0.50730  Biso   1.000  C
  C421     1.0000 0.42580  0.96960  0.97820  Biso   1.000  C
  C422     1.0000 0.40540  0.01980  0.00070  Biso   1.000  C
  C423     1.0000 0.45280  0.99250  0.02300  Biso   1.000  C
  C424     1.0000 0.42460  0.94250  0.95270  Biso   1.000  C
  C425     1.0000 0.45290  0.92160  0.94920  Biso   1.000  C
  C426     1.0000 0.45190  0.89760  0.92420  Biso   1.000  C
  C427     1.0000 0.42190  0.89310  0.90610  Biso   1.000  C
  C428     1.0000 0.39340  0.91520  0.90890  Biso   1.000  C
  C429     1.0000 0.39470  0.93900  0.93330  Biso   1.000  C
  C430     1.0000 0.42350  0.86790  0.87750  Biso   1.000  C
  C431     1.0000 0.45320  0.85670  0.85810  Biso   1.000  C
  C432     1.0000 0.45030  0.83250  0.83160  Biso   1.000  C
  C433     1.0000 0.41800  0.81980  0.82350  Biso   1.000  C
  C434     1.0000 0.38950  0.83140  0.84150  Biso   1.000  C
  C435     1.0000 0.39280  0.85540  0.86760  Biso   1.000  C
  C436     1.0000 0.42120  0.79510  0.79410  Biso   1.000  C
  C437     1.0000 0.37990  0.04730  0.00040  Biso   1.000  C
  C438     1.0000 0.35660  0.05060  0.97320  Biso   1.000  C
  C439     1.0000 0.33280  0.07580  0.97220  Biso   1.000  C
  C440     1.0000 0.33440  0.09710  0.99830  Biso   1.000  C
  C441     1.0000 0.35830  0.09490  0.02450  Biso   1.000  C
  C442     1.0000 0.37960  0.06890  0.02530  Biso   1.000  C
  C443     1.0000 0.30720  0.12500  0.99860  Biso   1.000  C
  C444     1.0000 0.29790  0.13740  0.96800  Biso   1.000  C
  C445     1.0000 0.27330  0.16220  0.96520  Biso   1.000  C
  C446     1.0000 0.25790  0.17620  0.99400  Biso   1.000  C
  C447     1.0000 0.26750  0.16430  0.02670  Biso   1.000  C
  C448     1.0000 0.29220  0.13860  0.02790  Biso   1.000  C
  C449     1.0000 0.22840  0.20680  0.99460  Biso   1.000  C
  C450     1.0000 0.48070  0.99250  0.04830  Biso   1.000  C
  C451     1.0000 0.47940  0.01670  0.07460  Biso   1.000  C
  C452     1.0000 0.50430  0.01740  0.10100  Biso   1.000  C
  C453     1.0000 0.53020  0.99250  0.09940  Biso   1.000  C
  C454     1.0000 0.53040  0.96820  0.07330  Biso   1.000  C
  C455     1.0000 0.50650  0.96780  0.04750  Biso   1.000  C
  C456     1.0000 0.55850  0.98980  0.12770  Biso   1.000  C
  C457     1.0000 0.56890  0.02100  0.13990  Biso   1.000  C
  C458     1.0000 0.59360  0.02150  0.16610  Biso   1.000  C
  C459     1.0000 0.60950  0.99300  0.17890  Biso   1.000  C
  C460     1.0000 0.59790  0.96360  0.16550  Biso   1.000  C
  C461     1.0000 0.57290  0.95880  0.13940  Biso   1.000  C
  C462     1.0000 0.63630  0.99270  0.20360  Biso   1.000  C
  C463     1.0000 0.42580  0.53040  0.52180  Biso   1.000  C
  C464     1.0000 0.40540  0.48020  0.49930  Biso   1.000  C
  C465     1.0000 0.45280  0.50750  0.47700  Biso   1.000  C
  C466     1.0000 0.42460  0.55750  0.54730  Biso   1.000  C
  C467     1.0000 0.45290  0.57840  0.55080  Biso   1.000  C
  C468     1.0000 0.45190  0.60240  0.57580  Biso   1.000  C
  C469     1.0000 0.42190  0.60690  0.59390  Biso   1.000  C
  C470     1.0000 0.39340  0.58480  0.59110  Biso   1.000  C
  C471     1.0000 0.39470  0.56100  0.56670  Biso   1.000  C
  C472     1.0000 0.42350  0.63210  0.62250  Biso   1.000  C
  C473     1.0000 0.45320  0.64330  0.64190  Biso   1.000  C
  C474     1.0000 0.45030  0.66750  0.66840  Biso   1.000  C
  C475     1.0000 0.41800  0.68020  0.67650  Biso   1.000  C
  C476     1.0000 0.38950  0.66860  0.65850  Biso   1.000  C
  C477     1.0000 0.39280  0.64460  0.63240  Biso   1.000  C
  C478     1.0000 0.42120  0.70490  0.70590  Biso   1.000  C
  C479     1.0000 0.37990  0.45270  0.49960  Biso   1.000  C
  C480     1.0000 0.35660  0.44940  0.52680  Biso   1.000  C
  C481     1.0000 0.33280  0.42420  0.52780  Biso   1.000  C
  C482     1.0000 0.33440  0.40290  0.50170  Biso   1.000  C
  C483     1.0000 0.35830  0.40510  0.47550  Biso   1.000  C
  C484     1.0000 0.37960  0.43110  0.47470  Biso   1.000  C
  C485     1.0000 0.30720  0.37500  0.50140  Biso   1.000  C
  C486     1.0000 0.29790  0.36260  0.53200  Biso   1.000  C
  C487     1.0000 0.27330  0.33780  0.53480  Biso   1.000  C
  C488     1.0000 0.25790  0.32380  0.50600  Biso   1.000  C
  C489     1.0000 0.26750  0.33570  0.47330  Biso   1.000  C
  C490     1.0000 0.29220  0.36140  0.47210  Biso   1.000  C
  C491     1.0000 0.22840  0.29320  0.50540  Biso   1.000  C
  C492     1.0000 0.48070  0.50750  0.45170  Biso   1.000  C
  C493     1.0000 0.47940  0.48330  0.42540  Biso   1.000  C
  C494     1.0000 0.50430  0.48260  0.39900  Biso   1.000  C
  C495     1.0000 0.53020  0.50750  0.40060  Biso   1.000  C
  C496     1.0000 0.53040  0.53180  0.42670  Biso   1.000  C
  C497     1.0000 0.50650  0.53220  0.45250  Biso   1.000  C
  C498     1.0000 0.55850  0.51020  0.37230  Biso   1.000  C
  C499     1.0000 0.56890  0.47900  0.36010  Biso   1.000  C
  C500     1.0000 0.59360  0.47850  0.33390  Biso   1.000  C
  C501     1.0000 0.60950  0.50700  0.32110  Biso   1.000  C
  C502     1.0000 0.59790  0.53640  0.33450  Biso   1.000  C
  C503     1.0000 0.57290  0.54120  0.36060  Biso   1.000  C
  C504     1.0000 0.63630  0.50730  0.29640  Biso   1.000  C
  C505     1.0000 0.92580  0.52180  0.53040  Biso   1.000  C
  C506     1.0000 0.90540  0.49930  0.48020  Biso   1.000  C
  C507     1.0000 0.95280  0.47700  0.50750  Biso   1.000  C
  C508     1.0000 0.92460  0.54730  0.55750  Biso   1.000  C
  C509     1.0000 0.95290  0.55080  0.57840  Biso   1.000  C
  C510     1.0000 0.95190  0.57580  0.60240  Biso   1.000  C
  C511     1.0000 0.92190  0.59390  0.60690  Biso   1.000  C
  C512     1.0000 0.89340  0.59110  0.58480  Biso   1.000  C
  C513     1.0000 0.89470  0.56670  0.56100  Biso   1.000  C
  C514     1.0000 0.92350  0.62250  0.63210  Biso   1.000  C
  C515     1.0000 0.95320  0.64190  0.64330  Biso   1.000  C
  C516     1.0000 0.95030  0.66840  0.66750  Biso   1.000  C
  C517     1.0000 0.91800  0.67650  0.68020  Biso   1.000  C
  C518     1.0000 0.88950  0.65850  0.66860  Biso   1.000  C
  C519     1.0000 0.89280  0.63240  0.64460  Biso   1.000  C
  C520     1.0000 0.92120  0.70590  0.70490  Biso   1.000  C
  C521     1.0000 0.87990  0.49960  0.45270  Biso   1.000  C
  C522     1.0000 0.85660  0.52680  0.44940  Biso   1.000  C
  C523     1.0000 0.83280  0.52780  0.42420  Biso   1.000  C
  C524     1.0000 0.83440  0.50170  0.40290  Biso   1.000  C
  C525     1.0000 0.85830  0.47550  0.40510  Biso   1.000  C
  C526     1.0000 0.87960  0.47470  0.43110  Biso   1.000  C
  C527     1.0000 0.80720  0.50140  0.37500  Biso   1.000  C
  C528     1.0000 0.79790  0.53200  0.36260  Biso   1.000  C
  C529     1.0000 0.77330  0.53480  0.33780  Biso   1.000  C
  C530     1.0000 0.75790  0.50600  0.32380  Biso   1.000  C
  C531     1.0000 0.76750  0.47330  0.33570  Biso   1.000  C
  C532     1.0000 0.79220  0.47210  0.36140  Biso   1.000  C
  C533     1.0000 0.72840  0.50540  0.29320  Biso   1.000  C
  C534     1.0000 0.98070  0.45170  0.50750  Biso   1.000  C
  C535     1.0000 0.97940  0.42540  0.48330  Biso   1.000  C
  C536     1.0000 0.00430  0.39900  0.48260  Biso   1.000  C
  C537     1.0000 0.03020  0.40060  0.50750  Biso   1.000  C
  C538     1.0000 0.03040  0.42670  0.53180  Biso   1.000  C
  C539     1.0000 0.00650  0.45250  0.53220  Biso   1.000  C
  C540     1.0000 0.05850  0.37230  0.51020  Biso   1.000  C
  C541     1.0000 0.06890  0.36010  0.47900  Biso   1.000  C
  C542     1.0000 0.09360  0.33390  0.47850  Biso   1.000  C
  C543     1.0000 0.10950  0.32110  0.50700  Biso   1.000  C
  C544     1.0000 0.09790  0.33450  0.53640  Biso   1.000  C
  C545     1.0000 0.07290  0.36060  0.54120  Biso   1.000  C
  C546     1.0000 0.13630  0.29640  0.50730  Biso   1.000  C
  C547     1.0000 0.92580  0.97820  0.96960  Biso   1.000  C
  C548     1.0000 0.90540  0.00070  0.01980  Biso   1.000  C
  C549     1.0000 0.95280  0.02300  0.99250  Biso   1.000  C
  C550     1.0000 0.92460  0.95270  0.94250  Biso   1.000  C
  C551     1.0000 0.95290  0.94920  0.92160  Biso   1.000  C
  C552     1.0000 0.95190  0.92420  0.89760  Biso   1.000  C
  C553     1.0000 0.92190  0.90610  0.89310  Biso   1.000  C
  C554     1.0000 0.89340  0.90890  0.91520  Biso   1.000  C
  C555     1.0000 0.89470  0.93330  0.93900  Biso   1.000  C
  C556     1.0000 0.92350  0.87750  0.86790  Biso   1.000  C
  C557     1.0000 0.95320  0.85810  0.85670  Biso   1.000  C
  C558     1.0000 0.95030  0.83160  0.83250  Biso   1.000  C
  C559     1.0000 0.91800  0.82350  0.81980  Biso   1.000  C
  C560     1.0000 0.88950  0.84150  0.83140  Biso   1.000  C
  C561     1.0000 0.89280  0.86760  0.85540  Biso   1.000  C
  C562     1.0000 0.92120  0.79410  0.79510  Biso   1.000  C
  C563     1.0000 0.87990  0.00040  0.04730  Biso   1.000  C
  C564     1.0000 0.85660  0.97320  0.05060  Biso   1.000  C
  C565     1.0000 0.83280  0.97220  0.07580  Biso   1.000  C
  C566     1.0000 0.83440  0.99830  0.09710  Biso   1.000  C
  C567     1.0000 0.85830  0.02450  0.09490  Biso   1.000  C
  C568     1.0000 0.87960  0.02530  0.06890  Biso   1.000  C
  C569     1.0000 0.80720  0.99860  0.12500  Biso   1.000  C
  C570     1.0000 0.79790  0.96800  0.13740  Biso   1.000  C
  C571     1.0000 0.77330  0.96520  0.16220  Biso   1.000  C
  C572     1.0000 0.75790  0.99400  0.17620  Biso   1.000  C
  C573     1.0000 0.76750  0.02670  0.16430  Biso   1.000  C
  C574     1.0000 0.79220  0.02790  0.13860  Biso   1.000  C
  C575     1.0000 0.72840  0.99460  0.20680  Biso   1.000  C
  C576     1.0000 0.98070  0.04830  0.99250  Biso   1.000  C
  C577     1.0000 0.97940  0.07460  0.01670  Biso   1.000  C
  C578     1.0000 0.00430  0.10100  0.01740  Biso   1.000  C
  C579     1.0000 0.03020  0.09940  0.99250  Biso   1.000  C
  C580     1.0000 0.03040  0.07330  0.96820  Biso   1.000  C
  C581     1.0000 0.00650  0.04750  0.96780  Biso   1.000  C
  C582     1.0000 0.05850  0.12770  0.98980  Biso   1.000  C
  C583     1.0000 0.06890  0.13990  0.02100  Biso   1.000  C
  C584     1.0000 0.09360  0.16610  0.02150  Biso   1.000  C
  C585     1.0000 0.10950  0.17890  0.99300  Biso   1.000  C
  C586     1.0000 0.09790  0.16550  0.96360  Biso   1.000  C
  C587     1.0000 0.07290  0.13940  0.95880  Biso   1.000  C
  C588     1.0000 0.13630  0.20360  0.99270  Biso   1.000  C
  C589     1.0000 0.42580  0.96960  0.52180  Biso   1.000  C
  C590     1.0000 0.40540  0.01980  0.49930  Biso   1.000  C
  C591     1.0000 0.45280  0.99250  0.47700  Biso   1.000  C
  C592     1.0000 0.42460  0.94250  0.54730  Biso   1.000  C
  C593     1.0000 0.45290  0.92160  0.55080  Biso   1.000  C
  C594     1.0000 0.45190  0.89760  0.57580  Biso   1.000  C
  C595     1.0000 0.42190  0.89310  0.59390  Biso   1.000  C
  C596     1.0000 0.39340  0.91520  0.59110  Biso   1.000  C
  C597     1.0000 0.39470  0.93900  0.56670  Biso   1.000  C
  C598     1.0000 0.42350  0.86790  0.62250  Biso   1.000  C
  C599     1.0000 0.45320  0.85670  0.64190  Biso   1.000  C
  C600     1.0000 0.45030  0.83250  0.66840  Biso   1.000  C
  C601     1.0000 0.41800  0.81980  0.67650  Biso   1.000  C
  C602     1.0000 0.38950  0.83140  0.65850  Biso   1.000  C
  C603     1.0000 0.39280  0.85540  0.63240  Biso   1.000  C
  C604     1.0000 0.42120  0.79510  0.70590  Biso   1.000  C
  C605     1.0000 0.37990  0.04730  0.49960  Biso   1.000  C
  C606     1.0000 0.35660  0.05060  0.52680  Biso   1.000  C
  C607     1.0000 0.33280  0.07580  0.52780  Biso   1.000  C
  C608     1.0000 0.33440  0.09710  0.50170  Biso   1.000  C
  C609     1.0000 0.35830  0.09490  0.47550  Biso   1.000  C
  C610     1.0000 0.37960  0.06890  0.47470  Biso   1.000  C
  C611     1.0000 0.30720  0.12500  0.50140  Biso   1.000  C
  C612     1.0000 0.29790  0.13740  0.53200  Biso   1.000  C
  C613     1.0000 0.27330  0.16220  0.53480  Biso   1.000  C
  C614     1.0000 0.25790  0.17620  0.50600  Biso   1.000  C
  C615     1.0000 0.26750  0.16430  0.47330  Biso   1.000  C
  C616     1.0000 0.29220  0.13860  0.47210  Biso   1.000  C
  C617     1.0000 0.22840  0.20680  0.50540  Biso   1.000  C
  C618     1.0000 0.48070  0.99250  0.45170  Biso   1.000  C
  C619     1.0000 0.47940  0.01670  0.42540  Biso   1.000  C
  C620     1.0000 0.50430  0.01740  0.39900  Biso   1.000  C
  C621     1.0000 0.53020  0.99250  0.40060  Biso   1.000  C
  C622     1.0000 0.53040  0.96820  0.42670  Biso   1.000  C
  C623     1.0000 0.50650  0.96780  0.45250  Biso   1.000  C
  C624     1.0000 0.55850  0.98980  0.37230  Biso   1.000  C
  C625     1.0000 0.56890  0.02100  0.36010  Biso   1.000  C
  C626     1.0000 0.59360  0.02150  0.33390  Biso   1.000  C
  C627     1.0000 0.60950  0.99300  0.32110  Biso   1.000  C
  C628     1.0000 0.59790  0.96360  0.33450  Biso   1.000  C
  C629     1.0000 0.57290  0.95880  0.36060  Biso   1.000  C
  C630     1.0000 0.63630  0.99270  0.29640  Biso   1.000  C
  C631     1.0000 0.42580  0.53040  0.97820  Biso   1.000  C
  C632     1.0000 0.40540  0.48020  0.00070  Biso   1.000  C
  C633     1.0000 0.45280  0.50750  0.02300  Biso   1.000  C
  C634     1.0000 0.42460  0.55750  0.95270  Biso   1.000  C
  C635     1.0000 0.45290  0.57840  0.94920  Biso   1.000  C
  C636     1.0000 0.45190  0.60240  0.92420  Biso   1.000  C
  C637     1.0000 0.42190  0.60690  0.90610  Biso   1.000  C
  C638     1.0000 0.39340  0.58480  0.90890  Biso   1.000  C
  C639     1.0000 0.39470  0.56100  0.93330  Biso   1.000  C
  C640     1.0000 0.42350  0.63210  0.87750  Biso   1.000  C
  C641     1.0000 0.45320  0.64330  0.85810  Biso   1.000  C
  C642     1.0000 0.45030  0.66750  0.83160  Biso   1.000  C
  C643     1.0000 0.41800  0.68020  0.82350  Biso   1.000  C
  C644     1.0000 0.38950  0.66860  0.84150  Biso   1.000  C
  C645     1.0000 0.39280  0.64460  0.86760  Biso   1.000  C
  C646     1.0000 0.42120  0.70490  0.79410  Biso   1.000  C
  C647     1.0000 0.37990  0.45270  0.00040  Biso   1.000  C
  C648     1.0000 0.35660  0.44940  0.97320  Biso   1.000  C
  C649     1.0000 0.33280  0.42420  0.97220  Biso   1.000  C
  C650     1.0000 0.33440  0.40290  0.99830  Biso   1.000  C
  C651     1.0000 0.35830  0.40510  0.02450  Biso   1.000  C
  C652     1.0000 0.37960  0.43110  0.02530  Biso   1.000  C
  C653     1.0000 0.30720  0.37500  0.99860  Biso   1.000  C
  C654     1.0000 0.29790  0.36260  0.96800  Biso   1.000  C
  C655     1.0000 0.27330  0.33780  0.96520  Biso   1.000  C
  C656     1.0000 0.25790  0.32380  0.99400  Biso   1.000  C
  C657     1.0000 0.26750  0.33570  0.02670  Biso   1.000  C
  C658     1.0000 0.29220  0.36140  0.02790  Biso   1.000  C
  C659     1.0000 0.22840  0.29320  0.99460  Biso   1.000  C
  C660     1.0000 0.48070  0.50750  0.04830  Biso   1.000  C
  C661     1.0000 0.47940  0.48330  0.07460  Biso   1.000  C
  C662     1.0000 0.50430  0.48260  0.10100  Biso   1.000  C
  C663     1.0000 0.53020  0.50750  0.09940  Biso   1.000  C
  C664     1.0000 0.53040  0.53180  0.07330  Biso   1.000  C
  C665     1.0000 0.50650  0.53220  0.04750  Biso   1.000  C
  C666     1.0000 0.55850  0.51020  0.12770  Biso   1.000  C
  C667     1.0000 0.56890  0.47900  0.13990  Biso   1.000  C
  C668     1.0000 0.59360  0.47850  0.16610  Biso   1.000  C
  C669     1.0000 0.60950  0.50700  0.17890  Biso   1.000  C
  C670     1.0000 0.59790  0.53640  0.16550  Biso   1.000  C
  C671     1.0000 0.57290  0.54120  0.13940  Biso   1.000  C
  C672     1.0000 0.63630  0.50730  0.20360  Biso   1.000  C
  N25      1.0000 0.95210  0.49940  0.96720  Biso   1.000  N
  N26      1.0000 0.90270  0.52290  0.99520  Biso   1.000  N
  N27      1.0000 0.93060  0.47590  0.01900  Biso   1.000  N
  N28      1.0000 0.95210  0.00060  0.53280  Biso   1.000  N
  N29      1.0000 0.90270  0.97710  0.50480  Biso   1.000  N
  N30      1.0000 0.93060  0.02410  0.48100  Biso   1.000  N
  N31      1.0000 0.45210  0.96720  0.00060  Biso   1.000  N
  N32      1.0000 0.40270  0.99520  0.97710  Biso   1.000  N
  N33      1.0000 0.43060  0.01900  0.02410  Biso   1.000  N
  N34      1.0000 0.45210  0.53280  0.49940  Biso   1.000  N
  N35      1.0000 0.40270  0.50480  0.52290  Biso   1.000  N
  N36      1.0000 0.43060  0.48100  0.47590  Biso   1.000  N
  N37      1.0000 0.95210  0.49940  0.53280  Biso   1.000  N
  N38      1.0000 0.90270  0.52290  0.50480  Biso   1.000  N
  N39      1.0000 0.93060  0.47590  0.48100  Biso   1.000  N
  N40      1.0000 0.95210  0.00060  0.96720  Biso   1.000  N
  N41      1.0000 0.90270  0.97710  0.99520  Biso   1.000  N
  N42      1.0000 0.93060  0.02410  0.01900  Biso   1.000  N
  N43      1.0000 0.45210  0.96720  0.49940  Biso   1.000  N
  N44      1.0000 0.40270  0.99520  0.52290  Biso   1.000  N
  N45      1.0000 0.43060  0.01900  0.47590  Biso   1.000  N
  N46      1.0000 0.45210  0.53280  0.00060  Biso   1.000  N
  N47      1.0000 0.40270  0.50480  0.97710  Biso   1.000  N
  N48      1.0000 0.43060  0.48100  0.02410  Biso   1.000  N
  O49      1.0000 0.94823  0.71580  0.78490  Biso   1.000  O
  O50      1.0000 0.89093  0.71521  0.78471  Biso   1.000  O
  O51      1.0000 0.71951  0.53353  0.21596  Biso   1.000  O
  O52      1.0000 0.71803  0.47589  0.21555  Biso   1.000  O
  O53      1.0000 0.14533  0.28439  0.01915  Biso   1.000  O
  O54      1.0000 0.14780  0.28450  0.96514  Biso   1.000  O
  O55      1.0000 0.94823  0.78420  0.71510  Biso   1.000  O
  O56      1.0000 0.89093  0.78479  0.71529  Biso   1.000  O
  O57      1.0000 0.71951  0.96647  0.28404  Biso   1.000  O
  O58      1.0000 0.71803  0.02411  0.28445  Biso   1.000  O
  O59      1.0000 0.14533  0.21561  0.48085  Biso   1.000  O
  O60      1.0000 0.14780  0.21550  0.53486  Biso   1.000  O
  O61      1.0000 0.44823  0.78490  0.78420  Biso   1.000  O
  O62      1.0000 0.39093  0.78471  0.78479  Biso   1.000  O
  O63      1.0000 0.21951  0.21596  0.96647  Biso   1.000  O
  O64      1.0000 0.21803  0.21555  0.02411  Biso   1.000  O
  O65      1.0000 0.64533  0.01915  0.21561  Biso   1.000  O
  O66      1.0000 0.64780  0.96514  0.21550  Biso   1.000  O
  O67      1.0000 0.44823  0.71510  0.71580  Biso   1.000  O
  O68      1.0000 0.39093  0.71529  0.71521  Biso   1.000  O
  O69      1.0000 0.21951  0.28404  0.53353  Biso   1.000  O
  O70      1.0000 0.21803  0.28445  0.47589  Biso   1.000  O
  O71      1.0000 0.64533  0.48085  0.28439  Biso   1.000  O
  O72      1.0000 0.64780  0.53486  0.28450  Biso   1.000  O
  O73      1.0000 0.94823  0.71580  0.71510  Biso   1.000  O
  O74      1.0000 0.89093  0.71521  0.71529  Biso   1.000  O
  O75      1.0000 0.71951  0.53353  0.28404  Biso   1.000  O
  O76      1.0000 0.71803  0.47589  0.28445  Biso   1.000  O
  O77      1.0000 0.14533  0.28439  0.48085  Biso   1.000  O
  O78      1.0000 0.14780  0.28450  0.53486  Biso   1.000  O
  O79      1.0000 0.94823  0.78420  0.78490  Biso   1.000  O
  O80      1.0000 0.89093  0.78479  0.78471  Biso   1.000  O
  O81      1.0000 0.71951  0.96647  0.21596  Biso   1.000  O
  O82      1.0000 0.71803  0.02411  0.21555  Biso   1.000  O
  O83      1.0000 0.14533  0.21561  0.01915  Biso   1.000  O
  O84      1.0000 0.14780  0.21550  0.96514  Biso   1.000  O
  O85      1.0000 0.44823  0.78490  0.71580  Biso   1.000  O
  O86      1.0000 0.39093  0.78471  0.71521  Biso   1.000  O
  O87      1.0000 0.21951  0.21596  0.53353  Biso   1.000  O
  O88      1.0000 0.21803  0.21555  0.47589  Biso   1.000  O
  O89      1.0000 0.64533  0.01915  0.28439  Biso   1.000  O
  O90      1.0000 0.64780  0.96514  0.28450  Biso   1.000  O
  O91      1.0000 0.44823  0.71510  0.78420  Biso   1.000  O
  O92      1.0000 0.39093  0.71529  0.78479  Biso   1.000  O
  O93      1.0000 0.21951  0.28404  0.96647  Biso   1.000  O
  O94      1.0000 0.21803  0.28445  0.02411  Biso   1.000  O
  O95      1.0000 0.64533  0.48085  0.21561  Biso   1.000  O
  O96      1.0000 0.64780  0.53486  0.21550  Biso   1.000  O
