data_image0
_cell_length_a       29.106
_cell_length_b       29.106
_cell_length_c       23.417
_cell_angle_alpha    90
_cell_angle_beta     90
_cell_angle_gamma    120

_symmetry_space_group_name_H-M    "P 1"
_symmetry_int_tables_number       1

loop_
  _symmetry_equiv_pos_as_xyz
  'x, y, z'

loop_
  _atom_site_label
  _atom_site_occupancy
  _atom_site_fract_x
  _atom_site_fract_y
  _atom_site_fract_z
  _atom_site_thermal_displace_type
  _atom_site_B_iso_or_equiv
  _atom_site_type_symbol
  O1       1.0000 0.43417  0.71387  0.98300  Biso   1.000  O
  O2       1.0000 0.39681  0.62572  0.97310  Biso   1.000  O
  C1       1.0000 0.43360  0.67030  0.98830  Biso   1.000  C
  C2       1.0000 0.48230  0.67260  0.01430  Biso   1.000  C
  C3       1.0000 0.52930  0.71930  0.02100  Biso   1.000  C
  H1       1.0000 0.53100  0.75190  0.01220  Biso   1.000  H
  C4       1.0000 0.57480  0.71940  0.04080  Biso   1.000  C
  H2       1.0000 0.60700  0.75220  0.04500  Biso   1.000  H
  C5       1.0000 0.57370  0.67320  0.05420  Biso   1.000  C
  C6       1.0000 0.52480  0.62640  0.05220  Biso   1.000  C
  H3       1.0000 0.52210  0.59420  0.06500  Biso   1.000  H
  C7       1.0000 0.48000  0.62600  0.03170  Biso   1.000  C
  H4       1.0000 0.44740  0.59350  0.02960  Biso   1.000  H
  C8       1.0000 0.62250  0.67170  0.06980  Biso   1.000  C
  C9       1.0000 0.62190  0.62330  0.06870  Biso   1.000  C
  H5       1.0000 0.59050  0.59170  0.05800  Biso   1.000  H
  C10      1.0000 0.71340  0.56840  0.08670  Biso   1.000  C
  H6       1.0000 0.74650  0.60050  0.08910  Biso   1.000  H
  C11      1.0000 0.71170  0.52010  0.08660  Biso   1.000  C
  H7       1.0000 0.74420  0.51990  0.08910  Biso   1.000  H
  O3       1.0000 0.10084  0.04720  0.31633  Biso   1.000  O
  O4       1.0000 0.06348  0.95905  0.30643  Biso   1.000  O
  C12      1.0000 0.10027  0.00363  0.32163  Biso   1.000  C
  C13      1.0000 0.14897  0.00593  0.34763  Biso   1.000  C
  C14      1.0000 0.19597  0.05263  0.35433  Biso   1.000  C
  H8       1.0000 0.19767  0.08523  0.34553  Biso   1.000  H
  C15      1.0000 0.24147  0.05273  0.37413  Biso   1.000  C
  H9       1.0000 0.27367  0.08553  0.37833  Biso   1.000  H
  C16      1.0000 0.24037  0.00653  0.38753  Biso   1.000  C
  C17      1.0000 0.19147  0.95973  0.38553  Biso   1.000  C
  H10      1.0000 0.18877  0.92753  0.39833  Biso   1.000  H
  C18      1.0000 0.14667  0.95933  0.36503  Biso   1.000  C
  H11      1.0000 0.11407  0.92683  0.36293  Biso   1.000  H
  C19      1.0000 0.28917  0.00503  0.40313  Biso   1.000  C
  C20      1.0000 0.28857  0.95663  0.40203  Biso   1.000  C
  H12      1.0000 0.25717  0.92503  0.39133  Biso   1.000  H
  C21      1.0000 0.38007  0.90173  0.42003  Biso   1.000  C
  H13      1.0000 0.41317  0.93383  0.42243  Biso   1.000  H
  C22      1.0000 0.37837  0.85343  0.41993  Biso   1.000  C
  H14      1.0000 0.41087  0.85323  0.42243  Biso   1.000  H
  O5       1.0000 0.76750  0.38054  0.64967  Biso   1.000  O
  O6       1.0000 0.73014  0.29239  0.63977  Biso   1.000  O
  C23      1.0000 0.76693  0.33697  0.65497  Biso   1.000  C
  C24      1.0000 0.81563  0.33927  0.68097  Biso   1.000  C
  C25      1.0000 0.86263  0.38597  0.68767  Biso   1.000  C
  H15      1.0000 0.86433  0.41857  0.67887  Biso   1.000  H
  C26      1.0000 0.90813  0.38607  0.70747  Biso   1.000  C
  H16      1.0000 0.94033  0.41887  0.71167  Biso   1.000  H
  C27      1.0000 0.90703  0.33987  0.72087  Biso   1.000  C
  C28      1.0000 0.85813  0.29307  0.71887  Biso   1.000  C
  H17      1.0000 0.85543  0.26087  0.73167  Biso   1.000  H
  C29      1.0000 0.81333  0.29267  0.69837  Biso   1.000  C
  H18      1.0000 0.78073  0.26017  0.69627  Biso   1.000  H
  C30      1.0000 0.95583  0.33837  0.73647  Biso   1.000  C
  C31      1.0000 0.95523  0.28997  0.73537  Biso   1.000  C
  H19      1.0000 0.92383  0.25837  0.72467  Biso   1.000  H
  C32      1.0000 0.04673  0.23507  0.75337  Biso   1.000  C
  H20      1.0000 0.07983  0.26717  0.75577  Biso   1.000  H
  C33      1.0000 0.04503  0.18677  0.75327  Biso   1.000  C
  H21      1.0000 0.07753  0.18657  0.75577  Biso   1.000  H
  O7       1.0000 0.28613  0.72030  0.98300  Biso   1.000  O
  O8       1.0000 0.37428  0.77109  0.97310  Biso   1.000  O
  C34      1.0000 0.32970  0.76330  0.98830  Biso   1.000  C
  C35      1.0000 0.32740  0.80970  0.01430  Biso   1.000  C
  C36      1.0000 0.28070  0.81000  0.02100  Biso   1.000  C
  H22      1.0000 0.24810  0.77910  0.01220  Biso   1.000  H
  C37      1.0000 0.28060  0.85540  0.04080  Biso   1.000  C
  H23      1.0000 0.24780  0.85480  0.04500  Biso   1.000  H
  C38      1.0000 0.32680  0.90050  0.05420  Biso   1.000  C
  C39      1.0000 0.37360  0.89840  0.05220  Biso   1.000  C
  H24      1.0000 0.40580  0.92790  0.06500  Biso   1.000  H
  C40      1.0000 0.37400  0.85400  0.03170  Biso   1.000  C
  H25      1.0000 0.40650  0.85390  0.02960  Biso   1.000  H
  C41      1.0000 0.32830  0.95080  0.06980  Biso   1.000  C
  C42      1.0000 0.37670  0.99860  0.06870  Biso   1.000  C
  H26      1.0000 0.40830  0.99880  0.05800  Biso   1.000  H
  C43      1.0000 0.43160  0.14500  0.08670  Biso   1.000  C
  H27      1.0000 0.39950  0.14600  0.08910  Biso   1.000  H
  C44      1.0000 0.47990  0.19160  0.08660  Biso   1.000  C
  H28      1.0000 0.48010  0.22430  0.08910  Biso   1.000  H
  O9       1.0000 0.95280  0.05363  0.31633  Biso   1.000  O
  O10      1.0000 0.04095  0.10442  0.30643  Biso   1.000  O
  C45      1.0000 0.99637  0.09663  0.32163  Biso   1.000  C
  C46      1.0000 0.99407  0.14303  0.34763  Biso   1.000  C
  C47      1.0000 0.94737  0.14333  0.35433  Biso   1.000  C
  H29      1.0000 0.91477  0.11243  0.34553  Biso   1.000  H
  C48      1.0000 0.94727  0.18873  0.37413  Biso   1.000  C
  H30      1.0000 0.91447  0.18813  0.37833  Biso   1.000  H
  C49      1.0000 0.99347  0.23383  0.38753  Biso   1.000  C
  C50      1.0000 0.04027  0.23173  0.38553  Biso   1.000  C
  H31      1.0000 0.07247  0.26123  0.39833  Biso   1.000  H
  C51      1.0000 0.04067  0.18733  0.36503  Biso   1.000  C
  H32      1.0000 0.07317  0.18723  0.36293  Biso   1.000  H
  C52      1.0000 0.99497  0.28413  0.40313  Biso   1.000  C
  C53      1.0000 0.04337  0.33193  0.40203  Biso   1.000  C
  H33      1.0000 0.07497  0.33213  0.39133  Biso   1.000  H
  C54      1.0000 0.09827  0.47833  0.42003  Biso   1.000  C
  H34      1.0000 0.06617  0.47933  0.42243  Biso   1.000  H
  C55      1.0000 0.14657  0.52493  0.41993  Biso   1.000  C
  H35      1.0000 0.14677  0.55763  0.42243  Biso   1.000  H
  O11      1.0000 0.61946  0.38697  0.64967  Biso   1.000  O
  O12      1.0000 0.70761  0.43776  0.63977  Biso   1.000  O
  C56      1.0000 0.66303  0.42997  0.65497  Biso   1.000  C
  C57      1.0000 0.66073  0.47637  0.68097  Biso   1.000  C
  C58      1.0000 0.61403  0.47667  0.68767  Biso   1.000  C
  H36      1.0000 0.58143  0.44577  0.67887  Biso   1.000  H
  C59      1.0000 0.61393  0.52207  0.70747  Biso   1.000  C
  H37      1.0000 0.58113  0.52147  0.71167  Biso   1.000  H
  C60      1.0000 0.66013  0.56717  0.72087  Biso   1.000  C
  C61      1.0000 0.70693  0.56507  0.71887  Biso   1.000  C
  H38      1.0000 0.73913  0.59457  0.73167  Biso   1.000  H
  C62      1.0000 0.70733  0.52067  0.69837  Biso   1.000  C
  H39      1.0000 0.73983  0.52057  0.69627  Biso   1.000  H
  C63      1.0000 0.66163  0.61747  0.73647  Biso   1.000  C
  C64      1.0000 0.71003  0.66527  0.73537  Biso   1.000  C
  H40      1.0000 0.74163  0.66547  0.72467  Biso   1.000  H
  C65      1.0000 0.76493  0.81167  0.75337  Biso   1.000  C
  H41      1.0000 0.73283  0.81267  0.75577  Biso   1.000  H
  C66      1.0000 0.81323  0.85827  0.75327  Biso   1.000  C
  H42      1.0000 0.81343  0.89097  0.75577  Biso   1.000  H
  O13      1.0000 0.27970  0.56583  0.98300  Biso   1.000  O
  O14      1.0000 0.22891  0.60319  0.97310  Biso   1.000  O
  C67      1.0000 0.23670  0.56640  0.98830  Biso   1.000  C
  C68      1.0000 0.19030  0.51770  0.01430  Biso   1.000  C
  C69      1.0000 0.19000  0.47070  0.02100  Biso   1.000  C
  H43      1.0000 0.22090  0.46900  0.01220  Biso   1.000  H
  C70      1.0000 0.14460  0.42520  0.04080  Biso   1.000  C
  H44      1.0000 0.14520  0.39300  0.04500  Biso   1.000  H
  C71      1.0000 0.09950  0.42630  0.05420  Biso   1.000  C
  C72      1.0000 0.10160  0.47520  0.05220  Biso   1.000  C
  H45      1.0000 0.07210  0.47790  0.06500  Biso   1.000  H
  C73      1.0000 0.14600  0.52000  0.03170  Biso   1.000  C
  H46      1.0000 0.14610  0.55260  0.02960  Biso   1.000  H
  C74      1.0000 0.04920  0.37750  0.06980  Biso   1.000  C
  C75      1.0000 0.00140  0.37810  0.06870  Biso   1.000  C
  H47      1.0000 0.00120  0.40950  0.05800  Biso   1.000  H
  C76      1.0000 0.85500  0.28660  0.08670  Biso   1.000  C
  H48      1.0000 0.85400  0.25350  0.08910  Biso   1.000  H
  C77      1.0000 0.80840  0.28830  0.08660  Biso   1.000  C
  H49      1.0000 0.77570  0.25580  0.08910  Biso   1.000  H
  O15      1.0000 0.94637  0.89916  0.31633  Biso   1.000  O
  O16      1.0000 0.89558  0.93652  0.30643  Biso   1.000  O
  C78      1.0000 0.90337  0.89973  0.32163  Biso   1.000  C
  C79      1.0000 0.85697  0.85103  0.34763  Biso   1.000  C
  C80      1.0000 0.85667  0.80403  0.35433  Biso   1.000  C
  H50      1.0000 0.88757  0.80233  0.34553  Biso   1.000  H
  C81      1.0000 0.81127  0.75853  0.37413  Biso   1.000  C
  H51      1.0000 0.81187  0.72633  0.37833  Biso   1.000  H
  C82      1.0000 0.76617  0.75963  0.38753  Biso   1.000  C
  C83      1.0000 0.76827  0.80853  0.38553  Biso   1.000  C
  H52      1.0000 0.73877  0.81123  0.39833  Biso   1.000  H
  C84      1.0000 0.81267  0.85333  0.36503  Biso   1.000  C
  H53      1.0000 0.81277  0.88593  0.36293  Biso   1.000  H
  C85      1.0000 0.71587  0.71083  0.40313  Biso   1.000  C
  C86      1.0000 0.66807  0.71143  0.40203  Biso   1.000  C
  H54      1.0000 0.66787  0.74283  0.39133  Biso   1.000  H
  C87      1.0000 0.52167  0.61993  0.42003  Biso   1.000  C
  H55      1.0000 0.52067  0.58683  0.42243  Biso   1.000  H
  C88      1.0000 0.47507  0.62163  0.41993  Biso   1.000  C
  H56      1.0000 0.44237  0.58913  0.42243  Biso   1.000  H
  O17      1.0000 0.61303  0.23250  0.64967  Biso   1.000  O
  O18      1.0000 0.56224  0.26986  0.63977  Biso   1.000  O
  C89      1.0000 0.57003  0.23307  0.65497  Biso   1.000  C
  C90      1.0000 0.52363  0.18437  0.68097  Biso   1.000  C
  C91      1.0000 0.52333  0.13737  0.68767  Biso   1.000  C
  H57      1.0000 0.55423  0.13567  0.67887  Biso   1.000  H
  C92      1.0000 0.47793  0.09187  0.70747  Biso   1.000  C
  H58      1.0000 0.47853  0.05967  0.71167  Biso   1.000  H
  C93      1.0000 0.43283  0.09297  0.72087  Biso   1.000  C
  C94      1.0000 0.43493  0.14187  0.71887  Biso   1.000  C
  H59      1.0000 0.40543  0.14457  0.73167  Biso   1.000  H
  C95      1.0000 0.47933  0.18667  0.69837  Biso   1.000  C
  H60      1.0000 0.47943  0.21927  0.69627  Biso   1.000  H
  C96      1.0000 0.38253  0.04417  0.73647  Biso   1.000  C
  C97      1.0000 0.33473  0.04477  0.73537  Biso   1.000  C
  H61      1.0000 0.33453  0.07617  0.72467  Biso   1.000  H
  C98      1.0000 0.18833  0.95327  0.75337  Biso   1.000  C
  H62      1.0000 0.18733  0.92017  0.75577  Biso   1.000  H
  C99      1.0000 0.14173  0.95497  0.75327  Biso   1.000  C
  H63      1.0000 0.10903  0.92247  0.75577  Biso   1.000  H
  O19      1.0000 0.71387  0.43417  0.51700  Biso   1.000  O
  O20      1.0000 0.62572  0.39681  0.52690  Biso   1.000  O
  C100     1.0000 0.67030  0.43360  0.51170  Biso   1.000  C
  C101     1.0000 0.67260  0.48230  0.48570  Biso   1.000  C
  C102     1.0000 0.71930  0.52930  0.47900  Biso   1.000  C
  H64      1.0000 0.75190  0.53100  0.48780  Biso   1.000  H
  C103     1.0000 0.71940  0.57480  0.45920  Biso   1.000  C
  H65      1.0000 0.75220  0.60700  0.45500  Biso   1.000  H
  C104     1.0000 0.67320  0.57370  0.44580  Biso   1.000  C
  C105     1.0000 0.62640  0.52480  0.44780  Biso   1.000  C
  H66      1.0000 0.59420  0.52210  0.43500  Biso   1.000  H
  C106     1.0000 0.62600  0.48000  0.46830  Biso   1.000  C
  H67      1.0000 0.59350  0.44740  0.47040  Biso   1.000  H
  C107     1.0000 0.67170  0.62250  0.43020  Biso   1.000  C
  C108     1.0000 0.62330  0.62190  0.43130  Biso   1.000  C
  H68      1.0000 0.59170  0.59050  0.44200  Biso   1.000  H
  C109     1.0000 0.56840  0.71340  0.41330  Biso   1.000  C
  H69      1.0000 0.60050  0.74650  0.41090  Biso   1.000  H
  C110     1.0000 0.52010  0.71170  0.41340  Biso   1.000  C
  H70      1.0000 0.51990  0.74420  0.41090  Biso   1.000  H
  O21      1.0000 0.38054  0.76750  0.85033  Biso   1.000  O
  O22      1.0000 0.29239  0.73014  0.86023  Biso   1.000  O
  C111     1.0000 0.33697  0.76693  0.84503  Biso   1.000  C
  C112     1.0000 0.33927  0.81563  0.81903  Biso   1.000  C
  C113     1.0000 0.38597  0.86263  0.81233  Biso   1.000  C
  H71      1.0000 0.41857  0.86433  0.82113  Biso   1.000  H
  C114     1.0000 0.38607  0.90813  0.79253  Biso   1.000  C
  H72      1.0000 0.41887  0.94033  0.78833  Biso   1.000  H
  C115     1.0000 0.33987  0.90703  0.77913  Biso   1.000  C
  C116     1.0000 0.29307  0.85813  0.78113  Biso   1.000  C
  H73      1.0000 0.26087  0.85543  0.76833  Biso   1.000  H
  C117     1.0000 0.29267  0.81333  0.80163  Biso   1.000  C
  H74      1.0000 0.26017  0.78073  0.80373  Biso   1.000  H
  C118     1.0000 0.33837  0.95583  0.76353  Biso   1.000  C
  C119     1.0000 0.28997  0.95523  0.76463  Biso   1.000  C
  H75      1.0000 0.25837  0.92383  0.77533  Biso   1.000  H
  C120     1.0000 0.23507  0.04673  0.74663  Biso   1.000  C
  H76      1.0000 0.26717  0.07983  0.74423  Biso   1.000  H
  C121     1.0000 0.18677  0.04503  0.74673  Biso   1.000  C
  H77      1.0000 0.18657  0.07753  0.74423  Biso   1.000  H
  O23      1.0000 0.04720  0.10084  0.18367  Biso   1.000  O
  O24      1.0000 0.95905  0.06348  0.19357  Biso   1.000  O
  C122     1.0000 0.00363  0.10027  0.17837  Biso   1.000  C
  C123     1.0000 0.00593  0.14897  0.15237  Biso   1.000  C
  C124     1.0000 0.05263  0.19597  0.14567  Biso   1.000  C
  H78      1.0000 0.08523  0.19767  0.15447  Biso   1.000  H
  C125     1.0000 0.05273  0.24147  0.12587  Biso   1.000  C
  H79      1.0000 0.08553  0.27367  0.12167  Biso   1.000  H
  C126     1.0000 0.00653  0.24037  0.11247  Biso   1.000  C
  C127     1.0000 0.95973  0.19147  0.11447  Biso   1.000  C
  H80      1.0000 0.92753  0.18877  0.10167  Biso   1.000  H
  C128     1.0000 0.95933  0.14667  0.13497  Biso   1.000  C
  H81      1.0000 0.92683  0.11407  0.13707  Biso   1.000  H
  C129     1.0000 0.00503  0.28917  0.09687  Biso   1.000  C
  C130     1.0000 0.95663  0.28857  0.09797  Biso   1.000  C
  H82      1.0000 0.92503  0.25717  0.10867  Biso   1.000  H
  C131     1.0000 0.90173  0.38007  0.07997  Biso   1.000  C
  H83      1.0000 0.93383  0.41317  0.07757  Biso   1.000  H
  C132     1.0000 0.85343  0.37837  0.08007  Biso   1.000  C
  H84      1.0000 0.85323  0.41087  0.07757  Biso   1.000  H
  O25      1.0000 0.72030  0.28613  0.51700  Biso   1.000  O
  O26      1.0000 0.77109  0.37428  0.52690  Biso   1.000  O
  C133     1.0000 0.76330  0.32970  0.51170  Biso   1.000  C
  C134     1.0000 0.80970  0.32740  0.48570  Biso   1.000  C
  C135     1.0000 0.81000  0.28070  0.47900  Biso   1.000  C
  H85      1.0000 0.77910  0.24810  0.48780  Biso   1.000  H
  C136     1.0000 0.85540  0.28060  0.45920  Biso   1.000  C
  H86      1.0000 0.85480  0.24780  0.45500  Biso   1.000  H
  C137     1.0000 0.90050  0.32680  0.44580  Biso   1.000  C
  C138     1.0000 0.89840  0.37360  0.44780  Biso   1.000  C
  H87      1.0000 0.92790  0.40580  0.43500  Biso   1.000  H
  C139     1.0000 0.85400  0.37400  0.46830  Biso   1.000  C
  H88      1.0000 0.85390  0.40650  0.47040  Biso   1.000  H
  C140     1.0000 0.95080  0.32830  0.43020  Biso   1.000  C
  C141     1.0000 0.99860  0.37670  0.43130  Biso   1.000  C
  H89      1.0000 0.99880  0.40830  0.44200  Biso   1.000  H
  C142     1.0000 0.14500  0.43160  0.41330  Biso   1.000  C
  H90      1.0000 0.14600  0.39950  0.41090  Biso   1.000  H
  C143     1.0000 0.19160  0.47990  0.41340  Biso   1.000  C
  H91      1.0000 0.22430  0.48010  0.41090  Biso   1.000  H
  O27      1.0000 0.38697  0.61946  0.85033  Biso   1.000  O
  O28      1.0000 0.43776  0.70761  0.86023  Biso   1.000  O
  C144     1.0000 0.42997  0.66303  0.84503  Biso   1.000  C
  C145     1.0000 0.47637  0.66073  0.81903  Biso   1.000  C
  C146     1.0000 0.47667  0.61403  0.81233  Biso   1.000  C
  H92      1.0000 0.44577  0.58143  0.82113  Biso   1.000  H
  C147     1.0000 0.52207  0.61393  0.79253  Biso   1.000  C
  H93      1.0000 0.52147  0.58113  0.78833  Biso   1.000  H
  C148     1.0000 0.56717  0.66013  0.77913  Biso   1.000  C
  C149     1.0000 0.56507  0.70693  0.78113  Biso   1.000  C
  H94      1.0000 0.59457  0.73913  0.76833  Biso   1.000  H
  C150     1.0000 0.52067  0.70733  0.80163  Biso   1.000  C
  H95      1.0000 0.52057  0.73983  0.80373  Biso   1.000  H
  C151     1.0000 0.61747  0.66163  0.76353  Biso   1.000  C
  C152     1.0000 0.66527  0.71003  0.76463  Biso   1.000  C
  H96      1.0000 0.66547  0.74163  0.77533  Biso   1.000  H
  C153     1.0000 0.81167  0.76493  0.74663  Biso   1.000  C
  H97      1.0000 0.81267  0.73283  0.74423  Biso   1.000  H
  C154     1.0000 0.85827  0.81323  0.74673  Biso   1.000  C
  H98      1.0000 0.89097  0.81343  0.74423  Biso   1.000  H
  O29      1.0000 0.05363  0.95280  0.18367  Biso   1.000  O
  O30      1.0000 0.10442  0.04095  0.19357  Biso   1.000  O
  C155     1.0000 0.09663  0.99637  0.17837  Biso   1.000  C
  C156     1.0000 0.14303  0.99407  0.15237  Biso   1.000  C
  C157     1.0000 0.14333  0.94737  0.14567  Biso   1.000  C
  H99      1.0000 0.11243  0.91477  0.15447  Biso   1.000  H
  C158     1.0000 0.18873  0.94727  0.12587  Biso   1.000  C
  H100     1.0000 0.18813  0.91447  0.12167  Biso   1.000  H
  C159     1.0000 0.23383  0.99347  0.11247  Biso   1.000  C
  C160     1.0000 0.23173  0.04027  0.11447  Biso   1.000  C
  H101     1.0000 0.26123  0.07247  0.10167  Biso   1.000  H
  C161     1.0000 0.18733  0.04067  0.13497  Biso   1.000  C
  H102     1.0000 0.18723  0.07317  0.13707  Biso   1.000  H
  C162     1.0000 0.28413  0.99497  0.09687  Biso   1.000  C
  C163     1.0000 0.33193  0.04337  0.09797  Biso   1.000  C
  H103     1.0000 0.33213  0.07497  0.10867  Biso   1.000  H
  C164     1.0000 0.47833  0.09827  0.07997  Biso   1.000  C
  H104     1.0000 0.47933  0.06617  0.07757  Biso   1.000  H
  C165     1.0000 0.52493  0.14657  0.08007  Biso   1.000  C
  H105     1.0000 0.55763  0.14677  0.07757  Biso   1.000  H
  O31      1.0000 0.56583  0.27970  0.51700  Biso   1.000  O
  O32      1.0000 0.60319  0.22891  0.52690  Biso   1.000  O
  C166     1.0000 0.56640  0.23670  0.51170  Biso   1.000  C
  C167     1.0000 0.51770  0.19030  0.48570  Biso   1.000  C
  C168     1.0000 0.47070  0.19000  0.47900  Biso   1.000  C
  H106     1.0000 0.46900  0.22090  0.48780  Biso   1.000  H
  C169     1.0000 0.42520  0.14460  0.45920  Biso   1.000  C
  H107     1.0000 0.39300  0.14520  0.45500  Biso   1.000  H
  C170     1.0000 0.42630  0.09950  0.44580  Biso   1.000  C
  C171     1.0000 0.47520  0.10160  0.44780  Biso   1.000  C
  H108     1.0000 0.47790  0.07210  0.43500  Biso   1.000  H
  C172     1.0000 0.52000  0.14600  0.46830  Biso   1.000  C
  H109     1.0000 0.55260  0.14610  0.47040  Biso   1.000  H
  C173     1.0000 0.37750  0.04920  0.43020  Biso   1.000  C
  C174     1.0000 0.37810  0.00140  0.43130  Biso   1.000  C
  H110     1.0000 0.40950  0.00120  0.44200  Biso   1.000  H
  C175     1.0000 0.28660  0.85500  0.41330  Biso   1.000  C
  H111     1.0000 0.25350  0.85400  0.41090  Biso   1.000  H
  C176     1.0000 0.28830  0.80840  0.41340  Biso   1.000  C
  H112     1.0000 0.25580  0.77570  0.41090  Biso   1.000  H
  O33      1.0000 0.23250  0.61303  0.85033  Biso   1.000  O
  O34      1.0000 0.26986  0.56224  0.86023  Biso   1.000  O
  C177     1.0000 0.23307  0.57003  0.84503  Biso   1.000  C
  C178     1.0000 0.18437  0.52363  0.81903  Biso   1.000  C
  C179     1.0000 0.13737  0.52333  0.81233  Biso   1.000  C
  H113     1.0000 0.13567  0.55423  0.82113  Biso   1.000  H
  C180     1.0000 0.09187  0.47793  0.79253  Biso   1.000  C
  H114     1.0000 0.05967  0.47853  0.78833  Biso   1.000  H
  C181     1.0000 0.09297  0.43283  0.77913  Biso   1.000  C
  C182     1.0000 0.14187  0.43493  0.78113  Biso   1.000  C
  H115     1.0000 0.14457  0.40543  0.76833  Biso   1.000  H
  C183     1.0000 0.18667  0.47933  0.80163  Biso   1.000  C
  H116     1.0000 0.21927  0.47943  0.80373  Biso   1.000  H
  C184     1.0000 0.04417  0.38253  0.76353  Biso   1.000  C
  C185     1.0000 0.04477  0.33473  0.76463  Biso   1.000  C
  H117     1.0000 0.07617  0.33453  0.77533  Biso   1.000  H
  C186     1.0000 0.95327  0.18833  0.74663  Biso   1.000  C
  H118     1.0000 0.92017  0.18733  0.74423  Biso   1.000  H
  C187     1.0000 0.95497  0.14173  0.74673  Biso   1.000  C
  H119     1.0000 0.92247  0.10903  0.74423  Biso   1.000  H
  O35      1.0000 0.89916  0.94637  0.18367  Biso   1.000  O
  O36      1.0000 0.93652  0.89558  0.19357  Biso   1.000  O
  C188     1.0000 0.89973  0.90337  0.17837  Biso   1.000  C
  C189     1.0000 0.85103  0.85697  0.15237  Biso   1.000  C
  C190     1.0000 0.80403  0.85667  0.14567  Biso   1.000  C
  H120     1.0000 0.80233  0.88757  0.15447  Biso   1.000  H
  C191     1.0000 0.75853  0.81127  0.12587  Biso   1.000  C
  H121     1.0000 0.72633  0.81187  0.12167  Biso   1.000  H
  C192     1.0000 0.75963  0.76617  0.11247  Biso   1.000  C
  C193     1.0000 0.80853  0.76827  0.11447  Biso   1.000  C
  H122     1.0000 0.81123  0.73877  0.10167  Biso   1.000  H
  C194     1.0000 0.85333  0.81267  0.13497  Biso   1.000  C
  H123     1.0000 0.88593  0.81277  0.13707  Biso   1.000  H
  C195     1.0000 0.71083  0.71587  0.09687  Biso   1.000  C
  C196     1.0000 0.71143  0.66807  0.09797  Biso   1.000  C
  H124     1.0000 0.74283  0.66787  0.10867  Biso   1.000  H
  C197     1.0000 0.61993  0.52167  0.07997  Biso   1.000  C
  H125     1.0000 0.58683  0.52067  0.07757  Biso   1.000  H
  C198     1.0000 0.62163  0.47507  0.08007  Biso   1.000  C
  H126     1.0000 0.58913  0.44237  0.07757  Biso   1.000  H
  O37      1.0000 0.56583  0.28613  0.01700  Biso   1.000  O
  O38      1.0000 0.60319  0.37428  0.02690  Biso   1.000  O
  C199     1.0000 0.56640  0.32970  0.01170  Biso   1.000  C
  C200     1.0000 0.51770  0.32740  0.98570  Biso   1.000  C
  C201     1.0000 0.47070  0.28070  0.97900  Biso   1.000  C
  H127     1.0000 0.46900  0.24810  0.98780  Biso   1.000  H
  C202     1.0000 0.42520  0.28060  0.95920  Biso   1.000  C
  H128     1.0000 0.39300  0.24780  0.95500  Biso   1.000  H
  C203     1.0000 0.42630  0.32680  0.94580  Biso   1.000  C
  C204     1.0000 0.47520  0.37360  0.94780  Biso   1.000  C
  H129     1.0000 0.47790  0.40580  0.93500  Biso   1.000  H
  C205     1.0000 0.52000  0.37400  0.96830  Biso   1.000  C
  H130     1.0000 0.55260  0.40650  0.97040  Biso   1.000  H
  C206     1.0000 0.37750  0.32830  0.93020  Biso   1.000  C
  C207     1.0000 0.37810  0.37670  0.93130  Biso   1.000  C
  H131     1.0000 0.40950  0.40830  0.94200  Biso   1.000  H
  C208     1.0000 0.28660  0.43160  0.91330  Biso   1.000  C
  H132     1.0000 0.25350  0.39950  0.91090  Biso   1.000  H
  C209     1.0000 0.28830  0.47990  0.91340  Biso   1.000  C
  H133     1.0000 0.25580  0.48010  0.91090  Biso   1.000  H
  O39      1.0000 0.23250  0.61946  0.35033  Biso   1.000  O
  O40      1.0000 0.26986  0.70761  0.36023  Biso   1.000  O
  C210     1.0000 0.23307  0.66303  0.34503  Biso   1.000  C
  C211     1.0000 0.18437  0.66073  0.31903  Biso   1.000  C
  C212     1.0000 0.13737  0.61403  0.31233  Biso   1.000  C
  H134     1.0000 0.13567  0.58143  0.32113  Biso   1.000  H
  C213     1.0000 0.09187  0.61393  0.29253  Biso   1.000  C
  H135     1.0000 0.05967  0.58113  0.28833  Biso   1.000  H
  C214     1.0000 0.09297  0.66013  0.27913  Biso   1.000  C
  C215     1.0000 0.14187  0.70693  0.28113  Biso   1.000  C
  H136     1.0000 0.14457  0.73913  0.26833  Biso   1.000  H
  C216     1.0000 0.18667  0.70733  0.30163  Biso   1.000  C
  H137     1.0000 0.21927  0.73983  0.30373  Biso   1.000  H
  C217     1.0000 0.04417  0.66163  0.26353  Biso   1.000  C
  C218     1.0000 0.04477  0.71003  0.26463  Biso   1.000  C
  H138     1.0000 0.07617  0.74163  0.27533  Biso   1.000  H
  C219     1.0000 0.95327  0.76493  0.24663  Biso   1.000  C
  H139     1.0000 0.92017  0.73283  0.24423  Biso   1.000  H
  C220     1.0000 0.95497  0.81323  0.24673  Biso   1.000  C
  H140     1.0000 0.92247  0.81343  0.24423  Biso   1.000  H
  O41      1.0000 0.89916  0.95280  0.68367  Biso   1.000  O
  O42      1.0000 0.93652  0.04095  0.69357  Biso   1.000  O
  C221     1.0000 0.89973  0.99637  0.67837  Biso   1.000  C
  C222     1.0000 0.85103  0.99407  0.65237  Biso   1.000  C
  C223     1.0000 0.80403  0.94737  0.64567  Biso   1.000  C
  H141     1.0000 0.80233  0.91477  0.65447  Biso   1.000  H
  C224     1.0000 0.75853  0.94727  0.62587  Biso   1.000  C
  H142     1.0000 0.72633  0.91447  0.62167  Biso   1.000  H
  C225     1.0000 0.75963  0.99347  0.61247  Biso   1.000  C
  C226     1.0000 0.80853  0.04027  0.61447  Biso   1.000  C
  H143     1.0000 0.81123  0.07247  0.60167  Biso   1.000  H
  C227     1.0000 0.85333  0.04067  0.63497  Biso   1.000  C
  H144     1.0000 0.88593  0.07317  0.63707  Biso   1.000  H
  C228     1.0000 0.71083  0.99497  0.59687  Biso   1.000  C
  C229     1.0000 0.71143  0.04337  0.59797  Biso   1.000  C
  H145     1.0000 0.74283  0.07497  0.60867  Biso   1.000  H
  C230     1.0000 0.61993  0.09827  0.57997  Biso   1.000  C
  H146     1.0000 0.58683  0.06617  0.57757  Biso   1.000  H
  C231     1.0000 0.62163  0.14657  0.58007  Biso   1.000  C
  H147     1.0000 0.58913  0.14677  0.57757  Biso   1.000  H
  O43      1.0000 0.71387  0.27970  0.01700  Biso   1.000  O
  O44      1.0000 0.62572  0.22891  0.02690  Biso   1.000  O
  C232     1.0000 0.67030  0.23670  0.01170  Biso   1.000  C
  C233     1.0000 0.67260  0.19030  0.98570  Biso   1.000  C
  C234     1.0000 0.71930  0.19000  0.97900  Biso   1.000  C
  H148     1.0000 0.75190  0.22090  0.98780  Biso   1.000  H
  C235     1.0000 0.71940  0.14460  0.95920  Biso   1.000  C
  H149     1.0000 0.75220  0.14520  0.95500  Biso   1.000  H
  C236     1.0000 0.67320  0.09950  0.94580  Biso   1.000  C
  C237     1.0000 0.62640  0.10160  0.94780  Biso   1.000  C
  H150     1.0000 0.59420  0.07210  0.93500  Biso   1.000  H
  C238     1.0000 0.62600  0.14600  0.96830  Biso   1.000  C
  H151     1.0000 0.59350  0.14610  0.97040  Biso   1.000  H
  C239     1.0000 0.67170  0.04920  0.93020  Biso   1.000  C
  C240     1.0000 0.62330  0.00140  0.93130  Biso   1.000  C
  H152     1.0000 0.59170  0.00120  0.94200  Biso   1.000  H
  C241     1.0000 0.56840  0.85500  0.91330  Biso   1.000  C
  H153     1.0000 0.60050  0.85400  0.91090  Biso   1.000  H
  C242     1.0000 0.52010  0.80840  0.91340  Biso   1.000  C
  H154     1.0000 0.51990  0.77570  0.91090  Biso   1.000  H
  O45      1.0000 0.38054  0.61303  0.35033  Biso   1.000  O
  O46      1.0000 0.29239  0.56224  0.36023  Biso   1.000  O
  C243     1.0000 0.33697  0.57003  0.34503  Biso   1.000  C
  C244     1.0000 0.33927  0.52363  0.31903  Biso   1.000  C
  C245     1.0000 0.38597  0.52333  0.31233  Biso   1.000  C
  H155     1.0000 0.41857  0.55423  0.32113  Biso   1.000  H
  C246     1.0000 0.38607  0.47793  0.29253  Biso   1.000  C
  H156     1.0000 0.41887  0.47853  0.28833  Biso   1.000  H
  C247     1.0000 0.33987  0.43283  0.27913  Biso   1.000  C
  C248     1.0000 0.29307  0.43493  0.28113  Biso   1.000  C
  H157     1.0000 0.26087  0.40543  0.26833  Biso   1.000  H
  C249     1.0000 0.29267  0.47933  0.30163  Biso   1.000  C
  H158     1.0000 0.26017  0.47943  0.30373  Biso   1.000  H
  C250     1.0000 0.33837  0.38253  0.26353  Biso   1.000  C
  C251     1.0000 0.28997  0.33473  0.26463  Biso   1.000  C
  H159     1.0000 0.25837  0.33453  0.27533  Biso   1.000  H
  C252     1.0000 0.23507  0.18833  0.24663  Biso   1.000  C
  H160     1.0000 0.26717  0.18733  0.24423  Biso   1.000  H
  C253     1.0000 0.18677  0.14173  0.24673  Biso   1.000  C
  H161     1.0000 0.18657  0.10903  0.24423  Biso   1.000  H
  O47      1.0000 0.04720  0.94637  0.68367  Biso   1.000  O
  O48      1.0000 0.95905  0.89558  0.69357  Biso   1.000  O
  C254     1.0000 0.00363  0.90337  0.67837  Biso   1.000  C
  C255     1.0000 0.00593  0.85697  0.65237  Biso   1.000  C
  C256     1.0000 0.05263  0.85667  0.64567  Biso   1.000  C
  H162     1.0000 0.08523  0.88757  0.65447  Biso   1.000  H
  C257     1.0000 0.05273  0.81127  0.62587  Biso   1.000  C
  H163     1.0000 0.08553  0.81187  0.62167  Biso   1.000  H
  C258     1.0000 0.00653  0.76617  0.61247  Biso   1.000  C
  C259     1.0000 0.95973  0.76827  0.61447  Biso   1.000  C
  H164     1.0000 0.92753  0.73877  0.60167  Biso   1.000  H
  C260     1.0000 0.95933  0.81267  0.63497  Biso   1.000  C
  H165     1.0000 0.92683  0.81277  0.63707  Biso   1.000  H
  C261     1.0000 0.00503  0.71587  0.59687  Biso   1.000  C
  C262     1.0000 0.95663  0.66807  0.59797  Biso   1.000  C
  H166     1.0000 0.92503  0.66787  0.60867  Biso   1.000  H
  C263     1.0000 0.90173  0.52167  0.57997  Biso   1.000  C
  H167     1.0000 0.93383  0.52067  0.57757  Biso   1.000  H
  C264     1.0000 0.85343  0.47507  0.58007  Biso   1.000  C
  H168     1.0000 0.85323  0.44237  0.57757  Biso   1.000  H
  O49      1.0000 0.72030  0.43417  0.01700  Biso   1.000  O
  O50      1.0000 0.77109  0.39681  0.02690  Biso   1.000  O
  C265     1.0000 0.76330  0.43360  0.01170  Biso   1.000  C
  C266     1.0000 0.80970  0.48230  0.98570  Biso   1.000  C
  C267     1.0000 0.81000  0.52930  0.97900  Biso   1.000  C
  H169     1.0000 0.77910  0.53100  0.98780  Biso   1.000  H
  C268     1.0000 0.85540  0.57480  0.95920  Biso   1.000  C
  H170     1.0000 0.85480  0.60700  0.95500  Biso   1.000  H
  C269     1.0000 0.90050  0.57370  0.94580  Biso   1.000  C
  C270     1.0000 0.89840  0.52480  0.94780  Biso   1.000  C
  H171     1.0000 0.92790  0.52210  0.93500  Biso   1.000  H
  C271     1.0000 0.85400  0.48000  0.96830  Biso   1.000  C
  H172     1.0000 0.85390  0.44740  0.97040  Biso   1.000  H
  C272     1.0000 0.95080  0.62250  0.93020  Biso   1.000  C
  C273     1.0000 0.99860  0.62190  0.93130  Biso   1.000  C
  H173     1.0000 0.99880  0.59050  0.94200  Biso   1.000  H
  C274     1.0000 0.14500  0.71340  0.91330  Biso   1.000  C
  H174     1.0000 0.14600  0.74650  0.91090  Biso   1.000  H
  C275     1.0000 0.19160  0.71170  0.91340  Biso   1.000  C
  H175     1.0000 0.22430  0.74420  0.91090  Biso   1.000  H
  O51      1.0000 0.38697  0.76750  0.35033  Biso   1.000  O
  O52      1.0000 0.43776  0.73014  0.36023  Biso   1.000  O
  C276     1.0000 0.42997  0.76693  0.34503  Biso   1.000  C
  C277     1.0000 0.47637  0.81563  0.31903  Biso   1.000  C
  C278     1.0000 0.47667  0.86263  0.31233  Biso   1.000  C
  H176     1.0000 0.44577  0.86433  0.32113  Biso   1.000  H
  C279     1.0000 0.52207  0.90813  0.29253  Biso   1.000  C
  H177     1.0000 0.52147  0.94033  0.28833  Biso   1.000  H
  C280     1.0000 0.56717  0.90703  0.27913  Biso   1.000  C
  C281     1.0000 0.56507  0.85813  0.28113  Biso   1.000  C
  H178     1.0000 0.59457  0.85543  0.26833  Biso   1.000  H
  C282     1.0000 0.52067  0.81333  0.30163  Biso   1.000  C
  H179     1.0000 0.52057  0.78073  0.30373  Biso   1.000  H
  C283     1.0000 0.61747  0.95583  0.26353  Biso   1.000  C
  C284     1.0000 0.66527  0.95523  0.26463  Biso   1.000  C
  H180     1.0000 0.66547  0.92383  0.27533  Biso   1.000  H
  C285     1.0000 0.81167  0.04673  0.24663  Biso   1.000  C
  H181     1.0000 0.81267  0.07983  0.24423  Biso   1.000  H
  C286     1.0000 0.85827  0.04503  0.24673  Biso   1.000  C
  H182     1.0000 0.89097  0.07753  0.24423  Biso   1.000  H
  O53      1.0000 0.05363  0.10084  0.68367  Biso   1.000  O
  O54      1.0000 0.10442  0.06348  0.69357  Biso   1.000  O
  C287     1.0000 0.09663  0.10027  0.67837  Biso   1.000  C
  C288     1.0000 0.14303  0.14897  0.65237  Biso   1.000  C
  C289     1.0000 0.14333  0.19597  0.64567  Biso   1.000  C
  H183     1.0000 0.11243  0.19767  0.65447  Biso   1.000  H
  C290     1.0000 0.18873  0.24147  0.62587  Biso   1.000  C
  H184     1.0000 0.18813  0.27367  0.62167  Biso   1.000  H
  C291     1.0000 0.23383  0.24037  0.61247  Biso   1.000  C
  C292     1.0000 0.23173  0.19147  0.61447  Biso   1.000  C
  H185     1.0000 0.26123  0.18877  0.60167  Biso   1.000  H
  C293     1.0000 0.18733  0.14667  0.63497  Biso   1.000  C
  H186     1.0000 0.18723  0.11407  0.63707  Biso   1.000  H
  C294     1.0000 0.28413  0.28917  0.59687  Biso   1.000  C
  C295     1.0000 0.33193  0.28857  0.59797  Biso   1.000  C
  H187     1.0000 0.33213  0.25717  0.60867  Biso   1.000  H
  C296     1.0000 0.47833  0.38007  0.57997  Biso   1.000  C
  H188     1.0000 0.47933  0.41317  0.57757  Biso   1.000  H
  C297     1.0000 0.52493  0.37837  0.58007  Biso   1.000  C
  H189     1.0000 0.55763  0.41087  0.57757  Biso   1.000  H
  O55      1.0000 0.28613  0.56583  0.48300  Biso   1.000  O
  O56      1.0000 0.37428  0.60319  0.47310  Biso   1.000  O
  C298     1.0000 0.32970  0.56640  0.48830  Biso   1.000  C
  C299     1.0000 0.32740  0.51770  0.51430  Biso   1.000  C
  C300     1.0000 0.28070  0.47070  0.52100  Biso   1.000  C
  H190     1.0000 0.24810  0.46900  0.51220  Biso   1.000  H
  C301     1.0000 0.28060  0.42520  0.54080  Biso   1.000  C
  H191     1.0000 0.24780  0.39300  0.54500  Biso   1.000  H
  C302     1.0000 0.32680  0.42630  0.55420  Biso   1.000  C
  C303     1.0000 0.37360  0.47520  0.55220  Biso   1.000  C
  H192     1.0000 0.40580  0.47790  0.56500  Biso   1.000  H
  C304     1.0000 0.37400  0.52000  0.53170  Biso   1.000  C
  H193     1.0000 0.40650  0.55260  0.52960  Biso   1.000  H
  C305     1.0000 0.32830  0.37750  0.56980  Biso   1.000  C
  C306     1.0000 0.37670  0.37810  0.56870  Biso   1.000  C
  H194     1.0000 0.40830  0.40950  0.55800  Biso   1.000  H
  C307     1.0000 0.43160  0.28660  0.58670  Biso   1.000  C
  H195     1.0000 0.39950  0.25350  0.58910  Biso   1.000  H
  C308     1.0000 0.47990  0.28830  0.58660  Biso   1.000  C
  H196     1.0000 0.48010  0.25580  0.58910  Biso   1.000  H
  O57      1.0000 0.95280  0.89916  0.81633  Biso   1.000  O
  O58      1.0000 0.04095  0.93652  0.80643  Biso   1.000  O
  C309     1.0000 0.99637  0.89973  0.82163  Biso   1.000  C
  C310     1.0000 0.99407  0.85103  0.84763  Biso   1.000  C
  C311     1.0000 0.94737  0.80403  0.85433  Biso   1.000  C
  H197     1.0000 0.91477  0.80233  0.84553  Biso   1.000  H
  C312     1.0000 0.94727  0.75853  0.87413  Biso   1.000  C
  H198     1.0000 0.91447  0.72633  0.87833  Biso   1.000  H
  C313     1.0000 0.99347  0.75963  0.88753  Biso   1.000  C
  C314     1.0000 0.04027  0.80853  0.88553  Biso   1.000  C
  H199     1.0000 0.07247  0.81123  0.89833  Biso   1.000  H
  C315     1.0000 0.04067  0.85333  0.86503  Biso   1.000  C
  H200     1.0000 0.07317  0.88593  0.86293  Biso   1.000  H
  C316     1.0000 0.99497  0.71083  0.90313  Biso   1.000  C
  C317     1.0000 0.04337  0.71143  0.90203  Biso   1.000  C
  H201     1.0000 0.07497  0.74283  0.89133  Biso   1.000  H
  C318     1.0000 0.09827  0.61993  0.92003  Biso   1.000  C
  H202     1.0000 0.06617  0.58683  0.92243  Biso   1.000  H
  C319     1.0000 0.14657  0.62163  0.91993  Biso   1.000  C
  H203     1.0000 0.14677  0.58913  0.92243  Biso   1.000  H
  O59      1.0000 0.61946  0.23250  0.14967  Biso   1.000  O
  O60      1.0000 0.70761  0.26986  0.13977  Biso   1.000  O
  C320     1.0000 0.66303  0.23307  0.15497  Biso   1.000  C
  C321     1.0000 0.66073  0.18437  0.18097  Biso   1.000  C
  C322     1.0000 0.61403  0.13737  0.18767  Biso   1.000  C
  H204     1.0000 0.58143  0.13567  0.17887  Biso   1.000  H
  C323     1.0000 0.61393  0.09187  0.20747  Biso   1.000  C
  H205     1.0000 0.58113  0.05967  0.21167  Biso   1.000  H
  C324     1.0000 0.66013  0.09297  0.22087  Biso   1.000  C
  C325     1.0000 0.70693  0.14187  0.21887  Biso   1.000  C
  H206     1.0000 0.73913  0.14457  0.23167  Biso   1.000  H
  C326     1.0000 0.70733  0.18667  0.19837  Biso   1.000  C
  H207     1.0000 0.73983  0.21927  0.19627  Biso   1.000  H
  C327     1.0000 0.66163  0.04417  0.23647  Biso   1.000  C
  C328     1.0000 0.71003  0.04477  0.23537  Biso   1.000  C
  H208     1.0000 0.74163  0.07617  0.22467  Biso   1.000  H
  C329     1.0000 0.76493  0.95327  0.25337  Biso   1.000  C
  H209     1.0000 0.73283  0.92017  0.25577  Biso   1.000  H
  C330     1.0000 0.81323  0.95497  0.25327  Biso   1.000  C
  H210     1.0000 0.81343  0.92247  0.25577  Biso   1.000  H
  O61      1.0000 0.27970  0.71387  0.48300  Biso   1.000  O
  O62      1.0000 0.22891  0.62572  0.47310  Biso   1.000  O
  C331     1.0000 0.23670  0.67030  0.48830  Biso   1.000  C
  C332     1.0000 0.19030  0.67260  0.51430  Biso   1.000  C
  C333     1.0000 0.19000  0.71930  0.52100  Biso   1.000  C
  H211     1.0000 0.22090  0.75190  0.51220  Biso   1.000  H
  C334     1.0000 0.14460  0.71940  0.54080  Biso   1.000  C
  H212     1.0000 0.14520  0.75220  0.54500  Biso   1.000  H
  C335     1.0000 0.09950  0.67320  0.55420  Biso   1.000  C
  C336     1.0000 0.10160  0.62640  0.55220  Biso   1.000  C
  H213     1.0000 0.07210  0.59420  0.56500  Biso   1.000  H
  C337     1.0000 0.14600  0.62600  0.53170  Biso   1.000  C
  H214     1.0000 0.14610  0.59350  0.52960  Biso   1.000  H
  C338     1.0000 0.04920  0.67170  0.56980  Biso   1.000  C
  C339     1.0000 0.00140  0.62330  0.56870  Biso   1.000  C
  H215     1.0000 0.00120  0.59170  0.55800  Biso   1.000  H
  C340     1.0000 0.85500  0.56840  0.58670  Biso   1.000  C
  H216     1.0000 0.85400  0.60050  0.58910  Biso   1.000  H
  C341     1.0000 0.80840  0.52010  0.58660  Biso   1.000  C
  H217     1.0000 0.77570  0.51990  0.58910  Biso   1.000  H
  O63      1.0000 0.94637  0.04720  0.81633  Biso   1.000  O
  O64      1.0000 0.89558  0.95905  0.80643  Biso   1.000  O
  C342     1.0000 0.90337  0.00363  0.82163  Biso   1.000  C
  C343     1.0000 0.85697  0.00593  0.84763  Biso   1.000  C
  C344     1.0000 0.85667  0.05263  0.85433  Biso   1.000  C
  H218     1.0000 0.88757  0.08523  0.84553  Biso   1.000  H
  C345     1.0000 0.81127  0.05273  0.87413  Biso   1.000  C
  H219     1.0000 0.81187  0.08553  0.87833  Biso   1.000  H
  C346     1.0000 0.76617  0.00653  0.88753  Biso   1.000  C
  C347     1.0000 0.76827  0.95973  0.88553  Biso   1.000  C
  H220     1.0000 0.73877  0.92753  0.89833  Biso   1.000  H
  C348     1.0000 0.81267  0.95933  0.86503  Biso   1.000  C
  H221     1.0000 0.81277  0.92683  0.86293  Biso   1.000  H
  C349     1.0000 0.71587  0.00503  0.90313  Biso   1.000  C
  C350     1.0000 0.66807  0.95663  0.90203  Biso   1.000  C
  H222     1.0000 0.66787  0.92503  0.89133  Biso   1.000  H
  C351     1.0000 0.52167  0.90173  0.92003  Biso   1.000  C
  H223     1.0000 0.52067  0.93383  0.92243  Biso   1.000  H
  C352     1.0000 0.47507  0.85343  0.91993  Biso   1.000  C
  H224     1.0000 0.44237  0.85323  0.92243  Biso   1.000  H
  O65      1.0000 0.61303  0.38054  0.14967  Biso   1.000  O
  O66      1.0000 0.56224  0.29239  0.13977  Biso   1.000  O
  C353     1.0000 0.57003  0.33697  0.15497  Biso   1.000  C
  C354     1.0000 0.52363  0.33927  0.18097  Biso   1.000  C
  C355     1.0000 0.52333  0.38597  0.18767  Biso   1.000  C
  H225     1.0000 0.55423  0.41857  0.17887  Biso   1.000  H
  C356     1.0000 0.47793  0.38607  0.20747  Biso   1.000  C
  H226     1.0000 0.47853  0.41887  0.21167  Biso   1.000  H
  C357     1.0000 0.43283  0.33987  0.22087  Biso   1.000  C
  C358     1.0000 0.43493  0.29307  0.21887  Biso   1.000  C
  H227     1.0000 0.40543  0.26087  0.23167  Biso   1.000  H
  C359     1.0000 0.47933  0.29267  0.19837  Biso   1.000  C
  H228     1.0000 0.47943  0.26017  0.19627  Biso   1.000  H
  C360     1.0000 0.38253  0.33837  0.23647  Biso   1.000  C
  C361     1.0000 0.33473  0.28997  0.23537  Biso   1.000  C
  H229     1.0000 0.33453  0.25837  0.22467  Biso   1.000  H
  C362     1.0000 0.18833  0.23507  0.25337  Biso   1.000  C
  H230     1.0000 0.18733  0.26717  0.25577  Biso   1.000  H
  C363     1.0000 0.14173  0.18677  0.25327  Biso   1.000  C
  H231     1.0000 0.10903  0.18657  0.25577  Biso   1.000  H
  O67      1.0000 0.43417  0.72030  0.48300  Biso   1.000  O
  O68      1.0000 0.39681  0.77109  0.47310  Biso   1.000  O
  C364     1.0000 0.43360  0.76330  0.48830  Biso   1.000  C
  C365     1.0000 0.48230  0.80970  0.51430  Biso   1.000  C
  C366     1.0000 0.52930  0.81000  0.52100  Biso   1.000  C
  H232     1.0000 0.53100  0.77910  0.51220  Biso   1.000  H
  C367     1.0000 0.57480  0.85540  0.54080  Biso   1.000  C
  H233     1.0000 0.60700  0.85480  0.54500  Biso   1.000  H
  C368     1.0000 0.57370  0.90050  0.55420  Biso   1.000  C
  C369     1.0000 0.52480  0.89840  0.55220  Biso   1.000  C
  H234     1.0000 0.52210  0.92790  0.56500  Biso   1.000  H
  C370     1.0000 0.48000  0.85400  0.53170  Biso   1.000  C
  H235     1.0000 0.44740  0.85390  0.52960  Biso   1.000  H
  C371     1.0000 0.62250  0.95080  0.56980  Biso   1.000  C
  C372     1.0000 0.62190  0.99860  0.56870  Biso   1.000  C
  H236     1.0000 0.59050  0.99880  0.55800  Biso   1.000  H
  C373     1.0000 0.71340  0.14500  0.58670  Biso   1.000  C
  H237     1.0000 0.74650  0.14600  0.58910  Biso   1.000  H
  C374     1.0000 0.71170  0.19160  0.58660  Biso   1.000  C
  H238     1.0000 0.74420  0.22430  0.58910  Biso   1.000  H
  O69      1.0000 0.10084  0.05363  0.81633  Biso   1.000  O
  O70      1.0000 0.06348  0.10442  0.80643  Biso   1.000  O
  C375     1.0000 0.10027  0.09663  0.82163  Biso   1.000  C
  C376     1.0000 0.14897  0.14303  0.84763  Biso   1.000  C
  C377     1.0000 0.19597  0.14333  0.85433  Biso   1.000  C
  H239     1.0000 0.19767  0.11243  0.84553  Biso   1.000  H
  C378     1.0000 0.24147  0.18873  0.87413  Biso   1.000  C
  H240     1.0000 0.27367  0.18813  0.87833  Biso   1.000  H
  C379     1.0000 0.24037  0.23383  0.88753  Biso   1.000  C
  C380     1.0000 0.19147  0.23173  0.88553  Biso   1.000  C
  H241     1.0000 0.18877  0.26123  0.89833  Biso   1.000  H
  C381     1.0000 0.14667  0.18733  0.86503  Biso   1.000  C
  H242     1.0000 0.11407  0.18723  0.86293  Biso   1.000  H
  C382     1.0000 0.28917  0.28413  0.90313  Biso   1.000  C
  C383     1.0000 0.28857  0.33193  0.90203  Biso   1.000  C
  H243     1.0000 0.25717  0.33213  0.89133  Biso   1.000  H
  C384     1.0000 0.38007  0.47833  0.92003  Biso   1.000  C
  H244     1.0000 0.41317  0.47933  0.92243  Biso   1.000  H
  C385     1.0000 0.37837  0.52493  0.91993  Biso   1.000  C
  H245     1.0000 0.41087  0.55763  0.92243  Biso   1.000  H
  O71      1.0000 0.76750  0.38697  0.14967  Biso   1.000  O
  O72      1.0000 0.73014  0.43776  0.13977  Biso   1.000  O
  C386     1.0000 0.76693  0.42997  0.15497  Biso   1.000  C
  C387     1.0000 0.81563  0.47637  0.18097  Biso   1.000  C
  C388     1.0000 0.86263  0.47667  0.18767  Biso   1.000  C
  H246     1.0000 0.86433  0.44577  0.17887  Biso   1.000  H
  C389     1.0000 0.90813  0.52207  0.20747  Biso   1.000  C
  H247     1.0000 0.94033  0.52147  0.21167  Biso   1.000  H
  C390     1.0000 0.90703  0.56717  0.22087  Biso   1.000  C
  C391     1.0000 0.85813  0.56507  0.21887  Biso   1.000  C
  H248     1.0000 0.85543  0.59457  0.23167  Biso   1.000  H
  C392     1.0000 0.81333  0.52067  0.19837  Biso   1.000  C
  H249     1.0000 0.78073  0.52057  0.19627  Biso   1.000  H
  C393     1.0000 0.95583  0.61747  0.23647  Biso   1.000  C
  C394     1.0000 0.95523  0.66527  0.23537  Biso   1.000  C
  H250     1.0000 0.92383  0.66547  0.22467  Biso   1.000  H
  C395     1.0000 0.04673  0.81167  0.25337  Biso   1.000  C
  H251     1.0000 0.07983  0.81267  0.25577  Biso   1.000  H
  C396     1.0000 0.04503  0.85827  0.25327  Biso   1.000  C
  H252     1.0000 0.07753  0.89097  0.25577  Biso   1.000  H
  Ni1      1.0000 0.66667  0.40218  0.08333  Biso   1.000  Ni
  N1       1.0000 0.66667  0.47388  0.08333  Biso   1.000  N
  N2       1.0000 0.66667  0.71768  0.08333  Biso   1.000  N
  C397     1.0000 0.66667  0.62138  0.08333  Biso   1.000  C
  C398     1.0000 0.66667  0.56978  0.08333  Biso   1.000  C
  Ni2      1.0000 0.59782  0.26448  0.08333  Biso   1.000  Ni
  N3       1.0000 0.52612  0.19278  0.08333  Biso   1.000  N
  N4       1.0000 0.28232  0.94898  0.08333  Biso   1.000  N
  C399     1.0000 0.37862  0.04528  0.08333  Biso   1.000  C
  C400     1.0000 0.43022  0.09688  0.08333  Biso   1.000  C
  Ni3      1.0000 0.73552  0.33333  0.08333  Biso   1.000  Ni
  N5       1.0000 0.80722  0.33333  0.08333  Biso   1.000  N
  N6       1.0000 0.05102  0.33333  0.08333  Biso   1.000  N
  C401     1.0000 0.95472  0.33333  0.08333  Biso   1.000  C
  C402     1.0000 0.90312  0.33333  0.08333  Biso   1.000  C
  Ni4      1.0000 0.40218  0.66667  0.41667  Biso   1.000  Ni
  N7       1.0000 0.47388  0.66667  0.41667  Biso   1.000  N
  N8       1.0000 0.71768  0.66667  0.41667  Biso   1.000  N
  C403     1.0000 0.62138  0.66667  0.41667  Biso   1.000  C
  C404     1.0000 0.56978  0.66667  0.41667  Biso   1.000  C
  Ni5      1.0000 0.06885  0.00000  0.75000  Biso   1.000  Ni
  N9       1.0000 0.14055  0.00000  0.75000  Biso   1.000  N
  N10      1.0000 0.38435  0.00000  0.75000  Biso   1.000  N
  C405     1.0000 0.28805  0.00000  0.75000  Biso   1.000  C
  C406     1.0000 0.23645  0.00000  0.75000  Biso   1.000  C
  Ni6      1.0000 0.26448  0.59782  0.41667  Biso   1.000  Ni
  N11      1.0000 0.19278  0.52612  0.41667  Biso   1.000  N
  N12      1.0000 0.94898  0.28232  0.41667  Biso   1.000  N
  C407     1.0000 0.04528  0.37862  0.41667  Biso   1.000  C
  C408     1.0000 0.09688  0.43022  0.41667  Biso   1.000  C
  Ni7      1.0000 0.93115  0.93115  0.75000  Biso   1.000  Ni
  N13      1.0000 0.85945  0.85945  0.75000  Biso   1.000  N
  N14      1.0000 0.61565  0.61565  0.75000  Biso   1.000  N
  C409     1.0000 0.71195  0.71195  0.75000  Biso   1.000  C
  C410     1.0000 0.76355  0.76355  0.75000  Biso   1.000  C
  Ni8      1.0000 0.33333  0.73552  0.41667  Biso   1.000  Ni
  N15      1.0000 0.33333  0.80722  0.41667  Biso   1.000  N
  N16      1.0000 0.33333  0.05102  0.41667  Biso   1.000  N
  C411     1.0000 0.33333  0.95472  0.41667  Biso   1.000  C
  C412     1.0000 0.33333  0.90312  0.41667  Biso   1.000  C
  Ni9      1.0000 0.00000  0.06885  0.75000  Biso   1.000  Ni
  N17      1.0000 0.00000  0.14055  0.75000  Biso   1.000  N
  N18      1.0000 0.00000  0.38435  0.75000  Biso   1.000  N
  C413     1.0000 0.00000  0.28805  0.75000  Biso   1.000  C
  C414     1.0000 0.00000  0.23645  0.75000  Biso   1.000  C
  Ni10     1.0000 0.33333  0.59782  0.91667  Biso   1.000  Ni
  N19      1.0000 0.33333  0.52612  0.91667  Biso   1.000  N
  N20      1.0000 0.33333  0.28232  0.91667  Biso   1.000  N
  C415     1.0000 0.33333  0.37862  0.91667  Biso   1.000  C
  C416     1.0000 0.33333  0.43022  0.91667  Biso   1.000  C
  Ni11     1.0000 0.00000  0.93115  0.25000  Biso   1.000  Ni
  N21      1.0000 0.00000  0.85945  0.25000  Biso   1.000  N
  N22      1.0000 0.00000  0.61565  0.25000  Biso   1.000  N
  C417     1.0000 0.00000  0.71195  0.25000  Biso   1.000  C
  C418     1.0000 0.00000  0.76355  0.25000  Biso   1.000  C
  Ni12     1.0000 0.40218  0.73552  0.91667  Biso   1.000  Ni
  N23      1.0000 0.47388  0.80722  0.91667  Biso   1.000  N
  N24      1.0000 0.71768  0.05102  0.91667  Biso   1.000  N
  C419     1.0000 0.62138  0.95472  0.91667  Biso   1.000  C
  C420     1.0000 0.56978  0.90312  0.91667  Biso   1.000  C
  Ni13     1.0000 0.06885  0.06885  0.25000  Biso   1.000  Ni
  N25      1.0000 0.14055  0.14055  0.25000  Biso   1.000  N
  N26      1.0000 0.38435  0.38435  0.25000  Biso   1.000  N
  C421     1.0000 0.28805  0.28805  0.25000  Biso   1.000  C
  C422     1.0000 0.23645  0.23645  0.25000  Biso   1.000  C
  Ni14     1.0000 0.26448  0.66667  0.91667  Biso   1.000  Ni
  N27      1.0000 0.19278  0.66667  0.91667  Biso   1.000  N
  N28      1.0000 0.94898  0.66667  0.91667  Biso   1.000  N
  C423     1.0000 0.04528  0.66667  0.91667  Biso   1.000  C
  C424     1.0000 0.09688  0.66667  0.91667  Biso   1.000  C
  Ni15     1.0000 0.93115  0.00000  0.25000  Biso   1.000  Ni
  N29      1.0000 0.85945  0.00000  0.25000  Biso   1.000  N
  N30      1.0000 0.61565  0.00000  0.25000  Biso   1.000  N
  C425     1.0000 0.71195  0.00000  0.25000  Biso   1.000  C
  C426     1.0000 0.76355  0.00000  0.25000  Biso   1.000  C
  Ni16     1.0000 0.59782  0.33333  0.58333  Biso   1.000  Ni
  N31      1.0000 0.52612  0.33333  0.58333  Biso   1.000  N
  N32      1.0000 0.28232  0.33333  0.58333  Biso   1.000  N
  C427     1.0000 0.37862  0.33333  0.58333  Biso   1.000  C
  C428     1.0000 0.43022  0.33333  0.58333  Biso   1.000  C
  Ni17     1.0000 0.73552  0.40218  0.58333  Biso   1.000  Ni
  N33      1.0000 0.80722  0.47388  0.58333  Biso   1.000  N
  N34      1.0000 0.05102  0.71768  0.58333  Biso   1.000  N
  C429     1.0000 0.95472  0.62138  0.58333  Biso   1.000  C
  C430     1.0000 0.90312  0.56978  0.58333  Biso   1.000  C
  Ni18     1.0000 0.66667  0.26448  0.58333  Biso   1.000  Ni
  N35      1.0000 0.66667  0.19278  0.58333  Biso   1.000  N
  N36      1.0000 0.66667  0.94898  0.58333  Biso   1.000  N
  C431     1.0000 0.66667  0.04528  0.58333  Biso   1.000  C
  C432     1.0000 0.66667  0.09688  0.58333  Biso   1.000  C
  O73      1.0000 0.66667  0.33333  0.08333  Biso   1.000  O
  O74      1.0000 0.00000  0.00000  0.75000  Biso   1.000  O
  O75      1.0000 0.33333  0.66667  0.41667  Biso   1.000  O
  O76      1.0000 0.33333  0.66667  0.91667  Biso   1.000  O
  O77      1.0000 0.00000  0.00000  0.25000  Biso   1.000  O
  O78      1.0000 0.66667  0.33333  0.58333  Biso   1.000  O
  H253     1.0000 0.66667  0.33333  0.12600  Biso   1.000  H
  H254     1.0000 0.33333  0.66667  0.45933  Biso   1.000  H
  H255     1.0000 0.00000  0.00000  0.79267  Biso   1.000  H
  H256     1.0000 0.33333  0.66667  0.37400  Biso   1.000  H
  H257     1.0000 0.00000  0.00000  0.70733  Biso   1.000  H
  H258     1.0000 0.66667  0.33333  0.04067  Biso   1.000  H
  H259     1.0000 0.33333  0.66667  0.87400  Biso   1.000  H
  H260     1.0000 0.00000  0.00000  0.20733  Biso   1.000  H
  H261     1.0000 0.66667  0.33333  0.54067  Biso   1.000  H
  H262     1.0000 0.66667  0.33333  0.62600  Biso   1.000  H
  H263     1.0000 0.33333  0.66667  0.95933  Biso   1.000  H
  H264     1.0000 0.00000  0.00000  0.29267  Biso   1.000  H
