data_image0
_cell_length_a       29.106
_cell_length_b       29.106
_cell_length_c       23.417
_cell_angle_alpha    90
_cell_angle_beta     90
_cell_angle_gamma    120

_symmetry_space_group_name_H-M    "P 1"
_symmetry_int_tables_number       1

loop_
  _symmetry_equiv_pos_as_xyz
  'x, y, z'

loop_
  _atom_site_label
  _atom_site_occupancy
  _atom_site_fract_x
  _atom_site_fract_y
  _atom_site_fract_z
  _atom_site_thermal_displace_type
  _atom_site_B_iso_or_equiv
  _atom_site_type_symbol
  O1       1.0000 0.43413  0.71377  0.98280  Biso   1.000  O
  O2       1.0000 0.39683  0.62573  0.97310  Biso   1.000  O
  C1       1.0000 0.43370  0.67040  0.98830  Biso   1.000  C
  C2       1.0000 0.48200  0.67260  0.01420  Biso   1.000  C
  C3       1.0000 0.52930  0.71930  0.02130  Biso   1.000  C
  H1       1.0000 0.53100  0.75200  0.01290  Biso   1.000  H
  C4       1.0000 0.57490  0.71950  0.04060  Biso   1.000  C
  H2       1.0000 0.60720  0.75220  0.04440  Biso   1.000  H
  C5       1.0000 0.57350  0.67290  0.05410  Biso   1.000  C
  C6       1.0000 0.52460  0.62650  0.05250  Biso   1.000  C
  H3       1.0000 0.52190  0.59440  0.06590  Biso   1.000  H
  C7       1.0000 0.48020  0.62600  0.03190  Biso   1.000  C
  H4       1.0000 0.44770  0.59330  0.02980  Biso   1.000  H
  C8       1.0000 0.62260  0.67170  0.06960  Biso   1.000  C
  C9       1.0000 0.62210  0.62330  0.06870  Biso   1.000  C
  H5       1.0000 0.59080  0.59170  0.05780  Biso   1.000  H
  C10      1.0000 0.71360  0.56840  0.08650  Biso   1.000  C
  H6       1.0000 0.74680  0.60050  0.08860  Biso   1.000  H
  C11      1.0000 0.71190  0.52020  0.08670  Biso   1.000  C
  H7       1.0000 0.74440  0.51990  0.08930  Biso   1.000  H
  O3       1.0000 0.10080  0.04710  0.31613  Biso   1.000  O
  O4       1.0000 0.06350  0.95906  0.30643  Biso   1.000  O
  C12      1.0000 0.10037  0.00373  0.32163  Biso   1.000  C
  C13      1.0000 0.14867  0.00593  0.34753  Biso   1.000  C
  C14      1.0000 0.19597  0.05263  0.35463  Biso   1.000  C
  H8       1.0000 0.19767  0.08533  0.34623  Biso   1.000  H
  C15      1.0000 0.24157  0.05283  0.37393  Biso   1.000  C
  H9       1.0000 0.27387  0.08553  0.37773  Biso   1.000  H
  C16      1.0000 0.24017  0.00623  0.38743  Biso   1.000  C
  C17      1.0000 0.19127  0.95983  0.38583  Biso   1.000  C
  H10      1.0000 0.18857  0.92773  0.39923  Biso   1.000  H
  C18      1.0000 0.14687  0.95933  0.36523  Biso   1.000  C
  H11      1.0000 0.11437  0.92663  0.36313  Biso   1.000  H
  C19      1.0000 0.28927  0.00503  0.40293  Biso   1.000  C
  C20      1.0000 0.28877  0.95663  0.40203  Biso   1.000  C
  H12      1.0000 0.25747  0.92503  0.39113  Biso   1.000  H
  C21      1.0000 0.38027  0.90173  0.41983  Biso   1.000  C
  H13      1.0000 0.41347  0.93383  0.42193  Biso   1.000  H
  C22      1.0000 0.37857  0.85353  0.42003  Biso   1.000  C
  H14      1.0000 0.41107  0.85323  0.42263  Biso   1.000  H
  O5       1.0000 0.76746  0.38044  0.64947  Biso   1.000  O
  O6       1.0000 0.73016  0.29240  0.63977  Biso   1.000  O
  C23      1.0000 0.76703  0.33707  0.65497  Biso   1.000  C
  C24      1.0000 0.81533  0.33927  0.68087  Biso   1.000  C
  C25      1.0000 0.86263  0.38597  0.68797  Biso   1.000  C
  H15      1.0000 0.86433  0.41867  0.67957  Biso   1.000  H
  C26      1.0000 0.90823  0.38617  0.70727  Biso   1.000  C
  H16      1.0000 0.94053  0.41887  0.71107  Biso   1.000  H
  C27      1.0000 0.90683  0.33957  0.72077  Biso   1.000  C
  C28      1.0000 0.85793  0.29317  0.71917  Biso   1.000  C
  H17      1.0000 0.85523  0.26107  0.73257  Biso   1.000  H
  C29      1.0000 0.81353  0.29267  0.69857  Biso   1.000  C
  H18      1.0000 0.78103  0.25997  0.69647  Biso   1.000  H
  C30      1.0000 0.95593  0.33837  0.73627  Biso   1.000  C
  C31      1.0000 0.95543  0.28997  0.73537  Biso   1.000  C
  H19      1.0000 0.92413  0.25837  0.72447  Biso   1.000  H
  C32      1.0000 0.04693  0.23507  0.75317  Biso   1.000  C
  H20      1.0000 0.08013  0.26717  0.75527  Biso   1.000  H
  C33      1.0000 0.04523  0.18687  0.75337  Biso   1.000  C
  H21      1.0000 0.07773  0.18657  0.75597  Biso   1.000  H
  O7       1.0000 0.28623  0.72036  0.98280  Biso   1.000  O
  O8       1.0000 0.37427  0.77110  0.97310  Biso   1.000  O
  C34      1.0000 0.32960  0.76330  0.98830  Biso   1.000  C
  C35      1.0000 0.32740  0.80940  0.01420  Biso   1.000  C
  C36      1.0000 0.28070  0.81000  0.02130  Biso   1.000  C
  H22      1.0000 0.24800  0.77900  0.01290  Biso   1.000  H
  C37      1.0000 0.28050  0.85540  0.04060  Biso   1.000  C
  H23      1.0000 0.24780  0.85500  0.04440  Biso   1.000  H
  C38      1.0000 0.32710  0.90060  0.05410  Biso   1.000  C
  C39      1.0000 0.37350  0.89810  0.05250  Biso   1.000  C
  H24      1.0000 0.40560  0.92750  0.06590  Biso   1.000  H
  C40      1.0000 0.37400  0.85420  0.03190  Biso   1.000  C
  H25      1.0000 0.40670  0.85440  0.02980  Biso   1.000  H
  C41      1.0000 0.32830  0.95090  0.06960  Biso   1.000  C
  C42      1.0000 0.37670  0.99880  0.06870  Biso   1.000  C
  H26      1.0000 0.40830  0.99910  0.05780  Biso   1.000  H
  C43      1.0000 0.43160  0.14520  0.08650  Biso   1.000  C
  H27      1.0000 0.39950  0.14630  0.08860  Biso   1.000  H
  C44      1.0000 0.47980  0.19170  0.08670  Biso   1.000  C
  H28      1.0000 0.48010  0.22450  0.08930  Biso   1.000  H
  O9       1.0000 0.95290  0.05369  0.31613  Biso   1.000  O
  O10      1.0000 0.04094  0.10443  0.30643  Biso   1.000  O
  C45      1.0000 0.99627  0.09663  0.32163  Biso   1.000  C
  C46      1.0000 0.99407  0.14273  0.34753  Biso   1.000  C
  C47      1.0000 0.94737  0.14333  0.35463  Biso   1.000  C
  H29      1.0000 0.91467  0.11233  0.34623  Biso   1.000  H
  C48      1.0000 0.94717  0.18873  0.37393  Biso   1.000  C
  H30      1.0000 0.91447  0.18833  0.37773  Biso   1.000  H
  C49      1.0000 0.99377  0.23393  0.38743  Biso   1.000  C
  C50      1.0000 0.04017  0.23143  0.38583  Biso   1.000  C
  H31      1.0000 0.07227  0.26083  0.39923  Biso   1.000  H
  C51      1.0000 0.04067  0.18753  0.36523  Biso   1.000  C
  H32      1.0000 0.07337  0.18773  0.36313  Biso   1.000  H
  C52      1.0000 0.99497  0.28423  0.40293  Biso   1.000  C
  C53      1.0000 0.04337  0.33213  0.40203  Biso   1.000  C
  H33      1.0000 0.07497  0.33243  0.39113  Biso   1.000  H
  C54      1.0000 0.09827  0.47853  0.41983  Biso   1.000  C
  H34      1.0000 0.06617  0.47963  0.42193  Biso   1.000  H
  C55      1.0000 0.14647  0.52503  0.42003  Biso   1.000  C
  H35      1.0000 0.14677  0.55783  0.42263  Biso   1.000  H
  O11      1.0000 0.61956  0.38703  0.64947  Biso   1.000  O
  O12      1.0000 0.70760  0.43777  0.63977  Biso   1.000  O
  C56      1.0000 0.66293  0.42997  0.65497  Biso   1.000  C
  C57      1.0000 0.66073  0.47607  0.68087  Biso   1.000  C
  C58      1.0000 0.61403  0.47667  0.68797  Biso   1.000  C
  H36      1.0000 0.58133  0.44567  0.67957  Biso   1.000  H
  C59      1.0000 0.61383  0.52207  0.70727  Biso   1.000  C
  H37      1.0000 0.58113  0.52167  0.71107  Biso   1.000  H
  C60      1.0000 0.66043  0.56727  0.72077  Biso   1.000  C
  C61      1.0000 0.70683  0.56477  0.71917  Biso   1.000  C
  H38      1.0000 0.73893  0.59417  0.73257  Biso   1.000  H
  C62      1.0000 0.70733  0.52087  0.69857  Biso   1.000  C
  H39      1.0000 0.74003  0.52107  0.69647  Biso   1.000  H
  C63      1.0000 0.66163  0.61757  0.73627  Biso   1.000  C
  C64      1.0000 0.71003  0.66547  0.73537  Biso   1.000  C
  H40      1.0000 0.74163  0.66577  0.72447  Biso   1.000  H
  C65      1.0000 0.76493  0.81187  0.75317  Biso   1.000  C
  H41      1.0000 0.73283  0.81297  0.75527  Biso   1.000  H
  C66      1.0000 0.81313  0.85837  0.75337  Biso   1.000  C
  H42      1.0000 0.81343  0.89117  0.75597  Biso   1.000  H
  O13      1.0000 0.27964  0.56587  0.98280  Biso   1.000  O
  O14      1.0000 0.22890  0.60317  0.97310  Biso   1.000  O
  C67      1.0000 0.23670  0.56630  0.98830  Biso   1.000  C
  C68      1.0000 0.19060  0.51800  0.01420  Biso   1.000  C
  C69      1.0000 0.19000  0.47070  0.02130  Biso   1.000  C
  H43      1.0000 0.22100  0.46900  0.01290  Biso   1.000  H
  C70      1.0000 0.14460  0.42510  0.04060  Biso   1.000  C
  H44      1.0000 0.14500  0.39280  0.04440  Biso   1.000  H
  C71      1.0000 0.09940  0.42650  0.05410  Biso   1.000  C
  C72      1.0000 0.10190  0.47540  0.05250  Biso   1.000  C
  H45      1.0000 0.07250  0.47810  0.06590  Biso   1.000  H
  C73      1.0000 0.14580  0.51980  0.03190  Biso   1.000  C
  H46      1.0000 0.14560  0.55230  0.02980  Biso   1.000  H
  C74      1.0000 0.04910  0.37740  0.06960  Biso   1.000  C
  C75      1.0000 0.00120  0.37790  0.06870  Biso   1.000  C
  H47      1.0000 0.00090  0.40920  0.05780  Biso   1.000  H
  C76      1.0000 0.85480  0.28640  0.08650  Biso   1.000  C
  H48      1.0000 0.85370  0.25320  0.08860  Biso   1.000  H
  C77      1.0000 0.80830  0.28810  0.08670  Biso   1.000  C
  H49      1.0000 0.77550  0.25560  0.08930  Biso   1.000  H
  O15      1.0000 0.94631  0.89920  0.31613  Biso   1.000  O
  O16      1.0000 0.89557  0.93650  0.30643  Biso   1.000  O
  C78      1.0000 0.90337  0.89963  0.32163  Biso   1.000  C
  C79      1.0000 0.85727  0.85133  0.34753  Biso   1.000  C
  C80      1.0000 0.85667  0.80403  0.35463  Biso   1.000  C
  H50      1.0000 0.88767  0.80233  0.34623  Biso   1.000  H
  C81      1.0000 0.81127  0.75843  0.37393  Biso   1.000  C
  H51      1.0000 0.81167  0.72613  0.37773  Biso   1.000  H
  C82      1.0000 0.76607  0.75983  0.38743  Biso   1.000  C
  C83      1.0000 0.76857  0.80873  0.38583  Biso   1.000  C
  H52      1.0000 0.73917  0.81143  0.39923  Biso   1.000  H
  C84      1.0000 0.81247  0.85313  0.36523  Biso   1.000  C
  H53      1.0000 0.81227  0.88563  0.36313  Biso   1.000  H
  C85      1.0000 0.71577  0.71073  0.40293  Biso   1.000  C
  C86      1.0000 0.66787  0.71123  0.40203  Biso   1.000  C
  H54      1.0000 0.66757  0.74253  0.39113  Biso   1.000  H
  C87      1.0000 0.52147  0.61973  0.41983  Biso   1.000  C
  H55      1.0000 0.52037  0.58653  0.42193  Biso   1.000  H
  C88      1.0000 0.47497  0.62143  0.42003  Biso   1.000  C
  H56      1.0000 0.44217  0.58893  0.42263  Biso   1.000  H
  O17      1.0000 0.61297  0.23254  0.64947  Biso   1.000  O
  O18      1.0000 0.56223  0.26984  0.63977  Biso   1.000  O
  C89      1.0000 0.57003  0.23297  0.65497  Biso   1.000  C
  C90      1.0000 0.52393  0.18467  0.68087  Biso   1.000  C
  C91      1.0000 0.52333  0.13737  0.68797  Biso   1.000  C
  H57      1.0000 0.55433  0.13567  0.67957  Biso   1.000  H
  C92      1.0000 0.47793  0.09177  0.70727  Biso   1.000  C
  H58      1.0000 0.47833  0.05947  0.71107  Biso   1.000  H
  C93      1.0000 0.43273  0.09317  0.72077  Biso   1.000  C
  C94      1.0000 0.43523  0.14207  0.71917  Biso   1.000  C
  H59      1.0000 0.40583  0.14477  0.73257  Biso   1.000  H
  C95      1.0000 0.47913  0.18647  0.69857  Biso   1.000  C
  H60      1.0000 0.47893  0.21897  0.69647  Biso   1.000  H
  C96      1.0000 0.38243  0.04407  0.73627  Biso   1.000  C
  C97      1.0000 0.33453  0.04457  0.73537  Biso   1.000  C
  H61      1.0000 0.33423  0.07587  0.72447  Biso   1.000  H
  C98      1.0000 0.18813  0.95307  0.75317  Biso   1.000  C
  H62      1.0000 0.18703  0.91987  0.75527  Biso   1.000  H
  C99      1.0000 0.14163  0.95477  0.75337  Biso   1.000  C
  H63      1.0000 0.10883  0.92227  0.75597  Biso   1.000  H
  O19      1.0000 0.71377  0.43413  0.51720  Biso   1.000  O
  O20      1.0000 0.62573  0.39683  0.52690  Biso   1.000  O
  C100     1.0000 0.67040  0.43370  0.51170  Biso   1.000  C
  C101     1.0000 0.67260  0.48200  0.48580  Biso   1.000  C
  C102     1.0000 0.71930  0.52930  0.47870  Biso   1.000  C
  H64      1.0000 0.75200  0.53100  0.48710  Biso   1.000  H
  C103     1.0000 0.71950  0.57490  0.45940  Biso   1.000  C
  H65      1.0000 0.75220  0.60720  0.45560  Biso   1.000  H
  C104     1.0000 0.67290  0.57350  0.44590  Biso   1.000  C
  C105     1.0000 0.62650  0.52460  0.44750  Biso   1.000  C
  H66      1.0000 0.59440  0.52190  0.43410  Biso   1.000  H
  C106     1.0000 0.62600  0.48020  0.46810  Biso   1.000  C
  H67      1.0000 0.59330  0.44770  0.47020  Biso   1.000  H
  C107     1.0000 0.67170  0.62260  0.43040  Biso   1.000  C
  C108     1.0000 0.62330  0.62210  0.43130  Biso   1.000  C
  H68      1.0000 0.59170  0.59080  0.44220  Biso   1.000  H
  C109     1.0000 0.56840  0.71360  0.41350  Biso   1.000  C
  H69      1.0000 0.60050  0.74680  0.41140  Biso   1.000  H
  C110     1.0000 0.52020  0.71190  0.41330  Biso   1.000  C
  H70      1.0000 0.51990  0.74440  0.41070  Biso   1.000  H
  O21      1.0000 0.38044  0.76746  0.85053  Biso   1.000  O
  O22      1.0000 0.29240  0.73016  0.86023  Biso   1.000  O
  C111     1.0000 0.33707  0.76703  0.84503  Biso   1.000  C
  C112     1.0000 0.33927  0.81533  0.81913  Biso   1.000  C
  C113     1.0000 0.38597  0.86263  0.81203  Biso   1.000  C
  H71      1.0000 0.41867  0.86433  0.82043  Biso   1.000  H
  C114     1.0000 0.38617  0.90823  0.79273  Biso   1.000  C
  H72      1.0000 0.41887  0.94053  0.78893  Biso   1.000  H
  C115     1.0000 0.33957  0.90683  0.77923  Biso   1.000  C
  C116     1.0000 0.29317  0.85793  0.78083  Biso   1.000  C
  H73      1.0000 0.26107  0.85523  0.76743  Biso   1.000  H
  C117     1.0000 0.29267  0.81353  0.80143  Biso   1.000  C
  H74      1.0000 0.25997  0.78103  0.80353  Biso   1.000  H
  C118     1.0000 0.33837  0.95593  0.76373  Biso   1.000  C
  C119     1.0000 0.28997  0.95543  0.76463  Biso   1.000  C
  H75      1.0000 0.25837  0.92413  0.77553  Biso   1.000  H
  C120     1.0000 0.23507  0.04693  0.74683  Biso   1.000  C
  H76      1.0000 0.26717  0.08013  0.74473  Biso   1.000  H
  C121     1.0000 0.18687  0.04523  0.74663  Biso   1.000  C
  H77      1.0000 0.18657  0.07773  0.74403  Biso   1.000  H
  O23      1.0000 0.04710  0.10080  0.18387  Biso   1.000  O
  O24      1.0000 0.95906  0.06350  0.19357  Biso   1.000  O
  C122     1.0000 0.00373  0.10037  0.17837  Biso   1.000  C
  C123     1.0000 0.00593  0.14867  0.15247  Biso   1.000  C
  C124     1.0000 0.05263  0.19597  0.14537  Biso   1.000  C
  H78      1.0000 0.08533  0.19767  0.15377  Biso   1.000  H
  C125     1.0000 0.05283  0.24157  0.12607  Biso   1.000  C
  H79      1.0000 0.08553  0.27387  0.12227  Biso   1.000  H
  C126     1.0000 0.00623  0.24017  0.11257  Biso   1.000  C
  C127     1.0000 0.95983  0.19127  0.11417  Biso   1.000  C
  H80      1.0000 0.92773  0.18857  0.10077  Biso   1.000  H
  C128     1.0000 0.95933  0.14687  0.13477  Biso   1.000  C
  H81      1.0000 0.92663  0.11437  0.13687  Biso   1.000  H
  C129     1.0000 0.00503  0.28927  0.09707  Biso   1.000  C
  C130     1.0000 0.95663  0.28877  0.09797  Biso   1.000  C
  H82      1.0000 0.92503  0.25747  0.10887  Biso   1.000  H
  C131     1.0000 0.90173  0.38027  0.08017  Biso   1.000  C
  H83      1.0000 0.93383  0.41347  0.07807  Biso   1.000  H
  C132     1.0000 0.85353  0.37857  0.07997  Biso   1.000  C
  H84      1.0000 0.85323  0.41107  0.07737  Biso   1.000  H
  O25      1.0000 0.72036  0.28623  0.51720  Biso   1.000  O
  O26      1.0000 0.77110  0.37427  0.52690  Biso   1.000  O
  C133     1.0000 0.76330  0.32960  0.51170  Biso   1.000  C
  C134     1.0000 0.80940  0.32740  0.48580  Biso   1.000  C
  C135     1.0000 0.81000  0.28070  0.47870  Biso   1.000  C
  H85      1.0000 0.77900  0.24800  0.48710  Biso   1.000  H
  C136     1.0000 0.85540  0.28050  0.45940  Biso   1.000  C
  H86      1.0000 0.85500  0.24780  0.45560  Biso   1.000  H
  C137     1.0000 0.90060  0.32710  0.44590  Biso   1.000  C
  C138     1.0000 0.89810  0.37350  0.44750  Biso   1.000  C
  H87      1.0000 0.92750  0.40560  0.43410  Biso   1.000  H
  C139     1.0000 0.85420  0.37400  0.46810  Biso   1.000  C
  H88      1.0000 0.85440  0.40670  0.47020  Biso   1.000  H
  C140     1.0000 0.95090  0.32830  0.43040  Biso   1.000  C
  C141     1.0000 0.99880  0.37670  0.43130  Biso   1.000  C
  H89      1.0000 0.99910  0.40830  0.44220  Biso   1.000  H
  C142     1.0000 0.14520  0.43160  0.41350  Biso   1.000  C
  H90      1.0000 0.14630  0.39950  0.41140  Biso   1.000  H
  C143     1.0000 0.19170  0.47980  0.41330  Biso   1.000  C
  H91      1.0000 0.22450  0.48010  0.41070  Biso   1.000  H
  O27      1.0000 0.38703  0.61956  0.85053  Biso   1.000  O
  O28      1.0000 0.43777  0.70760  0.86023  Biso   1.000  O
  C144     1.0000 0.42997  0.66293  0.84503  Biso   1.000  C
  C145     1.0000 0.47607  0.66073  0.81913  Biso   1.000  C
  C146     1.0000 0.47667  0.61403  0.81203  Biso   1.000  C
  H92      1.0000 0.44567  0.58133  0.82043  Biso   1.000  H
  C147     1.0000 0.52207  0.61383  0.79273  Biso   1.000  C
  H93      1.0000 0.52167  0.58113  0.78893  Biso   1.000  H
  C148     1.0000 0.56727  0.66043  0.77923  Biso   1.000  C
  C149     1.0000 0.56477  0.70683  0.78083  Biso   1.000  C
  H94      1.0000 0.59417  0.73893  0.76743  Biso   1.000  H
  C150     1.0000 0.52087  0.70733  0.80143  Biso   1.000  C
  H95      1.0000 0.52107  0.74003  0.80353  Biso   1.000  H
  C151     1.0000 0.61757  0.66163  0.76373  Biso   1.000  C
  C152     1.0000 0.66547  0.71003  0.76463  Biso   1.000  C
  H96      1.0000 0.66577  0.74163  0.77553  Biso   1.000  H
  C153     1.0000 0.81187  0.76493  0.74683  Biso   1.000  C
  H97      1.0000 0.81297  0.73283  0.74473  Biso   1.000  H
  C154     1.0000 0.85837  0.81313  0.74663  Biso   1.000  C
  H98      1.0000 0.89117  0.81343  0.74403  Biso   1.000  H
  O29      1.0000 0.05369  0.95290  0.18387  Biso   1.000  O
  O30      1.0000 0.10443  0.04094  0.19357  Biso   1.000  O
  C155     1.0000 0.09663  0.99627  0.17837  Biso   1.000  C
  C156     1.0000 0.14273  0.99407  0.15247  Biso   1.000  C
  C157     1.0000 0.14333  0.94737  0.14537  Biso   1.000  C
  H99      1.0000 0.11233  0.91467  0.15377  Biso   1.000  H
  C158     1.0000 0.18873  0.94717  0.12607  Biso   1.000  C
  H100     1.0000 0.18833  0.91447  0.12227  Biso   1.000  H
  C159     1.0000 0.23393  0.99377  0.11257  Biso   1.000  C
  C160     1.0000 0.23143  0.04017  0.11417  Biso   1.000  C
  H101     1.0000 0.26083  0.07227  0.10077  Biso   1.000  H
  C161     1.0000 0.18753  0.04067  0.13477  Biso   1.000  C
  H102     1.0000 0.18773  0.07337  0.13687  Biso   1.000  H
  C162     1.0000 0.28423  0.99497  0.09707  Biso   1.000  C
  C163     1.0000 0.33213  0.04337  0.09797  Biso   1.000  C
  H103     1.0000 0.33243  0.07497  0.10887  Biso   1.000  H
  C164     1.0000 0.47853  0.09827  0.08017  Biso   1.000  C
  H104     1.0000 0.47963  0.06617  0.07807  Biso   1.000  H
  C165     1.0000 0.52503  0.14647  0.07997  Biso   1.000  C
  H105     1.0000 0.55783  0.14677  0.07737  Biso   1.000  H
  O31      1.0000 0.56587  0.27964  0.51720  Biso   1.000  O
  O32      1.0000 0.60317  0.22890  0.52690  Biso   1.000  O
  C166     1.0000 0.56630  0.23670  0.51170  Biso   1.000  C
  C167     1.0000 0.51800  0.19060  0.48580  Biso   1.000  C
  C168     1.0000 0.47070  0.19000  0.47870  Biso   1.000  C
  H106     1.0000 0.46900  0.22100  0.48710  Biso   1.000  H
  C169     1.0000 0.42510  0.14460  0.45940  Biso   1.000  C
  H107     1.0000 0.39280  0.14500  0.45560  Biso   1.000  H
  C170     1.0000 0.42650  0.09940  0.44590  Biso   1.000  C
  C171     1.0000 0.47540  0.10190  0.44750  Biso   1.000  C
  H108     1.0000 0.47810  0.07250  0.43410  Biso   1.000  H
  C172     1.0000 0.51980  0.14580  0.46810  Biso   1.000  C
  H109     1.0000 0.55230  0.14560  0.47020  Biso   1.000  H
  C173     1.0000 0.37740  0.04910  0.43040  Biso   1.000  C
  C174     1.0000 0.37790  0.00120  0.43130  Biso   1.000  C
  H110     1.0000 0.40920  0.00090  0.44220  Biso   1.000  H
  C175     1.0000 0.28640  0.85480  0.41350  Biso   1.000  C
  H111     1.0000 0.25320  0.85370  0.41140  Biso   1.000  H
  C176     1.0000 0.28810  0.80830  0.41330  Biso   1.000  C
  H112     1.0000 0.25560  0.77550  0.41070  Biso   1.000  H
  O33      1.0000 0.23254  0.61297  0.85053  Biso   1.000  O
  O34      1.0000 0.26984  0.56223  0.86023  Biso   1.000  O
  C177     1.0000 0.23297  0.57003  0.84503  Biso   1.000  C
  C178     1.0000 0.18467  0.52393  0.81913  Biso   1.000  C
  C179     1.0000 0.13737  0.52333  0.81203  Biso   1.000  C
  H113     1.0000 0.13567  0.55433  0.82043  Biso   1.000  H
  C180     1.0000 0.09177  0.47793  0.79273  Biso   1.000  C
  H114     1.0000 0.05947  0.47833  0.78893  Biso   1.000  H
  C181     1.0000 0.09317  0.43273  0.77923  Biso   1.000  C
  C182     1.0000 0.14207  0.43523  0.78083  Biso   1.000  C
  H115     1.0000 0.14477  0.40583  0.76743  Biso   1.000  H
  C183     1.0000 0.18647  0.47913  0.80143  Biso   1.000  C
  H116     1.0000 0.21897  0.47893  0.80353  Biso   1.000  H
  C184     1.0000 0.04407  0.38243  0.76373  Biso   1.000  C
  C185     1.0000 0.04457  0.33453  0.76463  Biso   1.000  C
  H117     1.0000 0.07587  0.33423  0.77553  Biso   1.000  H
  C186     1.0000 0.95307  0.18813  0.74683  Biso   1.000  C
  H118     1.0000 0.91987  0.18703  0.74473  Biso   1.000  H
  C187     1.0000 0.95477  0.14163  0.74663  Biso   1.000  C
  H119     1.0000 0.92227  0.10883  0.74403  Biso   1.000  H
  O35      1.0000 0.89920  0.94631  0.18387  Biso   1.000  O
  O36      1.0000 0.93650  0.89557  0.19357  Biso   1.000  O
  C188     1.0000 0.89963  0.90337  0.17837  Biso   1.000  C
  C189     1.0000 0.85133  0.85727  0.15247  Biso   1.000  C
  C190     1.0000 0.80403  0.85667  0.14537  Biso   1.000  C
  H120     1.0000 0.80233  0.88767  0.15377  Biso   1.000  H
  C191     1.0000 0.75843  0.81127  0.12607  Biso   1.000  C
  H121     1.0000 0.72613  0.81167  0.12227  Biso   1.000  H
  C192     1.0000 0.75983  0.76607  0.11257  Biso   1.000  C
  C193     1.0000 0.80873  0.76857  0.11417  Biso   1.000  C
  H122     1.0000 0.81143  0.73917  0.10077  Biso   1.000  H
  C194     1.0000 0.85313  0.81247  0.13477  Biso   1.000  C
  H123     1.0000 0.88563  0.81227  0.13687  Biso   1.000  H
  C195     1.0000 0.71073  0.71577  0.09707  Biso   1.000  C
  C196     1.0000 0.71123  0.66787  0.09797  Biso   1.000  C
  H124     1.0000 0.74253  0.66757  0.10887  Biso   1.000  H
  C197     1.0000 0.61973  0.52147  0.08017  Biso   1.000  C
  H125     1.0000 0.58653  0.52037  0.07807  Biso   1.000  H
  C198     1.0000 0.62143  0.47497  0.07997  Biso   1.000  C
  H126     1.0000 0.58893  0.44217  0.07737  Biso   1.000  H
  O37      1.0000 0.56587  0.28623  0.01720  Biso   1.000  O
  O38      1.0000 0.60317  0.37427  0.02690  Biso   1.000  O
  C199     1.0000 0.56630  0.32960  0.01170  Biso   1.000  C
  C200     1.0000 0.51800  0.32740  0.98580  Biso   1.000  C
  C201     1.0000 0.47070  0.28070  0.97870  Biso   1.000  C
  H127     1.0000 0.46900  0.24800  0.98710  Biso   1.000  H
  C202     1.0000 0.42510  0.28050  0.95940  Biso   1.000  C
  H128     1.0000 0.39280  0.24780  0.95560  Biso   1.000  H
  C203     1.0000 0.42650  0.32710  0.94590  Biso   1.000  C
  C204     1.0000 0.47540  0.37350  0.94750  Biso   1.000  C
  H129     1.0000 0.47810  0.40560  0.93410  Biso   1.000  H
  C205     1.0000 0.51980  0.37400  0.96810  Biso   1.000  C
  H130     1.0000 0.55230  0.40670  0.97020  Biso   1.000  H
  C206     1.0000 0.37740  0.32830  0.93040  Biso   1.000  C
  C207     1.0000 0.37790  0.37670  0.93130  Biso   1.000  C
  H131     1.0000 0.40920  0.40830  0.94220  Biso   1.000  H
  C208     1.0000 0.28640  0.43160  0.91350  Biso   1.000  C
  H132     1.0000 0.25320  0.39950  0.91140  Biso   1.000  H
  C209     1.0000 0.28810  0.47980  0.91330  Biso   1.000  C
  H133     1.0000 0.25560  0.48010  0.91070  Biso   1.000  H
  O39      1.0000 0.23254  0.61956  0.35053  Biso   1.000  O
  O40      1.0000 0.26984  0.70760  0.36023  Biso   1.000  O
  C210     1.0000 0.23297  0.66293  0.34503  Biso   1.000  C
  C211     1.0000 0.18467  0.66073  0.31913  Biso   1.000  C
  C212     1.0000 0.13737  0.61403  0.31203  Biso   1.000  C
  H134     1.0000 0.13567  0.58133  0.32043  Biso   1.000  H
  C213     1.0000 0.09177  0.61383  0.29273  Biso   1.000  C
  H135     1.0000 0.05947  0.58113  0.28893  Biso   1.000  H
  C214     1.0000 0.09317  0.66043  0.27923  Biso   1.000  C
  C215     1.0000 0.14207  0.70683  0.28083  Biso   1.000  C
  H136     1.0000 0.14477  0.73893  0.26743  Biso   1.000  H
  C216     1.0000 0.18647  0.70733  0.30143  Biso   1.000  C
  H137     1.0000 0.21897  0.74003  0.30353  Biso   1.000  H
  C217     1.0000 0.04407  0.66163  0.26373  Biso   1.000  C
  C218     1.0000 0.04457  0.71003  0.26463  Biso   1.000  C
  H138     1.0000 0.07587  0.74163  0.27553  Biso   1.000  H
  C219     1.0000 0.95307  0.76493  0.24683  Biso   1.000  C
  H139     1.0000 0.91987  0.73283  0.24473  Biso   1.000  H
  C220     1.0000 0.95477  0.81313  0.24663  Biso   1.000  C
  H140     1.0000 0.92227  0.81343  0.24403  Biso   1.000  H
  O41      1.0000 0.89920  0.95290  0.68387  Biso   1.000  O
  O42      1.0000 0.93650  0.04094  0.69357  Biso   1.000  O
  C221     1.0000 0.89963  0.99627  0.67837  Biso   1.000  C
  C222     1.0000 0.85133  0.99407  0.65247  Biso   1.000  C
  C223     1.0000 0.80403  0.94737  0.64537  Biso   1.000  C
  H141     1.0000 0.80233  0.91467  0.65377  Biso   1.000  H
  C224     1.0000 0.75843  0.94717  0.62607  Biso   1.000  C
  H142     1.0000 0.72613  0.91447  0.62227  Biso   1.000  H
  C225     1.0000 0.75983  0.99377  0.61257  Biso   1.000  C
  C226     1.0000 0.80873  0.04017  0.61417  Biso   1.000  C
  H143     1.0000 0.81143  0.07227  0.60077  Biso   1.000  H
  C227     1.0000 0.85313  0.04067  0.63477  Biso   1.000  C
  H144     1.0000 0.88563  0.07337  0.63687  Biso   1.000  H
  C228     1.0000 0.71073  0.99497  0.59707  Biso   1.000  C
  C229     1.0000 0.71123  0.04337  0.59797  Biso   1.000  C
  H145     1.0000 0.74253  0.07497  0.60887  Biso   1.000  H
  C230     1.0000 0.61973  0.09827  0.58017  Biso   1.000  C
  H146     1.0000 0.58653  0.06617  0.57807  Biso   1.000  H
  C231     1.0000 0.62143  0.14647  0.57997  Biso   1.000  C
  H147     1.0000 0.58893  0.14677  0.57737  Biso   1.000  H
  O43      1.0000 0.71377  0.27964  0.01720  Biso   1.000  O
  O44      1.0000 0.62573  0.22890  0.02690  Biso   1.000  O
  C232     1.0000 0.67040  0.23670  0.01170  Biso   1.000  C
  C233     1.0000 0.67260  0.19060  0.98580  Biso   1.000  C
  C234     1.0000 0.71930  0.19000  0.97870  Biso   1.000  C
  H148     1.0000 0.75200  0.22100  0.98710  Biso   1.000  H
  C235     1.0000 0.71950  0.14460  0.95940  Biso   1.000  C
  H149     1.0000 0.75220  0.14500  0.95560  Biso   1.000  H
  C236     1.0000 0.67290  0.09940  0.94590  Biso   1.000  C
  C237     1.0000 0.62650  0.10190  0.94750  Biso   1.000  C
  H150     1.0000 0.59440  0.07250  0.93410  Biso   1.000  H
  C238     1.0000 0.62600  0.14580  0.96810  Biso   1.000  C
  H151     1.0000 0.59330  0.14560  0.97020  Biso   1.000  H
  C239     1.0000 0.67170  0.04910  0.93040  Biso   1.000  C
  C240     1.0000 0.62330  0.00120  0.93130  Biso   1.000  C
  H152     1.0000 0.59170  0.00090  0.94220  Biso   1.000  H
  C241     1.0000 0.56840  0.85480  0.91350  Biso   1.000  C
  H153     1.0000 0.60050  0.85370  0.91140  Biso   1.000  H
  C242     1.0000 0.52020  0.80830  0.91330  Biso   1.000  C
  H154     1.0000 0.51990  0.77550  0.91070  Biso   1.000  H
  O45      1.0000 0.38044  0.61297  0.35053  Biso   1.000  O
  O46      1.0000 0.29240  0.56223  0.36023  Biso   1.000  O
  C243     1.0000 0.33707  0.57003  0.34503  Biso   1.000  C
  C244     1.0000 0.33927  0.52393  0.31913  Biso   1.000  C
  C245     1.0000 0.38597  0.52333  0.31203  Biso   1.000  C
  H155     1.0000 0.41867  0.55433  0.32043  Biso   1.000  H
  C246     1.0000 0.38617  0.47793  0.29273  Biso   1.000  C
  H156     1.0000 0.41887  0.47833  0.28893  Biso   1.000  H
  C247     1.0000 0.33957  0.43273  0.27923  Biso   1.000  C
  C248     1.0000 0.29317  0.43523  0.28083  Biso   1.000  C
  H157     1.0000 0.26107  0.40583  0.26743  Biso   1.000  H
  C249     1.0000 0.29267  0.47913  0.30143  Biso   1.000  C
  H158     1.0000 0.25997  0.47893  0.30353  Biso   1.000  H
  C250     1.0000 0.33837  0.38243  0.26373  Biso   1.000  C
  C251     1.0000 0.28997  0.33453  0.26463  Biso   1.000  C
  H159     1.0000 0.25837  0.33423  0.27553  Biso   1.000  H
  C252     1.0000 0.23507  0.18813  0.24683  Biso   1.000  C
  H160     1.0000 0.26717  0.18703  0.24473  Biso   1.000  H
  C253     1.0000 0.18687  0.14163  0.24663  Biso   1.000  C
  H161     1.0000 0.18657  0.10883  0.24403  Biso   1.000  H
  O47      1.0000 0.04710  0.94631  0.68387  Biso   1.000  O
  O48      1.0000 0.95906  0.89557  0.69357  Biso   1.000  O
  C254     1.0000 0.00373  0.90337  0.67837  Biso   1.000  C
  C255     1.0000 0.00593  0.85727  0.65247  Biso   1.000  C
  C256     1.0000 0.05263  0.85667  0.64537  Biso   1.000  C
  H162     1.0000 0.08533  0.88767  0.65377  Biso   1.000  H
  C257     1.0000 0.05283  0.81127  0.62607  Biso   1.000  C
  H163     1.0000 0.08553  0.81167  0.62227  Biso   1.000  H
  C258     1.0000 0.00623  0.76607  0.61257  Biso   1.000  C
  C259     1.0000 0.95983  0.76857  0.61417  Biso   1.000  C
  H164     1.0000 0.92773  0.73917  0.60077  Biso   1.000  H
  C260     1.0000 0.95933  0.81247  0.63477  Biso   1.000  C
  H165     1.0000 0.92663  0.81227  0.63687  Biso   1.000  H
  C261     1.0000 0.00503  0.71577  0.59707  Biso   1.000  C
  C262     1.0000 0.95663  0.66787  0.59797  Biso   1.000  C
  H166     1.0000 0.92503  0.66757  0.60887  Biso   1.000  H
  C263     1.0000 0.90173  0.52147  0.58017  Biso   1.000  C
  H167     1.0000 0.93383  0.52037  0.57807  Biso   1.000  H
  C264     1.0000 0.85353  0.47497  0.57997  Biso   1.000  C
  H168     1.0000 0.85323  0.44217  0.57737  Biso   1.000  H
  O49      1.0000 0.72036  0.43413  0.01720  Biso   1.000  O
  O50      1.0000 0.77110  0.39683  0.02690  Biso   1.000  O
  C265     1.0000 0.76330  0.43370  0.01170  Biso   1.000  C
  C266     1.0000 0.80940  0.48200  0.98580  Biso   1.000  C
  C267     1.0000 0.81000  0.52930  0.97870  Biso   1.000  C
  H169     1.0000 0.77900  0.53100  0.98710  Biso   1.000  H
  C268     1.0000 0.85540  0.57490  0.95940  Biso   1.000  C
  H170     1.0000 0.85500  0.60720  0.95560  Biso   1.000  H
  C269     1.0000 0.90060  0.57350  0.94590  Biso   1.000  C
  C270     1.0000 0.89810  0.52460  0.94750  Biso   1.000  C
  H171     1.0000 0.92750  0.52190  0.93410  Biso   1.000  H
  C271     1.0000 0.85420  0.48020  0.96810  Biso   1.000  C
  H172     1.0000 0.85440  0.44770  0.97020  Biso   1.000  H
  C272     1.0000 0.95090  0.62260  0.93040  Biso   1.000  C
  C273     1.0000 0.99880  0.62210  0.93130  Biso   1.000  C
  H173     1.0000 0.99910  0.59080  0.94220  Biso   1.000  H
  C274     1.0000 0.14520  0.71360  0.91350  Biso   1.000  C
  H174     1.0000 0.14630  0.74680  0.91140  Biso   1.000  H
  C275     1.0000 0.19170  0.71190  0.91330  Biso   1.000  C
  H175     1.0000 0.22450  0.74440  0.91070  Biso   1.000  H
  O51      1.0000 0.38703  0.76746  0.35053  Biso   1.000  O
  O52      1.0000 0.43777  0.73016  0.36023  Biso   1.000  O
  C276     1.0000 0.42997  0.76703  0.34503  Biso   1.000  C
  C277     1.0000 0.47607  0.81533  0.31913  Biso   1.000  C
  C278     1.0000 0.47667  0.86263  0.31203  Biso   1.000  C
  H176     1.0000 0.44567  0.86433  0.32043  Biso   1.000  H
  C279     1.0000 0.52207  0.90823  0.29273  Biso   1.000  C
  H177     1.0000 0.52167  0.94053  0.28893  Biso   1.000  H
  C280     1.0000 0.56727  0.90683  0.27923  Biso   1.000  C
  C281     1.0000 0.56477  0.85793  0.28083  Biso   1.000  C
  H178     1.0000 0.59417  0.85523  0.26743  Biso   1.000  H
  C282     1.0000 0.52087  0.81353  0.30143  Biso   1.000  C
  H179     1.0000 0.52107  0.78103  0.30353  Biso   1.000  H
  C283     1.0000 0.61757  0.95593  0.26373  Biso   1.000  C
  C284     1.0000 0.66547  0.95543  0.26463  Biso   1.000  C
  H180     1.0000 0.66577  0.92413  0.27553  Biso   1.000  H
  C285     1.0000 0.81187  0.04693  0.24683  Biso   1.000  C
  H181     1.0000 0.81297  0.08013  0.24473  Biso   1.000  H
  C286     1.0000 0.85837  0.04523  0.24663  Biso   1.000  C
  H182     1.0000 0.89117  0.07773  0.24403  Biso   1.000  H
  O53      1.0000 0.05369  0.10080  0.68387  Biso   1.000  O
  O54      1.0000 0.10443  0.06350  0.69357  Biso   1.000  O
  C287     1.0000 0.09663  0.10037  0.67837  Biso   1.000  C
  C288     1.0000 0.14273  0.14867  0.65247  Biso   1.000  C
  C289     1.0000 0.14333  0.19597  0.64537  Biso   1.000  C
  H183     1.0000 0.11233  0.19767  0.65377  Biso   1.000  H
  C290     1.0000 0.18873  0.24157  0.62607  Biso   1.000  C
  H184     1.0000 0.18833  0.27387  0.62227  Biso   1.000  H
  C291     1.0000 0.23393  0.24017  0.61257  Biso   1.000  C
  C292     1.0000 0.23143  0.19127  0.61417  Biso   1.000  C
  H185     1.0000 0.26083  0.18857  0.60077  Biso   1.000  H
  C293     1.0000 0.18753  0.14687  0.63477  Biso   1.000  C
  H186     1.0000 0.18773  0.11437  0.63687  Biso   1.000  H
  C294     1.0000 0.28423  0.28927  0.59707  Biso   1.000  C
  C295     1.0000 0.33213  0.28877  0.59797  Biso   1.000  C
  H187     1.0000 0.33243  0.25747  0.60887  Biso   1.000  H
  C296     1.0000 0.47853  0.38027  0.58017  Biso   1.000  C
  H188     1.0000 0.47963  0.41347  0.57807  Biso   1.000  H
  C297     1.0000 0.52503  0.37857  0.57997  Biso   1.000  C
  H189     1.0000 0.55783  0.41107  0.57737  Biso   1.000  H
  O55      1.0000 0.28623  0.56587  0.48280  Biso   1.000  O
  O56      1.0000 0.37427  0.60317  0.47310  Biso   1.000  O
  C298     1.0000 0.32960  0.56630  0.48830  Biso   1.000  C
  C299     1.0000 0.32740  0.51800  0.51420  Biso   1.000  C
  C300     1.0000 0.28070  0.47070  0.52130  Biso   1.000  C
  H190     1.0000 0.24800  0.46900  0.51290  Biso   1.000  H
  C301     1.0000 0.28050  0.42510  0.54060  Biso   1.000  C
  H191     1.0000 0.24780  0.39280  0.54440  Biso   1.000  H
  C302     1.0000 0.32710  0.42650  0.55410  Biso   1.000  C
  C303     1.0000 0.37350  0.47540  0.55250  Biso   1.000  C
  H192     1.0000 0.40560  0.47810  0.56590  Biso   1.000  H
  C304     1.0000 0.37400  0.51980  0.53190  Biso   1.000  C
  H193     1.0000 0.40670  0.55230  0.52980  Biso   1.000  H
  C305     1.0000 0.32830  0.37740  0.56960  Biso   1.000  C
  C306     1.0000 0.37670  0.37790  0.56870  Biso   1.000  C
  H194     1.0000 0.40830  0.40920  0.55780  Biso   1.000  H
  C307     1.0000 0.43160  0.28640  0.58650  Biso   1.000  C
  H195     1.0000 0.39950  0.25320  0.58860  Biso   1.000  H
  C308     1.0000 0.47980  0.28810  0.58670  Biso   1.000  C
  H196     1.0000 0.48010  0.25560  0.58930  Biso   1.000  H
  O57      1.0000 0.95290  0.89920  0.81613  Biso   1.000  O
  O58      1.0000 0.04094  0.93650  0.80643  Biso   1.000  O
  C309     1.0000 0.99627  0.89963  0.82163  Biso   1.000  C
  C310     1.0000 0.99407  0.85133  0.84753  Biso   1.000  C
  C311     1.0000 0.94737  0.80403  0.85463  Biso   1.000  C
  H197     1.0000 0.91467  0.80233  0.84623  Biso   1.000  H
  C312     1.0000 0.94717  0.75843  0.87393  Biso   1.000  C
  H198     1.0000 0.91447  0.72613  0.87773  Biso   1.000  H
  C313     1.0000 0.99377  0.75983  0.88743  Biso   1.000  C
  C314     1.0000 0.04017  0.80873  0.88583  Biso   1.000  C
  H199     1.0000 0.07227  0.81143  0.89923  Biso   1.000  H
  C315     1.0000 0.04067  0.85313  0.86523  Biso   1.000  C
  H200     1.0000 0.07337  0.88563  0.86313  Biso   1.000  H
  C316     1.0000 0.99497  0.71073  0.90293  Biso   1.000  C
  C317     1.0000 0.04337  0.71123  0.90203  Biso   1.000  C
  H201     1.0000 0.07497  0.74253  0.89113  Biso   1.000  H
  C318     1.0000 0.09827  0.61973  0.91983  Biso   1.000  C
  H202     1.0000 0.06617  0.58653  0.92193  Biso   1.000  H
  C319     1.0000 0.14647  0.62143  0.92003  Biso   1.000  C
  H203     1.0000 0.14677  0.58893  0.92263  Biso   1.000  H
  O59      1.0000 0.61956  0.23254  0.14947  Biso   1.000  O
  O60      1.0000 0.70760  0.26984  0.13977  Biso   1.000  O
  C320     1.0000 0.66293  0.23297  0.15497  Biso   1.000  C
  C321     1.0000 0.66073  0.18467  0.18087  Biso   1.000  C
  C322     1.0000 0.61403  0.13737  0.18797  Biso   1.000  C
  H204     1.0000 0.58133  0.13567  0.17957  Biso   1.000  H
  C323     1.0000 0.61383  0.09177  0.20727  Biso   1.000  C
  H205     1.0000 0.58113  0.05947  0.21107  Biso   1.000  H
  C324     1.0000 0.66043  0.09317  0.22077  Biso   1.000  C
  C325     1.0000 0.70683  0.14207  0.21917  Biso   1.000  C
  H206     1.0000 0.73893  0.14477  0.23257  Biso   1.000  H
  C326     1.0000 0.70733  0.18647  0.19857  Biso   1.000  C
  H207     1.0000 0.74003  0.21897  0.19647  Biso   1.000  H
  C327     1.0000 0.66163  0.04407  0.23627  Biso   1.000  C
  C328     1.0000 0.71003  0.04457  0.23537  Biso   1.000  C
  H208     1.0000 0.74163  0.07587  0.22447  Biso   1.000  H
  C329     1.0000 0.76493  0.95307  0.25317  Biso   1.000  C
  H209     1.0000 0.73283  0.91987  0.25527  Biso   1.000  H
  C330     1.0000 0.81313  0.95477  0.25337  Biso   1.000  C
  H210     1.0000 0.81343  0.92227  0.25597  Biso   1.000  H
  O61      1.0000 0.27964  0.71377  0.48280  Biso   1.000  O
  O62      1.0000 0.22890  0.62573  0.47310  Biso   1.000  O
  C331     1.0000 0.23670  0.67040  0.48830  Biso   1.000  C
  C332     1.0000 0.19060  0.67260  0.51420  Biso   1.000  C
  C333     1.0000 0.19000  0.71930  0.52130  Biso   1.000  C
  H211     1.0000 0.22100  0.75200  0.51290  Biso   1.000  H
  C334     1.0000 0.14460  0.71950  0.54060  Biso   1.000  C
  H212     1.0000 0.14500  0.75220  0.54440  Biso   1.000  H
  C335     1.0000 0.09940  0.67290  0.55410  Biso   1.000  C
  C336     1.0000 0.10190  0.62650  0.55250  Biso   1.000  C
  H213     1.0000 0.07250  0.59440  0.56590  Biso   1.000  H
  C337     1.0000 0.14580  0.62600  0.53190  Biso   1.000  C
  H214     1.0000 0.14560  0.59330  0.52980  Biso   1.000  H
  C338     1.0000 0.04910  0.67170  0.56960  Biso   1.000  C
  C339     1.0000 0.00120  0.62330  0.56870  Biso   1.000  C
  H215     1.0000 0.00090  0.59170  0.55780  Biso   1.000  H
  C340     1.0000 0.85480  0.56840  0.58650  Biso   1.000  C
  H216     1.0000 0.85370  0.60050  0.58860  Biso   1.000  H
  C341     1.0000 0.80830  0.52020  0.58670  Biso   1.000  C
  H217     1.0000 0.77550  0.51990  0.58930  Biso   1.000  H
  O63      1.0000 0.94631  0.04710  0.81613  Biso   1.000  O
  O64      1.0000 0.89557  0.95906  0.80643  Biso   1.000  O
  C342     1.0000 0.90337  0.00373  0.82163  Biso   1.000  C
  C343     1.0000 0.85727  0.00593  0.84753  Biso   1.000  C
  C344     1.0000 0.85667  0.05263  0.85463  Biso   1.000  C
  H218     1.0000 0.88767  0.08533  0.84623  Biso   1.000  H
  C345     1.0000 0.81127  0.05283  0.87393  Biso   1.000  C
  H219     1.0000 0.81167  0.08553  0.87773  Biso   1.000  H
  C346     1.0000 0.76607  0.00623  0.88743  Biso   1.000  C
  C347     1.0000 0.76857  0.95983  0.88583  Biso   1.000  C
  H220     1.0000 0.73917  0.92773  0.89923  Biso   1.000  H
  C348     1.0000 0.81247  0.95933  0.86523  Biso   1.000  C
  H221     1.0000 0.81227  0.92663  0.86313  Biso   1.000  H
  C349     1.0000 0.71577  0.00503  0.90293  Biso   1.000  C
  C350     1.0000 0.66787  0.95663  0.90203  Biso   1.000  C
  H222     1.0000 0.66757  0.92503  0.89113  Biso   1.000  H
  C351     1.0000 0.52147  0.90173  0.91983  Biso   1.000  C
  H223     1.0000 0.52037  0.93383  0.92193  Biso   1.000  H
  C352     1.0000 0.47497  0.85353  0.92003  Biso   1.000  C
  H224     1.0000 0.44217  0.85323  0.92263  Biso   1.000  H
  O65      1.0000 0.61297  0.38044  0.14947  Biso   1.000  O
  O66      1.0000 0.56223  0.29240  0.13977  Biso   1.000  O
  C353     1.0000 0.57003  0.33707  0.15497  Biso   1.000  C
  C354     1.0000 0.52393  0.33927  0.18087  Biso   1.000  C
  C355     1.0000 0.52333  0.38597  0.18797  Biso   1.000  C
  H225     1.0000 0.55433  0.41867  0.17957  Biso   1.000  H
  C356     1.0000 0.47793  0.38617  0.20727  Biso   1.000  C
  H226     1.0000 0.47833  0.41887  0.21107  Biso   1.000  H
  C357     1.0000 0.43273  0.33957  0.22077  Biso   1.000  C
  C358     1.0000 0.43523  0.29317  0.21917  Biso   1.000  C
  H227     1.0000 0.40583  0.26107  0.23257  Biso   1.000  H
  C359     1.0000 0.47913  0.29267  0.19857  Biso   1.000  C
  H228     1.0000 0.47893  0.25997  0.19647  Biso   1.000  H
  C360     1.0000 0.38243  0.33837  0.23627  Biso   1.000  C
  C361     1.0000 0.33453  0.28997  0.23537  Biso   1.000  C
  H229     1.0000 0.33423  0.25837  0.22447  Biso   1.000  H
  C362     1.0000 0.18813  0.23507  0.25317  Biso   1.000  C
  H230     1.0000 0.18703  0.26717  0.25527  Biso   1.000  H
  C363     1.0000 0.14163  0.18687  0.25337  Biso   1.000  C
  H231     1.0000 0.10883  0.18657  0.25597  Biso   1.000  H
  O67      1.0000 0.43413  0.72036  0.48280  Biso   1.000  O
  O68      1.0000 0.39683  0.77110  0.47310  Biso   1.000  O
  C364     1.0000 0.43370  0.76330  0.48830  Biso   1.000  C
  C365     1.0000 0.48200  0.80940  0.51420  Biso   1.000  C
  C366     1.0000 0.52930  0.81000  0.52130  Biso   1.000  C
  H232     1.0000 0.53100  0.77900  0.51290  Biso   1.000  H
  C367     1.0000 0.57490  0.85540  0.54060  Biso   1.000  C
  H233     1.0000 0.60720  0.85500  0.54440  Biso   1.000  H
  C368     1.0000 0.57350  0.90060  0.55410  Biso   1.000  C
  C369     1.0000 0.52460  0.89810  0.55250  Biso   1.000  C
  H234     1.0000 0.52190  0.92750  0.56590  Biso   1.000  H
  C370     1.0000 0.48020  0.85420  0.53190  Biso   1.000  C
  H235     1.0000 0.44770  0.85440  0.52980  Biso   1.000  H
  C371     1.0000 0.62260  0.95090  0.56960  Biso   1.000  C
  C372     1.0000 0.62210  0.99880  0.56870  Biso   1.000  C
  H236     1.0000 0.59080  0.99910  0.55780  Biso   1.000  H
  C373     1.0000 0.71360  0.14520  0.58650  Biso   1.000  C
  H237     1.0000 0.74680  0.14630  0.58860  Biso   1.000  H
  C374     1.0000 0.71190  0.19170  0.58670  Biso   1.000  C
  H238     1.0000 0.74440  0.22450  0.58930  Biso   1.000  H
  O69      1.0000 0.10080  0.05369  0.81613  Biso   1.000  O
  O70      1.0000 0.06350  0.10443  0.80643  Biso   1.000  O
  C375     1.0000 0.10037  0.09663  0.82163  Biso   1.000  C
  C376     1.0000 0.14867  0.14273  0.84753  Biso   1.000  C
  C377     1.0000 0.19597  0.14333  0.85463  Biso   1.000  C
  H239     1.0000 0.19767  0.11233  0.84623  Biso   1.000  H
  C378     1.0000 0.24157  0.18873  0.87393  Biso   1.000  C
  H240     1.0000 0.27387  0.18833  0.87773  Biso   1.000  H
  C379     1.0000 0.24017  0.23393  0.88743  Biso   1.000  C
  C380     1.0000 0.19127  0.23143  0.88583  Biso   1.000  C
  H241     1.0000 0.18857  0.26083  0.89923  Biso   1.000  H
  C381     1.0000 0.14687  0.18753  0.86523  Biso   1.000  C
  H242     1.0000 0.11437  0.18773  0.86313  Biso   1.000  H
  C382     1.0000 0.28927  0.28423  0.90293  Biso   1.000  C
  C383     1.0000 0.28877  0.33213  0.90203  Biso   1.000  C
  H243     1.0000 0.25747  0.33243  0.89113  Biso   1.000  H
  C384     1.0000 0.38027  0.47853  0.91983  Biso   1.000  C
  H244     1.0000 0.41347  0.47963  0.92193  Biso   1.000  H
  C385     1.0000 0.37857  0.52503  0.92003  Biso   1.000  C
  H245     1.0000 0.41107  0.55783  0.92263  Biso   1.000  H
  O71      1.0000 0.76746  0.38703  0.14947  Biso   1.000  O
  O72      1.0000 0.73016  0.43777  0.13977  Biso   1.000  O
  C386     1.0000 0.76703  0.42997  0.15497  Biso   1.000  C
  C387     1.0000 0.81533  0.47607  0.18087  Biso   1.000  C
  C388     1.0000 0.86263  0.47667  0.18797  Biso   1.000  C
  H246     1.0000 0.86433  0.44567  0.17957  Biso   1.000  H
  C389     1.0000 0.90823  0.52207  0.20727  Biso   1.000  C
  H247     1.0000 0.94053  0.52167  0.21107  Biso   1.000  H
  C390     1.0000 0.90683  0.56727  0.22077  Biso   1.000  C
  C391     1.0000 0.85793  0.56477  0.21917  Biso   1.000  C
  H248     1.0000 0.85523  0.59417  0.23257  Biso   1.000  H
  C392     1.0000 0.81353  0.52087  0.19857  Biso   1.000  C
  H249     1.0000 0.78103  0.52107  0.19647  Biso   1.000  H
  C393     1.0000 0.95593  0.61757  0.23627  Biso   1.000  C
  C394     1.0000 0.95543  0.66547  0.23537  Biso   1.000  C
  H250     1.0000 0.92413  0.66577  0.22447  Biso   1.000  H
  C395     1.0000 0.04693  0.81187  0.25317  Biso   1.000  C
  H251     1.0000 0.08013  0.81297  0.25527  Biso   1.000  H
  C396     1.0000 0.04523  0.85837  0.25337  Biso   1.000  C
  H252     1.0000 0.07773  0.89117  0.25597  Biso   1.000  H
  Ni1      1.0000 0.66667  0.40217  0.08333  Biso   1.000  Ni
  N1       1.0000 0.66667  0.47378  0.08333  Biso   1.000  N
  N2       1.0000 0.66667  0.71778  0.08333  Biso   1.000  N
  C397     1.0000 0.66667  0.62148  0.08333  Biso   1.000  C
  C398     1.0000 0.66667  0.57008  0.08333  Biso   1.000  C
  Ni2      1.0000 0.59783  0.26449  0.08333  Biso   1.000  Ni
  N3       1.0000 0.52622  0.19288  0.08333  Biso   1.000  N
  N4       1.0000 0.28222  0.94888  0.08333  Biso   1.000  N
  C399     1.0000 0.37852  0.04518  0.08333  Biso   1.000  C
  C400     1.0000 0.42992  0.09658  0.08333  Biso   1.000  C
  Ni3      1.0000 0.73551  0.33333  0.08333  Biso   1.000  Ni
  N5       1.0000 0.80712  0.33333  0.08333  Biso   1.000  N
  N6       1.0000 0.05112  0.33333  0.08333  Biso   1.000  N
  C401     1.0000 0.95482  0.33333  0.08333  Biso   1.000  C
  C402     1.0000 0.90342  0.33333  0.08333  Biso   1.000  C
  Ni4      1.0000 0.40217  0.66667  0.41667  Biso   1.000  Ni
  N7       1.0000 0.47378  0.66667  0.41667  Biso   1.000  N
  N8       1.0000 0.71778  0.66667  0.41667  Biso   1.000  N
  C403     1.0000 0.62148  0.66667  0.41667  Biso   1.000  C
  C404     1.0000 0.57008  0.66667  0.41667  Biso   1.000  C
  Ni5      1.0000 0.06884  0.00000  0.75000  Biso   1.000  Ni
  N9       1.0000 0.14045  0.00000  0.75000  Biso   1.000  N
  N10      1.0000 0.38445  0.00000  0.75000  Biso   1.000  N
  C405     1.0000 0.28815  0.00000  0.75000  Biso   1.000  C
  C406     1.0000 0.23675  0.00000  0.75000  Biso   1.000  C
  Ni6      1.0000 0.26449  0.59783  0.41667  Biso   1.000  Ni
  N11      1.0000 0.19288  0.52622  0.41667  Biso   1.000  N
  N12      1.0000 0.94888  0.28222  0.41667  Biso   1.000  N
  C407     1.0000 0.04518  0.37852  0.41667  Biso   1.000  C
  C408     1.0000 0.09658  0.42992  0.41667  Biso   1.000  C
  Ni7      1.0000 0.93116  0.93116  0.75000  Biso   1.000  Ni
  N13      1.0000 0.85955  0.85955  0.75000  Biso   1.000  N
  N14      1.0000 0.61555  0.61555  0.75000  Biso   1.000  N
  C409     1.0000 0.71185  0.71185  0.75000  Biso   1.000  C
  C410     1.0000 0.76325  0.76325  0.75000  Biso   1.000  C
  Ni8      1.0000 0.33333  0.73551  0.41667  Biso   1.000  Ni
  N15      1.0000 0.33333  0.80712  0.41667  Biso   1.000  N
  N16      1.0000 0.33333  0.05112  0.41667  Biso   1.000  N
  C411     1.0000 0.33333  0.95482  0.41667  Biso   1.000  C
  C412     1.0000 0.33333  0.90342  0.41667  Biso   1.000  C
  Ni9      1.0000 0.00000  0.06884  0.75000  Biso   1.000  Ni
  N17      1.0000 0.00000  0.14045  0.75000  Biso   1.000  N
  N18      1.0000 0.00000  0.38445  0.75000  Biso   1.000  N
  C413     1.0000 0.00000  0.28815  0.75000  Biso   1.000  C
  C414     1.0000 0.00000  0.23675  0.75000  Biso   1.000  C
  Ni10     1.0000 0.33333  0.59783  0.91667  Biso   1.000  Ni
  N19      1.0000 0.33333  0.52622  0.91667  Biso   1.000  N
  N20      1.0000 0.33333  0.28222  0.91667  Biso   1.000  N
  C415     1.0000 0.33333  0.37852  0.91667  Biso   1.000  C
  C416     1.0000 0.33333  0.42992  0.91667  Biso   1.000  C
  Ni11     1.0000 0.00000  0.93116  0.25000  Biso   1.000  Ni
  N21      1.0000 0.00000  0.85955  0.25000  Biso   1.000  N
  N22      1.0000 0.00000  0.61555  0.25000  Biso   1.000  N
  C417     1.0000 0.00000  0.71185  0.25000  Biso   1.000  C
  C418     1.0000 0.00000  0.76325  0.25000  Biso   1.000  C
  Ni12     1.0000 0.40217  0.73551  0.91667  Biso   1.000  Ni
  N23      1.0000 0.47378  0.80712  0.91667  Biso   1.000  N
  N24      1.0000 0.71778  0.05112  0.91667  Biso   1.000  N
  C419     1.0000 0.62148  0.95482  0.91667  Biso   1.000  C
  C420     1.0000 0.57008  0.90342  0.91667  Biso   1.000  C
  Ni13     1.0000 0.06884  0.06884  0.25000  Biso   1.000  Ni
  N25      1.0000 0.14045  0.14045  0.25000  Biso   1.000  N
  N26      1.0000 0.38445  0.38445  0.25000  Biso   1.000  N
  C421     1.0000 0.28815  0.28815  0.25000  Biso   1.000  C
  C422     1.0000 0.23675  0.23675  0.25000  Biso   1.000  C
  Ni14     1.0000 0.26449  0.66667  0.91667  Biso   1.000  Ni
  N27      1.0000 0.19288  0.66667  0.91667  Biso   1.000  N
  N28      1.0000 0.94888  0.66667  0.91667  Biso   1.000  N
  C423     1.0000 0.04518  0.66667  0.91667  Biso   1.000  C
  C424     1.0000 0.09658  0.66667  0.91667  Biso   1.000  C
  Ni15     1.0000 0.93116  0.00000  0.25000  Biso   1.000  Ni
  N29      1.0000 0.85955  0.00000  0.25000  Biso   1.000  N
  N30      1.0000 0.61555  0.00000  0.25000  Biso   1.000  N
  C425     1.0000 0.71185  0.00000  0.25000  Biso   1.000  C
  C426     1.0000 0.76325  0.00000  0.25000  Biso   1.000  C
  Ni16     1.0000 0.59783  0.33333  0.58333  Biso   1.000  Ni
  N31      1.0000 0.52622  0.33333  0.58333  Biso   1.000  N
  N32      1.0000 0.28222  0.33333  0.58333  Biso   1.000  N
  C427     1.0000 0.37852  0.33333  0.58333  Biso   1.000  C
  C428     1.0000 0.42992  0.33333  0.58333  Biso   1.000  C
  Ni17     1.0000 0.73551  0.40217  0.58333  Biso   1.000  Ni
  N33      1.0000 0.80712  0.47378  0.58333  Biso   1.000  N
  N34      1.0000 0.05112  0.71778  0.58333  Biso   1.000  N
  C429     1.0000 0.95482  0.62148  0.58333  Biso   1.000  C
  C430     1.0000 0.90342  0.57008  0.58333  Biso   1.000  C
  Ni18     1.0000 0.66667  0.26449  0.58333  Biso   1.000  Ni
  N35      1.0000 0.66667  0.19288  0.58333  Biso   1.000  N
  N36      1.0000 0.66667  0.94888  0.58333  Biso   1.000  N
  C431     1.0000 0.66667  0.04518  0.58333  Biso   1.000  C
  C432     1.0000 0.66667  0.09658  0.58333  Biso   1.000  C
  O73      1.0000 0.66667  0.33333  0.08333  Biso   1.000  O
  O74      1.0000 0.00000  0.00000  0.75000  Biso   1.000  O
  O75      1.0000 0.33333  0.66667  0.41667  Biso   1.000  O
  O76      1.0000 0.33333  0.66667  0.91667  Biso   1.000  O
  O77      1.0000 0.00000  0.00000  0.25000  Biso   1.000  O
  O78      1.0000 0.66667  0.33333  0.58333  Biso   1.000  O
  H253     1.0000 0.66667  0.33333  0.12600  Biso   1.000  H
  H254     1.0000 0.33333  0.66667  0.45933  Biso   1.000  H
  H255     1.0000 0.00000  0.00000  0.79267  Biso   1.000  H
  H256     1.0000 0.33333  0.66667  0.37400  Biso   1.000  H
  H257     1.0000 0.00000  0.00000  0.70733  Biso   1.000  H
  H258     1.0000 0.66667  0.33333  0.04067  Biso   1.000  H
  H259     1.0000 0.33333  0.66667  0.87400  Biso   1.000  H
  H260     1.0000 0.00000  0.00000  0.20733  Biso   1.000  H
  H261     1.0000 0.66667  0.33333  0.54067  Biso   1.000  H
  H262     1.0000 0.66667  0.33333  0.62600  Biso   1.000  H
  H263     1.0000 0.33333  0.66667  0.95933  Biso   1.000  H
  H264     1.0000 0.00000  0.00000  0.29267  Biso   1.000  H
