data_image0
_cell_length_a       16.7622
_cell_length_b       34.4419
_cell_length_c       18.4473
_cell_angle_alpha    90
_cell_angle_beta     90
_cell_angle_gamma    90

_symmetry_space_group_name_H-M    P 1
_symmetry_int_tables_number       1

loop_
  _symmetry_equiv_pos_as_xyz
  'x, y, z'

loop_
  _atom_site_label
  _atom_site_occupancy
  _atom_site_fract_x
  _atom_site_fract_y
  _atom_site_fract_z
  _atom_site_thermal_displace_type
  _atom_site_B_iso_or_equiv
  _atom_site_type_symbol
  Ti1      1.0000 0.34691  0.17775  0.82996  Biso   1.000  Ti
  Ti2      1.0000 0.22486  0.16174  0.67204  Biso   1.000  Ti
  Ti3      1.0000 0.65309  0.82225  0.82996  Biso   1.000  Ti
  Ti4      1.0000 0.77514  0.83826  0.67204  Biso   1.000  Ti
  Ti5      1.0000 0.84691  0.32225  0.17004  Biso   1.000  Ti
  Ti6      1.0000 0.72486  0.33826  0.32796  Biso   1.000  Ti
  Ti7      1.0000 0.15309  0.67775  0.17004  Biso   1.000  Ti
  Ti8      1.0000 0.27514  0.66174  0.32796  Biso   1.000  Ti
  Cd1      1.0000 0.37731  0.00581  0.25016  Biso   1.000  Cd
  Cd2      1.0000 0.62269  0.99419  0.25016  Biso   1.000  Cd
  Cd3      1.0000 0.87731  0.49419  0.74984  Biso   1.000  Cd
  Cd4      1.0000 0.12269  0.50581  0.74984  Biso   1.000  Cd
  Cd5      1.0000 0.50000  0.00000  0.41060  Biso   1.000  Cd
  Cd6      1.0000 0.00000  0.50000  0.58940  Biso   1.000  Cd
  H1       1.0000 0.34130  0.05260  0.00680  Biso   1.000  H
  H2       1.0000 0.45280  0.12670  0.14110  Biso   1.000  H
  H3       1.0000 0.52210  0.21720  0.14710  Biso   1.000  H
  H4       1.0000 0.53430  0.17210  0.15110  Biso   1.000  H
  H5       1.0000 0.45040  0.19010  0.16750  Biso   1.000  H
  H6       1.0000 0.57660  0.21580  0.01820  Biso   1.000  H
  H7       1.0000 0.53520  0.19000  0.95920  Biso   1.000  H
  H8       1.0000 0.58540  0.17050  0.02090  Biso   1.000  H
  H9       1.0000 0.44650  0.24720  0.05000  Biso   1.000  H
  H10      1.0000 0.37190  0.22140  0.06740  Biso   1.000  H
  H11      1.0000 0.40620  0.22270  0.98840  Biso   1.000  H
  H12      1.0000 0.37790  0.09460  0.84990  Biso   1.000  H
  H13      1.0000 0.30740  0.07100  0.88450  Biso   1.000  H
  H14      1.0000 0.23840  0.13840  0.96110  Biso   1.000  H
  H15      1.0000 0.18110  0.07920  0.94060  Biso   1.000  H
  H16      1.0000 0.13270  0.09530  0.87440  Biso   1.000  H
  H17      1.0000 0.04310  0.09310  0.97200  Biso   1.000  H
  H18      1.0000 0.10340  0.11480  0.02300  Biso   1.000  H
  H19      1.0000 0.00740  0.15820  0.98740  Biso   1.000  H
  H20      1.0000 0.02200  0.14820  0.90550  Biso   1.000  H
  H21      1.0000 0.08520  0.20790  0.93190  Biso   1.000  H
  H22      1.0000 0.13420  0.18840  0.99480  Biso   1.000  H
  H23      1.0000 0.14960  0.16980  0.84630  Biso   1.000  H
  H24      1.0000 0.16420  0.24690  0.87670  Biso   1.000  H
  H25      1.0000 0.19070  0.22840  0.80320  Biso   1.000  H
  H26      1.0000 0.17900  0.30970  0.83620  Biso   1.000  H
  H27      1.0000 0.39670  0.35520  0.80270  Biso   1.000  H
  H28      1.0000 0.58220  0.26950  0.87310  Biso   1.000  H
  H29      1.0000 0.50190  0.24680  0.88300  Biso   1.000  H
  H30      1.0000 0.51370  0.28720  0.92060  Biso   1.000  H
  H31      1.0000 0.59240  0.32680  0.79840  Biso   1.000  H
  H32      1.0000 0.52740  0.34710  0.84650  Biso   1.000  H
  H33      1.0000 0.51720  0.34570  0.76200  Biso   1.000  H
  H34      1.0000 0.56310  0.26800  0.73570  Biso   1.000  H
  H35      1.0000 0.48460  0.28490  0.70190  Biso   1.000  H
  H36      1.0000 0.48230  0.24570  0.74510  Biso   1.000  H
  H37      1.0000 0.08620  0.42820  0.83440  Biso   1.000  H
  H38      1.0000 0.14720  0.36990  0.86390  Biso   1.000  H
  H39      1.0000 0.33140  0.39660  0.73370  Biso   1.000  H
  H40      1.0000 0.27040  0.45490  0.70420  Biso   1.000  H
  H41      1.0000 0.17490  0.07760  0.37380  Biso   1.000  H
  H42      1.0000 0.36040  0.05070  0.50230  Biso   1.000  H
  H43      1.0000 0.05050  0.18540  0.45200  Biso   1.000  H
  H44      1.0000 0.13900  0.18180  0.42530  Biso   1.000  H
  H45      1.0000 0.11950  0.17960  0.50830  Biso   1.000  H
  H46      1.0000 0.98230  0.12510  0.50670  Biso   1.000  H
  H47      1.0000 0.05420  0.12020  0.56030  Biso   1.000  H
  H48      1.0000 0.02880  0.08560  0.51000  Biso   1.000  H
  H49      1.0000 0.00510  0.12750  0.37010  Biso   1.000  H
  H50      1.0000 0.04810  0.08730  0.37740  Biso   1.000  H
  H51      1.0000 0.09180  0.12220  0.34000  Biso   1.000  H
  H52      1.0000 0.35950  0.15640  0.53650  Biso   1.000  H
  H53      1.0000 0.49780  0.15390  0.62940  Biso   1.000  H
  H54      1.0000 0.48200  0.12430  0.56600  Biso   1.000  H
  H55      1.0000 0.49230  0.17350  0.48170  Biso   1.000  H
  H56      1.0000 0.57070  0.17160  0.52780  Biso   1.000  H
  H57      1.0000 0.53190  0.23600  0.51250  Biso   1.000  H
  H58      1.0000 0.52880  0.22520  0.59540  Biso   1.000  H
  H59      1.0000 0.39410  0.22540  0.50180  Biso   1.000  H
  H60      1.0000 0.40870  0.25620  0.56320  Biso   1.000  H
  H61      1.0000 0.39530  0.20650  0.65340  Biso   1.000  H
  H62      1.0000 0.29010  0.24650  0.69720  Biso   1.000  H
  H63      1.0000 0.30150  0.26850  0.62350  Biso   1.000  H
  H64      1.0000 0.20850  0.31780  0.63030  Biso   1.000  H
  H65      1.0000 0.97690  0.29650  0.67050  Biso   1.000  H
  H66      1.0000 0.00020  0.21540  0.80160  Biso   1.000  H
  H67      1.0000 0.04090  0.18250  0.75600  Biso   1.000  H
  H68      1.0000 0.94930  0.18040  0.77290  Biso   1.000  H
  H69      1.0000 0.92440  0.17360  0.63950  Biso   1.000  H
  H70      1.0000 0.01610  0.17710  0.62420  Biso   1.000  H
  H71      1.0000 0.95590  0.20500  0.58500  Biso   1.000  H
  H72      1.0000 0.89940  0.25890  0.73830  Biso   1.000  H
  H73      1.0000 0.85590  0.22140  0.71090  Biso   1.000  H
  H74      1.0000 0.88280  0.25330  0.65540  Biso   1.000  H
  H75      1.0000 0.13700  0.43470  0.55620  Biso   1.000  H
  H76      1.0000 0.16970  0.37040  0.57950  Biso   1.000  H
  H77      1.0000 0.96340  0.35680  0.68740  Biso   1.000  H
  H78      1.0000 0.93070  0.42100  0.66420  Biso   1.000  H
  H79      1.0000 0.52870  0.13050  0.75520  Biso   1.000  H
  H80      1.0000 0.50350  0.12700  0.83670  Biso   1.000  H
  H81      1.0000 0.53260  0.16700  0.80590  Biso   1.000  H
  H82      1.0000 0.13050  0.07120  0.74790  Biso   1.000  H
  H83      1.0000 0.15320  0.07540  0.66590  Biso   1.000  H
  H84      1.0000 0.08290  0.09990  0.69820  Biso   1.000  H
  H85      1.0000 0.29970  0.08190  0.65410  Biso   1.000  H
  H86      1.0000 0.38150  0.08290  0.61310  Biso   1.000  H
  H87      1.0000 0.65870  0.94740  0.00680  Biso   1.000  H
  H88      1.0000 0.54720  0.87330  0.14110  Biso   1.000  H
  H89      1.0000 0.47790  0.78280  0.14710  Biso   1.000  H
  H90      1.0000 0.46570  0.82790  0.15110  Biso   1.000  H
  H91      1.0000 0.54960  0.80990  0.16750  Biso   1.000  H
  H92      1.0000 0.42340  0.78420  0.01820  Biso   1.000  H
  H93      1.0000 0.46480  0.81000  0.95920  Biso   1.000  H
  H94      1.0000 0.41460  0.82950  0.02090  Biso   1.000  H
  H95      1.0000 0.55350  0.75280  0.05000  Biso   1.000  H
  H96      1.0000 0.62810  0.77860  0.06740  Biso   1.000  H
  H97      1.0000 0.59380  0.77730  0.98840  Biso   1.000  H
  H98      1.0000 0.62210  0.90540  0.84990  Biso   1.000  H
  H99      1.0000 0.69260  0.92900  0.88450  Biso   1.000  H
  H100     1.0000 0.76160  0.86160  0.96110  Biso   1.000  H
  H101     1.0000 0.81890  0.92080  0.94060  Biso   1.000  H
  H102     1.0000 0.86730  0.90470  0.87440  Biso   1.000  H
  H103     1.0000 0.95690  0.90690  0.97200  Biso   1.000  H
  H104     1.0000 0.89660  0.88520  0.02300  Biso   1.000  H
  H105     1.0000 0.99260  0.84180  0.98740  Biso   1.000  H
  H106     1.0000 0.97800  0.85180  0.90550  Biso   1.000  H
  H107     1.0000 0.91480  0.79210  0.93190  Biso   1.000  H
  H108     1.0000 0.86580  0.81160  0.99480  Biso   1.000  H
  H109     1.0000 0.85040  0.83020  0.84630  Biso   1.000  H
  H110     1.0000 0.83580  0.75310  0.87670  Biso   1.000  H
  H111     1.0000 0.80930  0.77160  0.80320  Biso   1.000  H
  H112     1.0000 0.82100  0.69030  0.83620  Biso   1.000  H
  H113     1.0000 0.60330  0.64480  0.80270  Biso   1.000  H
  H114     1.0000 0.41780  0.73050  0.87310  Biso   1.000  H
  H115     1.0000 0.49810  0.75320  0.88300  Biso   1.000  H
  H116     1.0000 0.48630  0.71280  0.92060  Biso   1.000  H
  H117     1.0000 0.40760  0.67320  0.79840  Biso   1.000  H
  H118     1.0000 0.47260  0.65290  0.84650  Biso   1.000  H
  H119     1.0000 0.48280  0.65430  0.76200  Biso   1.000  H
  H120     1.0000 0.43690  0.73200  0.73570  Biso   1.000  H
  H121     1.0000 0.51540  0.71510  0.70190  Biso   1.000  H
  H122     1.0000 0.51770  0.75430  0.74510  Biso   1.000  H
  H123     1.0000 0.91380  0.57180  0.83440  Biso   1.000  H
  H124     1.0000 0.85280  0.63010  0.86390  Biso   1.000  H
  H125     1.0000 0.66860  0.60340  0.73370  Biso   1.000  H
  H126     1.0000 0.72960  0.54510  0.70420  Biso   1.000  H
  H127     1.0000 0.82510  0.92240  0.37380  Biso   1.000  H
  H128     1.0000 0.63960  0.94930  0.50230  Biso   1.000  H
  H129     1.0000 0.94950  0.81460  0.45200  Biso   1.000  H
  H130     1.0000 0.86100  0.81820  0.42530  Biso   1.000  H
  H131     1.0000 0.88050  0.82040  0.50830  Biso   1.000  H
  H132     1.0000 0.01770  0.87490  0.50670  Biso   1.000  H
  H133     1.0000 0.94580  0.87980  0.56030  Biso   1.000  H
  H134     1.0000 0.97120  0.91440  0.51000  Biso   1.000  H
  H135     1.0000 0.99490  0.87250  0.37010  Biso   1.000  H
  H136     1.0000 0.95190  0.91270  0.37740  Biso   1.000  H
  H137     1.0000 0.90820  0.87780  0.34000  Biso   1.000  H
  H138     1.0000 0.64050  0.84360  0.53650  Biso   1.000  H
  H139     1.0000 0.50220  0.84610  0.62940  Biso   1.000  H
  H140     1.0000 0.51800  0.87570  0.56600  Biso   1.000  H
  H141     1.0000 0.50770  0.82650  0.48170  Biso   1.000  H
  H142     1.0000 0.42930  0.82840  0.52780  Biso   1.000  H
  H143     1.0000 0.46810  0.76400  0.51250  Biso   1.000  H
  H144     1.0000 0.47120  0.77480  0.59540  Biso   1.000  H
  H145     1.0000 0.60590  0.77460  0.50180  Biso   1.000  H
  H146     1.0000 0.59130  0.74380  0.56320  Biso   1.000  H
  H147     1.0000 0.60470  0.79350  0.65340  Biso   1.000  H
  H148     1.0000 0.70990  0.75350  0.69720  Biso   1.000  H
  H149     1.0000 0.69850  0.73150  0.62350  Biso   1.000  H
  H150     1.0000 0.79150  0.68220  0.63030  Biso   1.000  H
  H151     1.0000 0.02310  0.70350  0.67050  Biso   1.000  H
  H152     1.0000 0.99980  0.78460  0.80160  Biso   1.000  H
  H153     1.0000 0.95910  0.81750  0.75600  Biso   1.000  H
  H154     1.0000 0.05070  0.81960  0.77290  Biso   1.000  H
  H155     1.0000 0.07560  0.82640  0.63950  Biso   1.000  H
  H156     1.0000 0.98390  0.82290  0.62420  Biso   1.000  H
  H157     1.0000 0.04410  0.79500  0.58500  Biso   1.000  H
  H158     1.0000 0.10060  0.74110  0.73830  Biso   1.000  H
  H159     1.0000 0.14410  0.77860  0.71090  Biso   1.000  H
  H160     1.0000 0.11720  0.74670  0.65540  Biso   1.000  H
  H161     1.0000 0.86300  0.56530  0.55620  Biso   1.000  H
  H162     1.0000 0.83030  0.62960  0.57950  Biso   1.000  H
  H163     1.0000 0.03660  0.64320  0.68740  Biso   1.000  H
  H164     1.0000 0.06930  0.57900  0.66420  Biso   1.000  H
  H165     1.0000 0.47130  0.86950  0.75520  Biso   1.000  H
  H166     1.0000 0.49650  0.87300  0.83670  Biso   1.000  H
  H167     1.0000 0.46740  0.83300  0.80590  Biso   1.000  H
  H168     1.0000 0.86950  0.92880  0.74790  Biso   1.000  H
  H169     1.0000 0.84680  0.92460  0.66590  Biso   1.000  H
  H170     1.0000 0.91710  0.90010  0.69820  Biso   1.000  H
  H171     1.0000 0.70030  0.91810  0.65410  Biso   1.000  H
  H172     1.0000 0.61850  0.91710  0.61310  Biso   1.000  H
  H173     1.0000 0.84130  0.44740  0.99320  Biso   1.000  H
  H174     1.0000 0.95280  0.37330  0.85890  Biso   1.000  H
  H175     1.0000 0.02210  0.28280  0.85290  Biso   1.000  H
  H176     1.0000 0.03430  0.32790  0.84890  Biso   1.000  H
  H177     1.0000 0.95040  0.30990  0.83250  Biso   1.000  H
  H178     1.0000 0.07660  0.28420  0.98180  Biso   1.000  H
  H179     1.0000 0.03520  0.31000  0.04080  Biso   1.000  H
  H180     1.0000 0.08540  0.32950  0.97910  Biso   1.000  H
  H181     1.0000 0.94650  0.25280  0.95000  Biso   1.000  H
  H182     1.0000 0.87190  0.27860  0.93260  Biso   1.000  H
  H183     1.0000 0.90620  0.27730  0.01160  Biso   1.000  H
  H184     1.0000 0.87790  0.40540  0.15010  Biso   1.000  H
  H185     1.0000 0.80740  0.42900  0.11550  Biso   1.000  H
  H186     1.0000 0.73840  0.36160  0.03890  Biso   1.000  H
  H187     1.0000 0.68110  0.42080  0.05940  Biso   1.000  H
  H188     1.0000 0.63270  0.40470  0.12560  Biso   1.000  H
  H189     1.0000 0.54310  0.40690  0.02800  Biso   1.000  H
  H190     1.0000 0.60340  0.38520  0.97700  Biso   1.000  H
  H191     1.0000 0.50740  0.34180  0.01260  Biso   1.000  H
  H192     1.0000 0.52200  0.35180  0.09450  Biso   1.000  H
  H193     1.0000 0.58520  0.29210  0.06810  Biso   1.000  H
  H194     1.0000 0.63420  0.31160  0.00520  Biso   1.000  H
  H195     1.0000 0.64960  0.33020  0.15370  Biso   1.000  H
  H196     1.0000 0.66420  0.25310  0.12330  Biso   1.000  H
  H197     1.0000 0.69070  0.27160  0.19680  Biso   1.000  H
  H198     1.0000 0.67900  0.19030  0.16380  Biso   1.000  H
  H199     1.0000 0.89670  0.14480  0.19730  Biso   1.000  H
  H200     1.0000 0.08220  0.23050  0.12690  Biso   1.000  H
  H201     1.0000 0.00190  0.25320  0.11700  Biso   1.000  H
  H202     1.0000 0.01370  0.21280  0.07940  Biso   1.000  H
  H203     1.0000 0.09240  0.17320  0.20160  Biso   1.000  H
  H204     1.0000 0.02740  0.15290  0.15350  Biso   1.000  H
  H205     1.0000 0.01720  0.15430  0.23800  Biso   1.000  H
  H206     1.0000 0.06310  0.23200  0.26430  Biso   1.000  H
  H207     1.0000 0.98460  0.21510  0.29810  Biso   1.000  H
  H208     1.0000 0.98230  0.25430  0.25490  Biso   1.000  H
  H209     1.0000 0.58620  0.07180  0.16560  Biso   1.000  H
  H210     1.0000 0.64720  0.13010  0.13610  Biso   1.000  H
  H211     1.0000 0.83140  0.10340  0.26630  Biso   1.000  H
  H212     1.0000 0.77040  0.04510  0.29580  Biso   1.000  H
  H213     1.0000 0.67490  0.42240  0.62620  Biso   1.000  H
  H214     1.0000 0.86040  0.44930  0.49770  Biso   1.000  H
  H215     1.0000 0.55050  0.31460  0.54800  Biso   1.000  H
  H216     1.0000 0.63900  0.31820  0.57470  Biso   1.000  H
  H217     1.0000 0.61950  0.32040  0.49170  Biso   1.000  H
  H218     1.0000 0.48230  0.37490  0.49330  Biso   1.000  H
  H219     1.0000 0.55420  0.37980  0.43970  Biso   1.000  H
  H220     1.0000 0.52880  0.41440  0.49000  Biso   1.000  H
  H221     1.0000 0.50510  0.37250  0.62990  Biso   1.000  H
  H222     1.0000 0.54810  0.41270  0.62260  Biso   1.000  H
  H223     1.0000 0.59180  0.37780  0.66000  Biso   1.000  H
  H224     1.0000 0.85950  0.34360  0.46350  Biso   1.000  H
  H225     1.0000 0.99780  0.34610  0.37060  Biso   1.000  H
  H226     1.0000 0.98200  0.37570  0.43400  Biso   1.000  H
  H227     1.0000 0.99230  0.32650  0.51830  Biso   1.000  H
  H228     1.0000 0.07070  0.32840  0.47220  Biso   1.000  H
  H229     1.0000 0.03190  0.26400  0.48750  Biso   1.000  H
  H230     1.0000 0.02880  0.27480  0.40460  Biso   1.000  H
  H231     1.0000 0.89410  0.27460  0.49820  Biso   1.000  H
  H232     1.0000 0.90870  0.24380  0.43680  Biso   1.000  H
  H233     1.0000 0.89530  0.29350  0.34660  Biso   1.000  H
  H234     1.0000 0.79010  0.25350  0.30280  Biso   1.000  H
  H235     1.0000 0.80150  0.23150  0.37650  Biso   1.000  H
  H236     1.0000 0.70850  0.18220  0.36970  Biso   1.000  H
  H237     1.0000 0.47690  0.20350  0.32950  Biso   1.000  H
  H238     1.0000 0.50020  0.28460  0.19840  Biso   1.000  H
  H239     1.0000 0.54090  0.31750  0.24400  Biso   1.000  H
  H240     1.0000 0.44930  0.31960  0.22710  Biso   1.000  H
  H241     1.0000 0.42440  0.32640  0.36050  Biso   1.000  H
  H242     1.0000 0.51610  0.32290  0.37580  Biso   1.000  H
  H243     1.0000 0.45590  0.29500  0.41500  Biso   1.000  H
  H244     1.0000 0.39940  0.24110  0.26170  Biso   1.000  H
  H245     1.0000 0.35590  0.27860  0.28910  Biso   1.000  H
  H246     1.0000 0.38280  0.24670  0.34460  Biso   1.000  H
  H247     1.0000 0.63700  0.06530  0.44380  Biso   1.000  H
  H248     1.0000 0.66970  0.12960  0.42050  Biso   1.000  H
  H249     1.0000 0.46340  0.14320  0.31260  Biso   1.000  H
  H250     1.0000 0.43070  0.07900  0.33580  Biso   1.000  H
  H251     1.0000 0.02870  0.36950  0.24480  Biso   1.000  H
  H252     1.0000 0.00350  0.37300  0.16330  Biso   1.000  H
  H253     1.0000 0.03260  0.33300  0.19410  Biso   1.000  H
  H254     1.0000 0.63050  0.42880  0.25210  Biso   1.000  H
  H255     1.0000 0.65320  0.42460  0.33410  Biso   1.000  H
  H256     1.0000 0.58290  0.40010  0.30180  Biso   1.000  H
  H257     1.0000 0.79970  0.41810  0.34590  Biso   1.000  H
  H258     1.0000 0.88150  0.41710  0.38690  Biso   1.000  H
  H259     1.0000 0.15870  0.55260  0.99320  Biso   1.000  H
  H260     1.0000 0.04720  0.62670  0.85890  Biso   1.000  H
  H261     1.0000 0.97790  0.71720  0.85290  Biso   1.000  H
  H262     1.0000 0.96570  0.67210  0.84890  Biso   1.000  H
  H263     1.0000 0.04960  0.69010  0.83250  Biso   1.000  H
  H264     1.0000 0.92340  0.71580  0.98180  Biso   1.000  H
  H265     1.0000 0.96480  0.69000  0.04080  Biso   1.000  H
  H266     1.0000 0.91460  0.67050  0.97910  Biso   1.000  H
  H267     1.0000 0.05350  0.74720  0.95000  Biso   1.000  H
  H268     1.0000 0.12810  0.72140  0.93260  Biso   1.000  H
  H269     1.0000 0.09380  0.72270  0.01160  Biso   1.000  H
  H270     1.0000 0.12210  0.59460  0.15010  Biso   1.000  H
  H271     1.0000 0.19260  0.57100  0.11550  Biso   1.000  H
  H272     1.0000 0.26160  0.63840  0.03890  Biso   1.000  H
  H273     1.0000 0.31890  0.57920  0.05940  Biso   1.000  H
  H274     1.0000 0.36730  0.59530  0.12560  Biso   1.000  H
  H275     1.0000 0.45690  0.59310  0.02800  Biso   1.000  H
  H276     1.0000 0.39660  0.61480  0.97700  Biso   1.000  H
  H277     1.0000 0.49260  0.65820  0.01260  Biso   1.000  H
  H278     1.0000 0.47800  0.64820  0.09450  Biso   1.000  H
  H279     1.0000 0.41480  0.70790  0.06810  Biso   1.000  H
  H280     1.0000 0.36580  0.68840  0.00520  Biso   1.000  H
  H281     1.0000 0.35040  0.66980  0.15370  Biso   1.000  H
  H282     1.0000 0.33580  0.74690  0.12330  Biso   1.000  H
  H283     1.0000 0.30930  0.72840  0.19680  Biso   1.000  H
  H284     1.0000 0.32100  0.80970  0.16380  Biso   1.000  H
  H285     1.0000 0.10330  0.85520  0.19730  Biso   1.000  H
  H286     1.0000 0.91780  0.76950  0.12690  Biso   1.000  H
  H287     1.0000 0.99810  0.74680  0.11700  Biso   1.000  H
  H288     1.0000 0.98630  0.78720  0.07940  Biso   1.000  H
  H289     1.0000 0.90760  0.82680  0.20160  Biso   1.000  H
  H290     1.0000 0.97260  0.84710  0.15350  Biso   1.000  H
  H291     1.0000 0.98280  0.84570  0.23800  Biso   1.000  H
  H292     1.0000 0.93690  0.76800  0.26430  Biso   1.000  H
  H293     1.0000 0.01540  0.78490  0.29810  Biso   1.000  H
  H294     1.0000 0.01770  0.74570  0.25490  Biso   1.000  H
  H295     1.0000 0.41380  0.92820  0.16560  Biso   1.000  H
  H296     1.0000 0.35280  0.86990  0.13610  Biso   1.000  H
  H297     1.0000 0.16860  0.89660  0.26630  Biso   1.000  H
  H298     1.0000 0.22960  0.95490  0.29580  Biso   1.000  H
  H299     1.0000 0.32510  0.57760  0.62620  Biso   1.000  H
  H300     1.0000 0.13960  0.55070  0.49770  Biso   1.000  H
  H301     1.0000 0.44950  0.68540  0.54800  Biso   1.000  H
  H302     1.0000 0.36100  0.68180  0.57470  Biso   1.000  H
  H303     1.0000 0.38050  0.67960  0.49170  Biso   1.000  H
  H304     1.0000 0.51770  0.62510  0.49330  Biso   1.000  H
  H305     1.0000 0.44580  0.62020  0.43970  Biso   1.000  H
  H306     1.0000 0.47120  0.58560  0.49000  Biso   1.000  H
  H307     1.0000 0.49490  0.62750  0.62990  Biso   1.000  H
  H308     1.0000 0.45190  0.58730  0.62260  Biso   1.000  H
  H309     1.0000 0.40820  0.62220  0.66000  Biso   1.000  H
  H310     1.0000 0.14050  0.65640  0.46350  Biso   1.000  H
  H311     1.0000 0.00220  0.65390  0.37060  Biso   1.000  H
  H312     1.0000 0.01800  0.62430  0.43400  Biso   1.000  H
  H313     1.0000 0.00770  0.67350  0.51830  Biso   1.000  H
  H314     1.0000 0.92930  0.67160  0.47220  Biso   1.000  H
  H315     1.0000 0.96810  0.73600  0.48750  Biso   1.000  H
  H316     1.0000 0.97120  0.72520  0.40460  Biso   1.000  H
  H317     1.0000 0.10590  0.72540  0.49820  Biso   1.000  H
  H318     1.0000 0.09130  0.75620  0.43680  Biso   1.000  H
  H319     1.0000 0.10470  0.70650  0.34660  Biso   1.000  H
  H320     1.0000 0.20990  0.74650  0.30280  Biso   1.000  H
  H321     1.0000 0.19850  0.76850  0.37650  Biso   1.000  H
  H322     1.0000 0.29150  0.81780  0.36970  Biso   1.000  H
  H323     1.0000 0.52310  0.79650  0.32950  Biso   1.000  H
  H324     1.0000 0.49980  0.71540  0.19840  Biso   1.000  H
  H325     1.0000 0.45910  0.68250  0.24400  Biso   1.000  H
  H326     1.0000 0.55070  0.68040  0.22710  Biso   1.000  H
  H327     1.0000 0.57560  0.67360  0.36050  Biso   1.000  H
  H328     1.0000 0.48390  0.67710  0.37580  Biso   1.000  H
  H329     1.0000 0.54410  0.70500  0.41500  Biso   1.000  H
  H330     1.0000 0.60060  0.75890  0.26170  Biso   1.000  H
  H331     1.0000 0.64410  0.72140  0.28910  Biso   1.000  H
  H332     1.0000 0.61720  0.75330  0.34460  Biso   1.000  H
  H333     1.0000 0.36300  0.93470  0.44380  Biso   1.000  H
  H334     1.0000 0.33030  0.87040  0.42050  Biso   1.000  H
  H335     1.0000 0.53660  0.85680  0.31260  Biso   1.000  H
  H336     1.0000 0.56930  0.92100  0.33580  Biso   1.000  H
  H337     1.0000 0.97130  0.63050  0.24480  Biso   1.000  H
  H338     1.0000 0.99650  0.62700  0.16330  Biso   1.000  H
  H339     1.0000 0.96740  0.66700  0.19410  Biso   1.000  H
  H340     1.0000 0.36950  0.57120  0.25210  Biso   1.000  H
  H341     1.0000 0.34680  0.57540  0.33410  Biso   1.000  H
  H342     1.0000 0.41710  0.59990  0.30180  Biso   1.000  H
  H343     1.0000 0.20030  0.58190  0.34590  Biso   1.000  H
  H344     1.0000 0.11850  0.58290  0.38690  Biso   1.000  H
  C1       1.0000 0.39300  0.05610  0.14170  Biso   1.000  C
  C2       1.0000 0.39660  0.08513  0.08300  Biso   1.000  C
  C3       1.0000 0.36470  0.07668  0.01530  Biso   1.000  C
  C4       1.0000 0.36770  0.10420  0.96020  Biso   1.000  C
  C5       1.0000 0.40270  0.14017  0.97300  Biso   1.000  C
  C6       1.0000 0.43450  0.14861  0.04070  Biso   1.000  C
  C7       1.0000 0.43150  0.12110  0.09570  Biso   1.000  C
  C8       1.0000 0.47510  0.18890  0.05680  Biso   1.000  C
  C9       1.0000 0.49760  0.19240  0.13850  Biso   1.000  C
  C10      1.0000 0.55010  0.19150  0.00930  Biso   1.000  C
  C11      1.0000 0.41970  0.22330  0.03890  Biso   1.000  C
  C12      1.0000 0.33440  0.09590  0.88440  Biso   1.000  C
  C13      1.0000 0.21380  0.13470  0.91340  Biso   1.000  C
  C14      1.0000 0.15410  0.10190  0.92160  Biso   1.000  C
  C15      1.0000 0.08370  0.11320  0.97360  Biso   1.000  C
  C16      1.0000 0.04790  0.15110  0.95230  Biso   1.000  C
  C17      1.0000 0.11060  0.18400  0.94750  Biso   1.000  C
  C18      1.0000 0.17450  0.17260  0.89410  Biso   1.000  C
  C19      1.0000 0.20980  0.23680  0.85030  Biso   1.000  C
  C20      1.0000 0.26750  0.26987  0.83850  Biso   1.000  C
  C21      1.0000 0.23390  0.30660  0.83170  Biso   1.000  C
  C22      1.0000 0.28230  0.33856  0.81830  Biso   1.000  C
  C23      1.0000 0.36430  0.33382  0.81160  Biso   1.000  C
  C24      1.0000 0.39790  0.29710  0.81840  Biso   1.000  C
  C25      1.0000 0.34960  0.26513  0.83180  Biso   1.000  C
  C26      1.0000 0.49080  0.29260  0.81040  Biso   1.000  C
  C27      1.0000 0.52540  0.27210  0.87820  Biso   1.000  C
  C28      1.0000 0.53630  0.33180  0.80370  Biso   1.000  C
  C29      1.0000 0.50660  0.27090  0.74220  Biso   1.000  C
  C30      1.0000 0.13540  0.42190  0.81420  Biso   1.000  C
  C31      1.0000 0.17190  0.38690  0.83190  Biso   1.000  C
  C32      1.0000 0.24540  0.37740  0.80170  Biso   1.000  C
  C33      1.0000 0.28230  0.40290  0.75390  Biso   1.000  C
  C34      1.0000 0.24570  0.43790  0.73620  Biso   1.000  C
  C35      1.0000 0.30740  0.03360  0.37100  Biso   1.000  C
  C36      1.0000 0.27220  0.05986  0.42950  Biso   1.000  C
  C37      1.0000 0.20290  0.08100  0.41690  Biso   1.000  C
  C38      1.0000 0.17550  0.10710  0.46860  Biso   1.000  C
  C39      1.0000 0.21730  0.11211  0.53300  Biso   1.000  C
  C40      1.0000 0.28660  0.09100  0.54560  Biso   1.000  C
  C41      1.0000 0.31400  0.06490  0.49390  Biso   1.000  C
  C42      1.0000 0.09100  0.12800  0.45460  Biso   1.000  C
  C43      1.0000 0.10100  0.17310  0.46060  Biso   1.000  C
  C44      1.0000 0.03370  0.11330  0.51340  Biso   1.000  C
  C45      1.0000 0.05540  0.11500  0.37780  Biso   1.000  C
  C46      1.0000 0.38300  0.16080  0.58440  Biso   1.000  C
  C47      1.0000 0.47450  0.15100  0.58150  Biso   1.000  C
  C48      1.0000 0.51430  0.17790  0.52970  Biso   1.000  C
  C49      1.0000 0.50520  0.22000  0.54840  Biso   1.000  C
  C50      1.0000 0.41640  0.22920  0.54980  Biso   1.000  C
  C51      1.0000 0.37190  0.20250  0.60530  Biso   1.000  C
  C52      1.0000 0.27040  0.24870  0.64800  Biso   1.000  C
  C53      1.0000 0.18480  0.26118  0.65000  Biso   1.000  C
  C54      1.0000 0.16780  0.30040  0.64130  Biso   1.000  C
  C55      1.0000 0.08990  0.31364  0.64890  Biso   1.000  C
  C56      1.0000 0.02900  0.28766  0.66530  Biso   1.000  C
  C57      1.0000 0.04610  0.24844  0.67410  Biso   1.000  C
  C58      1.0000 0.12400  0.23520  0.66640  Biso   1.000  C
  C59      1.0000 0.97500  0.22040  0.69140  Biso   1.000  C
  C60      1.0000 0.99310  0.19750  0.76220  Biso   1.000  C
  C61      1.0000 0.96710  0.19130  0.62930  Biso   1.000  C
  C62      1.0000 0.89620  0.24030  0.69980  Biso   1.000  C
  C63      1.0000 0.10220  0.41907  0.58250  Biso   1.000  C
  C64      1.0000 0.12180  0.38060  0.59650  Biso   1.000  C
  C65      1.0000 0.06980  0.35723  0.63580  Biso   1.000  C
  C66      1.0000 0.99820  0.37240  0.66110  Biso   1.000  C
  C67      1.0000 0.97860  0.41090  0.64720  Biso   1.000  C
  C68      1.0000 0.50370  0.14370  0.79500  Biso   1.000  C
  C69      1.0000 0.13450  0.08900  0.70800  Biso   1.000  C
  C70      1.0000 0.32960  0.09520  0.61670  Biso   1.000  C
  C71      1.0000 0.60700  0.94390  0.14170  Biso   1.000  C
  C72      1.0000 0.60340  0.91487  0.08300  Biso   1.000  C
  C73      1.0000 0.63530  0.92332  0.01530  Biso   1.000  C
  C74      1.0000 0.63230  0.89580  0.96020  Biso   1.000  C
  C75      1.0000 0.59730  0.85983  0.97300  Biso   1.000  C
  C76      1.0000 0.56550  0.85139  0.04070  Biso   1.000  C
  C77      1.0000 0.56850  0.87890  0.09570  Biso   1.000  C
  C78      1.0000 0.52490  0.81110  0.05680  Biso   1.000  C
  C79      1.0000 0.50240  0.80760  0.13850  Biso   1.000  C
  C80      1.0000 0.44990  0.80850  0.00930  Biso   1.000  C
  C81      1.0000 0.58030  0.77670  0.03890  Biso   1.000  C
  C82      1.0000 0.66560  0.90410  0.88440  Biso   1.000  C
  C83      1.0000 0.78620  0.86530  0.91340  Biso   1.000  C
  C84      1.0000 0.84590  0.89810  0.92160  Biso   1.000  C
  C85      1.0000 0.91630  0.88680  0.97360  Biso   1.000  C
  C86      1.0000 0.95210  0.84890  0.95230  Biso   1.000  C
  C87      1.0000 0.88940  0.81600  0.94750  Biso   1.000  C
  C88      1.0000 0.82550  0.82740  0.89410  Biso   1.000  C
  C89      1.0000 0.79020  0.76320  0.85030  Biso   1.000  C
  C90      1.0000 0.73250  0.73013  0.83850  Biso   1.000  C
  C91      1.0000 0.76610  0.69340  0.83170  Biso   1.000  C
  C92      1.0000 0.71770  0.66144  0.81830  Biso   1.000  C
  C93      1.0000 0.63570  0.66618  0.81160  Biso   1.000  C
  C94      1.0000 0.60210  0.70290  0.81840  Biso   1.000  C
  C95      1.0000 0.65040  0.73487  0.83180  Biso   1.000  C
  C96      1.0000 0.50920  0.70740  0.81040  Biso   1.000  C
  C97      1.0000 0.47460  0.72790  0.87820  Biso   1.000  C
  C98      1.0000 0.46370  0.66820  0.80370  Biso   1.000  C
  C99      1.0000 0.49340  0.72910  0.74220  Biso   1.000  C
  C100     1.0000 0.86460  0.57810  0.81420  Biso   1.000  C
  C101     1.0000 0.82810  0.61310  0.83190  Biso   1.000  C
  C102     1.0000 0.75460  0.62260  0.80170  Biso   1.000  C
  C103     1.0000 0.71770  0.59710  0.75390  Biso   1.000  C
  C104     1.0000 0.75430  0.56210  0.73620  Biso   1.000  C
  C105     1.0000 0.69260  0.96640  0.37100  Biso   1.000  C
  C106     1.0000 0.72780  0.94014  0.42950  Biso   1.000  C
  C107     1.0000 0.79710  0.91900  0.41690  Biso   1.000  C
  C108     1.0000 0.82450  0.89290  0.46860  Biso   1.000  C
  C109     1.0000 0.78270  0.88789  0.53300  Biso   1.000  C
  C110     1.0000 0.71340  0.90900  0.54560  Biso   1.000  C
  C111     1.0000 0.68600  0.93510  0.49390  Biso   1.000  C
  C112     1.0000 0.90900  0.87200  0.45460  Biso   1.000  C
  C113     1.0000 0.89900  0.82690  0.46060  Biso   1.000  C
  C114     1.0000 0.96630  0.88670  0.51340  Biso   1.000  C
  C115     1.0000 0.94460  0.88500  0.37780  Biso   1.000  C
  C116     1.0000 0.61700  0.83920  0.58440  Biso   1.000  C
  C117     1.0000 0.52550  0.84900  0.58150  Biso   1.000  C
  C118     1.0000 0.48570  0.82210  0.52970  Biso   1.000  C
  C119     1.0000 0.49480  0.78000  0.54840  Biso   1.000  C
  C120     1.0000 0.58360  0.77080  0.54980  Biso   1.000  C
  C121     1.0000 0.62810  0.79750  0.60530  Biso   1.000  C
  C122     1.0000 0.72960  0.75130  0.64800  Biso   1.000  C
  C123     1.0000 0.81520  0.73882  0.65000  Biso   1.000  C
  C124     1.0000 0.83220  0.69960  0.64130  Biso   1.000  C
  C125     1.0000 0.91010  0.68636  0.64890  Biso   1.000  C
  C126     1.0000 0.97100  0.71234  0.66530  Biso   1.000  C
  C127     1.0000 0.95390  0.75156  0.67410  Biso   1.000  C
  C128     1.0000 0.87600  0.76480  0.66640  Biso   1.000  C
  C129     1.0000 0.02500  0.77960  0.69140  Biso   1.000  C
  C130     1.0000 0.00690  0.80250  0.76220  Biso   1.000  C
  C131     1.0000 0.03290  0.80870  0.62930  Biso   1.000  C
  C132     1.0000 0.10380  0.75970  0.69980  Biso   1.000  C
  C133     1.0000 0.89780  0.58093  0.58250  Biso   1.000  C
  C134     1.0000 0.87820  0.61940  0.59650  Biso   1.000  C
  C135     1.0000 0.93020  0.64277  0.63580  Biso   1.000  C
  C136     1.0000 0.00180  0.62760  0.66110  Biso   1.000  C
  C137     1.0000 0.02140  0.58910  0.64720  Biso   1.000  C
  C138     1.0000 0.49630  0.85630  0.79500  Biso   1.000  C
  C139     1.0000 0.86550  0.91100  0.70800  Biso   1.000  C
  C140     1.0000 0.67040  0.90480  0.61670  Biso   1.000  C
  C141     1.0000 0.89300  0.44390  0.85830  Biso   1.000  C
  C142     1.0000 0.89660  0.41487  0.91700  Biso   1.000  C
  C143     1.0000 0.86470  0.42332  0.98470  Biso   1.000  C
  C144     1.0000 0.86770  0.39580  0.03980  Biso   1.000  C
  C145     1.0000 0.90270  0.35983  0.02700  Biso   1.000  C
  C146     1.0000 0.93450  0.35139  0.95930  Biso   1.000  C
  C147     1.0000 0.93150  0.37890  0.90430  Biso   1.000  C
  C148     1.0000 0.97510  0.31110  0.94320  Biso   1.000  C
  C149     1.0000 0.99760  0.30760  0.86150  Biso   1.000  C
  C150     1.0000 0.05010  0.30850  0.99070  Biso   1.000  C
  C151     1.0000 0.91970  0.27670  0.96110  Biso   1.000  C
  C152     1.0000 0.83440  0.40410  0.11560  Biso   1.000  C
  C153     1.0000 0.71380  0.36530  0.08660  Biso   1.000  C
  C154     1.0000 0.65410  0.39810  0.07840  Biso   1.000  C
  C155     1.0000 0.58370  0.38680  0.02640  Biso   1.000  C
  C156     1.0000 0.54790  0.34890  0.04770  Biso   1.000  C
  C157     1.0000 0.61060  0.31600  0.05250  Biso   1.000  C
  C158     1.0000 0.67450  0.32740  0.10590  Biso   1.000  C
  C159     1.0000 0.70980  0.26320  0.14970  Biso   1.000  C
  C160     1.0000 0.76750  0.23013  0.16150  Biso   1.000  C
  C161     1.0000 0.73390  0.19340  0.16830  Biso   1.000  C
  C162     1.0000 0.78230  0.16144  0.18170  Biso   1.000  C
  C163     1.0000 0.86430  0.16618  0.18840  Biso   1.000  C
  C164     1.0000 0.89790  0.20290  0.18160  Biso   1.000  C
  C165     1.0000 0.84960  0.23487  0.16820  Biso   1.000  C
  C166     1.0000 0.99080  0.20740  0.18960  Biso   1.000  C
  C167     1.0000 0.02540  0.22790  0.12180  Biso   1.000  C
  C168     1.0000 0.03630  0.16820  0.19630  Biso   1.000  C
  C169     1.0000 0.00660  0.22910  0.25780  Biso   1.000  C
  C170     1.0000 0.63540  0.07810  0.18580  Biso   1.000  C
  C171     1.0000 0.67190  0.11310  0.16810  Biso   1.000  C
  C172     1.0000 0.74540  0.12260  0.19830  Biso   1.000  C
  C173     1.0000 0.78230  0.09710  0.24610  Biso   1.000  C
  C174     1.0000 0.74570  0.06210  0.26380  Biso   1.000  C
  C175     1.0000 0.80740  0.46640  0.62900  Biso   1.000  C
  C176     1.0000 0.77220  0.44014  0.57050  Biso   1.000  C
  C177     1.0000 0.70290  0.41900  0.58310  Biso   1.000  C
  C178     1.0000 0.67550  0.39290  0.53140  Biso   1.000  C
  C179     1.0000 0.71730  0.38789  0.46700  Biso   1.000  C
  C180     1.0000 0.78660  0.40900  0.45440  Biso   1.000  C
  C181     1.0000 0.81400  0.43510  0.50610  Biso   1.000  C
  C182     1.0000 0.59100  0.37200  0.54540  Biso   1.000  C
  C183     1.0000 0.60100  0.32690  0.53940  Biso   1.000  C
  C184     1.0000 0.53370  0.38670  0.48660  Biso   1.000  C
  C185     1.0000 0.55540  0.38500  0.62220  Biso   1.000  C
  C186     1.0000 0.88300  0.33920  0.41560  Biso   1.000  C
  C187     1.0000 0.97450  0.34900  0.41850  Biso   1.000  C
  C188     1.0000 0.01430  0.32210  0.47030  Biso   1.000  C
  C189     1.0000 0.00520  0.28000  0.45160  Biso   1.000  C
  C190     1.0000 0.91640  0.27080  0.45020  Biso   1.000  C
  C191     1.0000 0.87190  0.29750  0.39470  Biso   1.000  C
  C192     1.0000 0.77040  0.25130  0.35200  Biso   1.000  C
  C193     1.0000 0.68480  0.23882  0.35000  Biso   1.000  C
  C194     1.0000 0.66780  0.19960  0.35870  Biso   1.000  C
  C195     1.0000 0.58990  0.18636  0.35110  Biso   1.000  C
  C196     1.0000 0.52900  0.21234  0.33470  Biso   1.000  C
  C197     1.0000 0.54610  0.25156  0.32590  Biso   1.000  C
  C198     1.0000 0.62400  0.26480  0.33360  Biso   1.000  C
  C199     1.0000 0.47500  0.27960  0.30860  Biso   1.000  C
  C200     1.0000 0.49310  0.30250  0.23780  Biso   1.000  C
  C201     1.0000 0.46710  0.30870  0.37070  Biso   1.000  C
  C202     1.0000 0.39620  0.25970  0.30020  Biso   1.000  C
  C203     1.0000 0.60220  0.08093  0.41750  Biso   1.000  C
  C204     1.0000 0.62180  0.11940  0.40350  Biso   1.000  C
  C205     1.0000 0.56980  0.14277  0.36420  Biso   1.000  C
  C206     1.0000 0.49820  0.12760  0.33890  Biso   1.000  C
  C207     1.0000 0.47860  0.08910  0.35280  Biso   1.000  C
  C208     1.0000 0.00370  0.35630  0.20500  Biso   1.000  C
  C209     1.0000 0.63450  0.41100  0.29200  Biso   1.000  C
  C210     1.0000 0.82960  0.40480  0.38330  Biso   1.000  C
  C211     1.0000 0.10700  0.55610  0.85830  Biso   1.000  C
  C212     1.0000 0.10340  0.58513  0.91700  Biso   1.000  C
  C213     1.0000 0.13530  0.57668  0.98470  Biso   1.000  C
  C214     1.0000 0.13230  0.60420  0.03980  Biso   1.000  C
  C215     1.0000 0.09730  0.64017  0.02700  Biso   1.000  C
  C216     1.0000 0.06550  0.64861  0.95930  Biso   1.000  C
  C217     1.0000 0.06850  0.62110  0.90430  Biso   1.000  C
  C218     1.0000 0.02490  0.68890  0.94320  Biso   1.000  C
  C219     1.0000 0.00240  0.69240  0.86150  Biso   1.000  C
  C220     1.0000 0.94990  0.69150  0.99070  Biso   1.000  C
  C221     1.0000 0.08030  0.72330  0.96110  Biso   1.000  C
  C222     1.0000 0.16560  0.59590  0.11560  Biso   1.000  C
  C223     1.0000 0.28620  0.63470  0.08660  Biso   1.000  C
  C224     1.0000 0.34590  0.60190  0.07840  Biso   1.000  C
  C225     1.0000 0.41630  0.61320  0.02640  Biso   1.000  C
  C226     1.0000 0.45210  0.65110  0.04770  Biso   1.000  C
  C227     1.0000 0.38940  0.68400  0.05250  Biso   1.000  C
  C228     1.0000 0.32550  0.67260  0.10590  Biso   1.000  C
  C229     1.0000 0.29020  0.73680  0.14970  Biso   1.000  C
  C230     1.0000 0.23250  0.76987  0.16150  Biso   1.000  C
  C231     1.0000 0.26610  0.80660  0.16830  Biso   1.000  C
  C232     1.0000 0.21770  0.83856  0.18170  Biso   1.000  C
  C233     1.0000 0.13570  0.83382  0.18840  Biso   1.000  C
  C234     1.0000 0.10210  0.79710  0.18160  Biso   1.000  C
  C235     1.0000 0.15040  0.76513  0.16820  Biso   1.000  C
  C236     1.0000 0.00920  0.79260  0.18960  Biso   1.000  C
  C237     1.0000 0.97460  0.77210  0.12180  Biso   1.000  C
  C238     1.0000 0.96370  0.83180  0.19630  Biso   1.000  C
  C239     1.0000 0.99340  0.77090  0.25780  Biso   1.000  C
  C240     1.0000 0.36460  0.92190  0.18580  Biso   1.000  C
  C241     1.0000 0.32810  0.88690  0.16810  Biso   1.000  C
  C242     1.0000 0.25460  0.87740  0.19830  Biso   1.000  C
  C243     1.0000 0.21770  0.90290  0.24610  Biso   1.000  C
  C244     1.0000 0.25430  0.93790  0.26380  Biso   1.000  C
  C245     1.0000 0.19260  0.53360  0.62900  Biso   1.000  C
  C246     1.0000 0.22780  0.55986  0.57050  Biso   1.000  C
  C247     1.0000 0.29710  0.58100  0.58310  Biso   1.000  C
  C248     1.0000 0.32450  0.60710  0.53140  Biso   1.000  C
  C249     1.0000 0.28270  0.61211  0.46700  Biso   1.000  C
  C250     1.0000 0.21340  0.59100  0.45440  Biso   1.000  C
  C251     1.0000 0.18600  0.56490  0.50610  Biso   1.000  C
  C252     1.0000 0.40900  0.62800  0.54540  Biso   1.000  C
  C253     1.0000 0.39900  0.67310  0.53940  Biso   1.000  C
  C254     1.0000 0.46630  0.61330  0.48660  Biso   1.000  C
  C255     1.0000 0.44460  0.61500  0.62220  Biso   1.000  C
  C256     1.0000 0.11700  0.66080  0.41560  Biso   1.000  C
  C257     1.0000 0.02550  0.65100  0.41850  Biso   1.000  C
  C258     1.0000 0.98570  0.67790  0.47030  Biso   1.000  C
  C259     1.0000 0.99480  0.72000  0.45160  Biso   1.000  C
  C260     1.0000 0.08360  0.72920  0.45020  Biso   1.000  C
  C261     1.0000 0.12810  0.70250  0.39470  Biso   1.000  C
  C262     1.0000 0.22960  0.74870  0.35200  Biso   1.000  C
  C263     1.0000 0.31520  0.76118  0.35000  Biso   1.000  C
  C264     1.0000 0.33220  0.80040  0.35870  Biso   1.000  C
  C265     1.0000 0.41010  0.81364  0.35110  Biso   1.000  C
  C266     1.0000 0.47100  0.78766  0.33470  Biso   1.000  C
  C267     1.0000 0.45390  0.74844  0.32590  Biso   1.000  C
  C268     1.0000 0.37600  0.73520  0.33360  Biso   1.000  C
  C269     1.0000 0.52500  0.72040  0.30860  Biso   1.000  C
  C270     1.0000 0.50690  0.69750  0.23780  Biso   1.000  C
  C271     1.0000 0.53290  0.69130  0.37070  Biso   1.000  C
  C272     1.0000 0.60380  0.74030  0.30020  Biso   1.000  C
  C273     1.0000 0.39780  0.91907  0.41750  Biso   1.000  C
  C274     1.0000 0.37820  0.88060  0.40350  Biso   1.000  C
  C275     1.0000 0.43020  0.85723  0.36420  Biso   1.000  C
  C276     1.0000 0.50180  0.87240  0.33890  Biso   1.000  C
  C277     1.0000 0.52140  0.91090  0.35280  Biso   1.000  C
  C278     1.0000 0.99630  0.64370  0.20500  Biso   1.000  C
  C279     1.0000 0.36550  0.58900  0.29200  Biso   1.000  C
  C280     1.0000 0.17040  0.59520  0.38330  Biso   1.000  C
  Br1      1.0000 0.50000  0.00000  0.55057  Biso   1.000  Br
  Br2      1.0000 0.00000  0.50000  0.44943  Biso   1.000  Br
  N1       1.0000 0.27900  0.12600  0.86290  Biso   1.000  N
  N2       1.0000 0.23890  0.20340  0.88830  Biso   1.000  N
  N3       1.0000 0.34070  0.13680  0.63850  Biso   1.000  N
  N4       1.0000 0.28230  0.21060  0.60990  Biso   1.000  N
  N5       1.0000 0.17230  0.44740  0.76640  Biso   1.000  N
  N6       1.0000 0.03060  0.43422  0.60790  Biso   1.000  N
  N7       1.0000 0.72100  0.87400  0.86290  Biso   1.000  N
  N8       1.0000 0.76110  0.79660  0.88830  Biso   1.000  N
  N9       1.0000 0.65930  0.86320  0.63850  Biso   1.000  N
  N10      1.0000 0.71770  0.78940  0.60990  Biso   1.000  N
  N11      1.0000 0.82770  0.55260  0.76640  Biso   1.000  N
  N12      1.0000 0.96940  0.56578  0.60790  Biso   1.000  N
  N13      1.0000 0.77900  0.37400  0.13710  Biso   1.000  N
  N14      1.0000 0.73890  0.29660  0.11170  Biso   1.000  N
  N15      1.0000 0.84070  0.36320  0.36150  Biso   1.000  N
  N16      1.0000 0.78230  0.28940  0.39010  Biso   1.000  N
  N17      1.0000 0.67230  0.05260  0.23360  Biso   1.000  N
  N18      1.0000 0.53060  0.06578  0.39210  Biso   1.000  N
  N19      1.0000 0.22100  0.62600  0.13710  Biso   1.000  N
  N20      1.0000 0.26110  0.70340  0.11170  Biso   1.000  N
  N21      1.0000 0.15930  0.63680  0.36150  Biso   1.000  N
  N22      1.0000 0.21770  0.71060  0.39010  Biso   1.000  N
  N23      1.0000 0.32770  0.94740  0.23360  Biso   1.000  N
  N24      1.0000 0.46940  0.93422  0.39210  Biso   1.000  N
  O1       1.0000 0.41990  0.06460  0.20150  Biso   1.000  O
  O2       1.0000 0.36010  0.02460  0.13170  Biso   1.000  O
  O3       1.0000 0.40000  0.16730  0.92010  Biso   1.000  O
  O4       1.0000 0.37950  0.22930  0.83130  Biso   1.000  O
  O5       1.0000 0.42650  0.15290  0.77680  Biso   1.000  O
  O6       1.0000 0.28190  0.17896  0.75020  Biso   1.000  O
  O7       1.0000 0.36760  0.01290  0.38350  Biso   1.000  O
  O8       1.0000 0.27480  0.03430  0.30730  Biso   1.000  O
  O9       1.0000 0.19230  0.13810  0.58160  Biso   1.000  O
  O10      1.0000 0.13970  0.19693  0.67640  Biso   1.000  O
  O11      1.0000 0.18920  0.11930  0.72580  Biso   1.000  O
  O12      1.0000 0.58010  0.93540  0.20150  Biso   1.000  O
  O13      1.0000 0.63990  0.97540  0.13170  Biso   1.000  O
  O14      1.0000 0.60000  0.83270  0.92010  Biso   1.000  O
  O15      1.0000 0.62050  0.77070  0.83130  Biso   1.000  O
  O16      1.0000 0.57350  0.84710  0.77680  Biso   1.000  O
  O17      1.0000 0.71810  0.82104  0.75020  Biso   1.000  O
  O18      1.0000 0.63240  0.98710  0.38350  Biso   1.000  O
  O19      1.0000 0.72520  0.96570  0.30730  Biso   1.000  O
  O20      1.0000 0.80770  0.86190  0.58160  Biso   1.000  O
  O21      1.0000 0.86030  0.80307  0.67640  Biso   1.000  O
  O22      1.0000 0.81080  0.88070  0.72580  Biso   1.000  O
  O23      1.0000 0.91990  0.43540  0.79850  Biso   1.000  O
  O24      1.0000 0.86010  0.47540  0.86830  Biso   1.000  O
  O25      1.0000 0.90000  0.33270  0.07990  Biso   1.000  O
  O26      1.0000 0.87950  0.27070  0.16870  Biso   1.000  O
  O27      1.0000 0.92650  0.34710  0.22320  Biso   1.000  O
  O28      1.0000 0.78190  0.32104  0.24980  Biso   1.000  O
  O29      1.0000 0.86760  0.48710  0.61650  Biso   1.000  O
  O30      1.0000 0.77480  0.46570  0.69270  Biso   1.000  O
  O31      1.0000 0.69230  0.36190  0.41840  Biso   1.000  O
  O32      1.0000 0.63970  0.30307  0.32360  Biso   1.000  O
  O33      1.0000 0.68920  0.38070  0.27420  Biso   1.000  O
  O34      1.0000 0.08010  0.56460  0.79850  Biso   1.000  O
  O35      1.0000 0.13990  0.52460  0.86830  Biso   1.000  O
  O36      1.0000 0.10000  0.66730  0.07990  Biso   1.000  O
  O37      1.0000 0.12050  0.72930  0.16870  Biso   1.000  O
  O38      1.0000 0.07350  0.65290  0.22320  Biso   1.000  O
  O39      1.0000 0.21810  0.67896  0.24980  Biso   1.000  O
  O40      1.0000 0.13240  0.51290  0.61650  Biso   1.000  O
  O41      1.0000 0.22520  0.53430  0.69270  Biso   1.000  O
  O42      1.0000 0.30770  0.63810  0.41840  Biso   1.000  O
  O43      1.0000 0.36030  0.69693  0.32360  Biso   1.000  O
  O44      1.0000 0.31080  0.61930  0.27420  Biso   1.000  O
  O45      1.0000 0.50000  0.00000  0.28180  Biso   1.000  O
  O46      1.0000 0.00000  0.50000  0.71820  Biso   1.000  O
