data_BIWSIK_ion_b
_audit_creation_date              2014-07-02
_audit_creation_method            'Materials Studio'
_symmetry_space_group_name_H-M    'P1'
_symmetry_Int_Tables_number       1
_symmetry_cell_setting            triclinic
loop_
_symmetry_equiv_pos_as_xyz
  x,y,z
_cell_length_a                    25.2317
_cell_length_b                    25.2317
_cell_length_c                    25.2317
_cell_angle_alpha                 109.4712
_cell_angle_beta                  109.4712
_cell_angle_gamma                 109.4712
loop_
_atom_site_label
_atom_site_type_symbol
_atom_site_fract_x
_atom_site_fract_y
_atom_site_fract_z
_atom_site_U_iso_or_equiv
_atom_site_adp_type
_atom_site_occupancy
N1     N     0.14402   0.53641   0.50333   0.00000  Uiso   1.00
N2     N     0.18690   0.53753   0.48403   0.00000  Uiso   1.00
C3     C     0.28590   0.46170   0.51800   0.00000  Uiso   1.00
H4     H     0.27090   0.44660   0.54290   0.00000  Uiso   1.00
C5     C     0.33130   0.44890   0.50700   0.00000  Uiso   1.00
H6     H     0.34690   0.42560   0.52430   0.00000  Uiso   1.00
N8     N     0.03308   0.64069   0.49667   0.00000  Uiso   1.00
N9     N     0.05350   0.70287   0.51597   0.00000  Uiso   1.00
C10    C     0.94370   0.76790   0.48200   0.00000  Uiso   1.00
H11    H     0.90370   0.72800   0.45710   0.00000  Uiso   1.00
C12    C     0.94190   0.82430   0.49300   0.00000  Uiso   1.00
H13    H     0.90130   0.82260   0.47570   0.00000  Uiso   1.00
N15    N     0.96692   0.46359   0.60761   0.00000  Uiso   1.00
N16    N     0.94650   0.46247   0.64937   0.00000  Uiso   1.00
C17    C     0.05630   0.53830   0.82420   0.00000  Uiso   1.00
H18    H     0.09630   0.55340   0.82430   0.00000  Uiso   1.00
C19    C     0.05810   0.55110   0.88240   0.00000  Uiso   1.00
H20    H     0.09870   0.57440   0.92130   0.00000  Uiso   1.00
N22    N     0.85598   0.35931   0.39239   0.00000  Uiso   1.00
N23    N     0.81310   0.29713   0.35063   0.00000  Uiso   1.00
C24    C     0.71410   0.23210   0.17580   0.00000  Uiso   1.00
H25    H     0.72910   0.27200   0.17570   0.00000  Uiso   1.00
C26    C     0.66870   0.17570   0.11760   0.00000  Uiso   1.00
H27    H     0.65310   0.17740   0.07870   0.00000  Uiso   1.00
N29    N     0.50333   0.14402   0.53641   0.00000  Uiso   1.00
N30    N     0.48403   0.18690   0.53753   0.00000  Uiso   1.00
C31    C     0.51800   0.28590   0.46170   0.00000  Uiso   1.00
H32    H     0.54290   0.27090   0.44660   0.00000  Uiso   1.00
C33    C     0.50700   0.33130   0.44890   0.00000  Uiso   1.00
H34    H     0.52430   0.34690   0.42560   0.00000  Uiso   1.00
N36    N     0.49667   0.03308   0.64069   0.00000  Uiso   1.00
N37    N     0.51597   0.05350   0.70287   0.00000  Uiso   1.00
C38    C     0.48200   0.94370   0.76790   0.00000  Uiso   1.00
H39    H     0.45710   0.90370   0.72800   0.00000  Uiso   1.00
C40    C     0.49300   0.94190   0.82430   0.00000  Uiso   1.00
H41    H     0.47570   0.90130   0.82260   0.00000  Uiso   1.00
N43    N     0.60761   0.96692   0.46359   0.00000  Uiso   1.00
N44    N     0.64937   0.94650   0.46247   0.00000  Uiso   1.00
C45    C     0.82420   0.05630   0.53830   0.00000  Uiso   1.00
H46    H     0.82430   0.09630   0.55340   0.00000  Uiso   1.00
C47    C     0.88240   0.05810   0.55110   0.00000  Uiso   1.00
H48    H     0.92130   0.09870   0.57440   0.00000  Uiso   1.00
N50    N     0.39239   0.85598   0.35931   0.00000  Uiso   1.00
N51    N     0.35063   0.81310   0.29713   0.00000  Uiso   1.00
C52    C     0.17580   0.71410   0.23210   0.00000  Uiso   1.00
H53    H     0.17570   0.72910   0.27200   0.00000  Uiso   1.00
C54    C     0.11760   0.66870   0.17570   0.00000  Uiso   1.00
H55    H     0.07870   0.65310   0.17740   0.00000  Uiso   1.00
N57    N     0.53641   0.50333   0.14402   0.00000  Uiso   1.00
N58    N     0.53753   0.48403   0.18690   0.00000  Uiso   1.00
C59    C     0.46170   0.51800   0.28590   0.00000  Uiso   1.00
H60    H     0.44660   0.54290   0.27090   0.00000  Uiso   1.00
C61    C     0.44890   0.50700   0.33130   0.00000  Uiso   1.00
H62    H     0.42560   0.52430   0.34690   0.00000  Uiso   1.00
N64    N     0.64069   0.49667   0.03308   0.00000  Uiso   1.00
N65    N     0.70287   0.51597   0.05350   0.00000  Uiso   1.00
C66    C     0.76790   0.48200   0.94370   0.00000  Uiso   1.00
H67    H     0.72800   0.45710   0.90370   0.00000  Uiso   1.00
C68    C     0.82430   0.49300   0.94190   0.00000  Uiso   1.00
H69    H     0.82260   0.47570   0.90130   0.00000  Uiso   1.00
N71    N     0.46359   0.60761   0.96692   0.00000  Uiso   1.00
N72    N     0.46247   0.64937   0.94650   0.00000  Uiso   1.00
C73    C     0.53830   0.82420   0.05630   0.00000  Uiso   1.00
H74    H     0.55340   0.82430   0.09630   0.00000  Uiso   1.00
C75    C     0.55110   0.88240   0.05810   0.00000  Uiso   1.00
H76    H     0.57440   0.92130   0.09870   0.00000  Uiso   1.00
N78    N     0.35931   0.39239   0.85598   0.00000  Uiso   1.00
N79    N     0.29713   0.35063   0.81310   0.00000  Uiso   1.00
C80    C     0.23210   0.17580   0.71410   0.00000  Uiso   1.00
H81    H     0.27200   0.17570   0.72910   0.00000  Uiso   1.00
C82    C     0.17570   0.11760   0.66870   0.00000  Uiso   1.00
H83    H     0.17740   0.07870   0.65310   0.00000  Uiso   1.00
N85    N     0.35931   0.96692   0.50333   0.00000  Uiso   1.00
N86    N     0.29713   0.94650   0.48403   0.00000  Uiso   1.00
C87    C     0.23210   0.05630   0.51800   0.00000  Uiso   1.00
H88    H     0.27200   0.09630   0.54290   0.00000  Uiso   1.00
C89    C     0.17570   0.05810   0.50700   0.00000  Uiso   1.00
H90    H     0.17740   0.09870   0.52430   0.00000  Uiso   1.00
N92    N     0.46359   0.85598   0.49667   0.00000  Uiso   1.00
N93    N     0.46247   0.81310   0.51597   0.00000  Uiso   1.00
C94    C     0.53830   0.71410   0.48200   0.00000  Uiso   1.00
H95    H     0.55340   0.72910   0.45710   0.00000  Uiso   1.00
C96    C     0.55110   0.66870   0.49300   0.00000  Uiso   1.00
H97    H     0.57440   0.65310   0.47570   0.00000  Uiso   1.00
N99    N     0.64069   0.14402   0.60761   0.00000  Uiso   1.00
N100   N     0.70287   0.18690   0.64937   0.00000  Uiso   1.00
C101   C     0.76790   0.28590   0.82420   0.00000  Uiso   1.00
H102   H     0.72800   0.27090   0.82430   0.00000  Uiso   1.00
C103   C     0.82430   0.33130   0.88240   0.00000  Uiso   1.00
H104   H     0.82260   0.34690   0.92130   0.00000  Uiso   1.00
N106   N     0.53641   0.03308   0.39239   0.00000  Uiso   1.00
N107   N     0.53753   0.05350   0.35063   0.00000  Uiso   1.00
C108   C     0.46170   0.94370   0.17580   0.00000  Uiso   1.00
H109   H     0.44660   0.90370   0.17570   0.00000  Uiso   1.00
C110   C     0.44890   0.94190   0.11760   0.00000  Uiso   1.00
H111   H     0.42560   0.90130   0.07870   0.00000  Uiso   1.00
N113   N     0.03308   0.39239   0.53641   0.00000  Uiso   1.00
N114   N     0.05350   0.35063   0.53753   0.00000  Uiso   1.00
C115   C     0.94370   0.17580   0.46170   0.00000  Uiso   1.00
H116   H     0.90370   0.17570   0.44660   0.00000  Uiso   1.00
C117   C     0.94190   0.11760   0.44890   0.00000  Uiso   1.00
H118   H     0.90130   0.07870   0.42560   0.00000  Uiso   1.00
N120   N     0.14402   0.60761   0.64069   0.00000  Uiso   1.00
N121   N     0.18690   0.64937   0.70287   0.00000  Uiso   1.00
C122   C     0.28590   0.82420   0.76790   0.00000  Uiso   1.00
H123   H     0.27090   0.82430   0.72800   0.00000  Uiso   1.00
C124   C     0.33130   0.88240   0.82430   0.00000  Uiso   1.00
H125   H     0.34690   0.92130   0.82260   0.00000  Uiso   1.00
N127   N     0.85598   0.49667   0.46359   0.00000  Uiso   1.00
N128   N     0.81310   0.51597   0.46247   0.00000  Uiso   1.00
C129   C     0.71410   0.48200   0.53830   0.00000  Uiso   1.00
H130   H     0.72910   0.45710   0.55340   0.00000  Uiso   1.00
C131   C     0.66870   0.49300   0.55110   0.00000  Uiso   1.00
H132   H     0.65310   0.47570   0.57440   0.00000  Uiso   1.00
N134   N     0.96692   0.50333   0.35931   0.00000  Uiso   1.00
N135   N     0.94650   0.48403   0.29713   0.00000  Uiso   1.00
C136   C     0.05630   0.51800   0.23210   0.00000  Uiso   1.00
H137   H     0.09630   0.54290   0.27200   0.00000  Uiso   1.00
C138   C     0.05810   0.50700   0.17570   0.00000  Uiso   1.00
H139   H     0.09870   0.52430   0.17740   0.00000  Uiso   1.00
N141   N     0.60761   0.64069   0.14402   0.00000  Uiso   1.00
N142   N     0.64937   0.70287   0.18690   0.00000  Uiso   1.00
C143   C     0.82420   0.76790   0.28590   0.00000  Uiso   1.00
H144   H     0.82430   0.72800   0.27090   0.00000  Uiso   1.00
C145   C     0.88240   0.82430   0.33130   0.00000  Uiso   1.00
H146   H     0.92130   0.82260   0.34690   0.00000  Uiso   1.00
N148   N     0.39239   0.53641   0.03308   0.00000  Uiso   1.00
N149   N     0.35063   0.53753   0.05350   0.00000  Uiso   1.00
C150   C     0.17580   0.46170   0.94370   0.00000  Uiso   1.00
H151   H     0.17570   0.44660   0.90370   0.00000  Uiso   1.00
C152   C     0.11760   0.44890   0.94190   0.00000  Uiso   1.00
H153   H     0.07870   0.42560   0.90130   0.00000  Uiso   1.00
N155   N     0.50333   0.35931   0.96692   0.00000  Uiso   1.00
N156   N     0.48403   0.29713   0.94650   0.00000  Uiso   1.00
C157   C     0.51800   0.23210   0.05630   0.00000  Uiso   1.00
H158   H     0.54290   0.27200   0.09630   0.00000  Uiso   1.00
C159   C     0.50700   0.17570   0.05810   0.00000  Uiso   1.00
H160   H     0.52430   0.17740   0.09870   0.00000  Uiso   1.00
N162   N     0.49667   0.46359   0.85598   0.00000  Uiso   1.00
N163   N     0.51597   0.46247   0.81310   0.00000  Uiso   1.00
C164   C     0.48200   0.53830   0.71410   0.00000  Uiso   1.00
H165   H     0.45710   0.55340   0.72910   0.00000  Uiso   1.00
C166   C     0.49300   0.55110   0.66870   0.00000  Uiso   1.00
H167   H     0.47570   0.57440   0.65310   0.00000  Uiso   1.00
N169   N     0.85598   0.46359   0.49667   0.00000  Uiso   1.00
N170   N     0.81310   0.46247   0.51597   0.00000  Uiso   1.00
C171   C     0.71410   0.53830   0.48200   0.00000  Uiso   1.00
H172   H     0.72910   0.55340   0.45710   0.00000  Uiso   1.00
C173   C     0.66870   0.55110   0.49300   0.00000  Uiso   1.00
H174   H     0.65310   0.57440   0.47570   0.00000  Uiso   1.00
N176   N     0.96692   0.35931   0.50333   0.00000  Uiso   1.00
N177   N     0.94650   0.29713   0.48403   0.00000  Uiso   1.00
C178   C     0.05630   0.23210   0.51800   0.00000  Uiso   1.00
H179   H     0.09630   0.27200   0.54290   0.00000  Uiso   1.00
C180   C     0.05810   0.17570   0.50700   0.00000  Uiso   1.00
H181   H     0.09870   0.17740   0.52430   0.00000  Uiso   1.00
N183   N     0.03308   0.53641   0.39239   0.00000  Uiso   1.00
N184   N     0.05350   0.53753   0.35063   0.00000  Uiso   1.00
C185   C     0.94370   0.46170   0.17580   0.00000  Uiso   1.00
H186   H     0.90370   0.44660   0.17570   0.00000  Uiso   1.00
C187   C     0.94190   0.44890   0.11760   0.00000  Uiso   1.00
H188   H     0.90130   0.42560   0.07870   0.00000  Uiso   1.00
N190   N     0.14402   0.64069   0.60761   0.00000  Uiso   1.00
N191   N     0.18690   0.70287   0.64937   0.00000  Uiso   1.00
C192   C     0.28590   0.76790   0.82420   0.00000  Uiso   1.00
H193   H     0.27090   0.72800   0.82430   0.00000  Uiso   1.00
C194   C     0.33130   0.82430   0.88240   0.00000  Uiso   1.00
H195   H     0.34690   0.82260   0.92130   0.00000  Uiso   1.00
N197   N     0.49667   0.85598   0.46359   0.00000  Uiso   1.00
N198   N     0.51597   0.81310   0.46247   0.00000  Uiso   1.00
C199   C     0.48200   0.71410   0.53830   0.00000  Uiso   1.00
H200   H     0.45710   0.72910   0.55340   0.00000  Uiso   1.00
C201   C     0.49300   0.66870   0.55110   0.00000  Uiso   1.00
H202   H     0.47570   0.65310   0.57440   0.00000  Uiso   1.00
N204   N     0.50333   0.96692   0.35931   0.00000  Uiso   1.00
N205   N     0.48403   0.94650   0.29713   0.00000  Uiso   1.00
C206   C     0.51800   0.05630   0.23210   0.00000  Uiso   1.00
H207   H     0.54290   0.09630   0.27200   0.00000  Uiso   1.00
C208   C     0.50700   0.05810   0.17570   0.00000  Uiso   1.00
H209   H     0.52430   0.09870   0.17740   0.00000  Uiso   1.00
N211   N     0.39239   0.03308   0.53641   0.00000  Uiso   1.00
N212   N     0.35063   0.05350   0.53753   0.00000  Uiso   1.00
C213   C     0.17580   0.94370   0.46170   0.00000  Uiso   1.00
H214   H     0.17570   0.90370   0.44660   0.00000  Uiso   1.00
C215   C     0.11760   0.94190   0.44890   0.00000  Uiso   1.00
H216   H     0.07870   0.90130   0.42560   0.00000  Uiso   1.00
N218   N     0.60761   0.14402   0.64069   0.00000  Uiso   1.00
N219   N     0.64937   0.18690   0.70287   0.00000  Uiso   1.00
C220   C     0.82420   0.28590   0.76790   0.00000  Uiso   1.00
H221   H     0.82430   0.27090   0.72800   0.00000  Uiso   1.00
C222   C     0.88240   0.33130   0.82430   0.00000  Uiso   1.00
H223   H     0.92130   0.34690   0.82260   0.00000  Uiso   1.00
N225   N     0.46359   0.49667   0.85598   0.00000  Uiso   1.00
N226   N     0.46247   0.51597   0.81310   0.00000  Uiso   1.00
C227   C     0.53830   0.48200   0.71410   0.00000  Uiso   1.00
H228   H     0.55340   0.45710   0.72910   0.00000  Uiso   1.00
C229   C     0.55110   0.49300   0.66870   0.00000  Uiso   1.00
H230   H     0.57440   0.47570   0.65310   0.00000  Uiso   1.00
N232   N     0.35931   0.50333   0.96692   0.00000  Uiso   1.00
N233   N     0.29713   0.48403   0.94650   0.00000  Uiso   1.00
C234   C     0.23210   0.51800   0.05630   0.00000  Uiso   1.00
H235   H     0.27200   0.54290   0.09630   0.00000  Uiso   1.00
C236   C     0.17570   0.50700   0.05810   0.00000  Uiso   1.00
H237   H     0.17740   0.52430   0.09870   0.00000  Uiso   1.00
N239   N     0.53641   0.39239   0.03308   0.00000  Uiso   1.00
N240   N     0.53753   0.35063   0.05350   0.00000  Uiso   1.00
C241   C     0.46170   0.17580   0.94370   0.00000  Uiso   1.00
H242   H     0.44660   0.17570   0.90370   0.00000  Uiso   1.00
C243   C     0.44890   0.11760   0.94190   0.00000  Uiso   1.00
H244   H     0.42560   0.07870   0.90130   0.00000  Uiso   1.00
N246   N     0.64069   0.60761   0.14402   0.00000  Uiso   1.00
N247   N     0.70287   0.64937   0.18690   0.00000  Uiso   1.00
C248   C     0.76790   0.82420   0.28590   0.00000  Uiso   1.00
H249   H     0.72800   0.82430   0.27090   0.00000  Uiso   1.00
C250   C     0.82430   0.88240   0.33130   0.00000  Uiso   1.00
H251   H     0.82260   0.92130   0.34690   0.00000  Uiso   1.00
N253   N     0.64069   0.03308   0.49667   0.00000  Uiso   1.00
N254   N     0.70287   0.05350   0.51597   0.00000  Uiso   1.00
C255   C     0.76790   0.94370   0.48200   0.00000  Uiso   1.00
H256   H     0.72800   0.90370   0.45710   0.00000  Uiso   1.00
C257   C     0.82430   0.94190   0.49300   0.00000  Uiso   1.00
H258   H     0.82260   0.90130   0.47570   0.00000  Uiso   1.00
N260   N     0.53641   0.14402   0.50333   0.00000  Uiso   1.00
N261   N     0.53753   0.18690   0.48403   0.00000  Uiso   1.00
C262   C     0.46170   0.28590   0.51800   0.00000  Uiso   1.00
H263   H     0.44660   0.27090   0.54290   0.00000  Uiso   1.00
C264   C     0.44890   0.33130   0.50700   0.00000  Uiso   1.00
H265   H     0.42560   0.34690   0.52430   0.00000  Uiso   1.00
N267   N     0.35931   0.85598   0.39239   0.00000  Uiso   1.00
N268   N     0.29713   0.81310   0.35063   0.00000  Uiso   1.00
C269   C     0.23210   0.71410   0.17580   0.00000  Uiso   1.00
H270   H     0.27200   0.72910   0.17570   0.00000  Uiso   1.00
C271   C     0.17570   0.66870   0.11760   0.00000  Uiso   1.00
H272   H     0.17740   0.65310   0.07870   0.00000  Uiso   1.00
N274   N     0.46359   0.96692   0.60761   0.00000  Uiso   1.00
N275   N     0.46247   0.94650   0.64937   0.00000  Uiso   1.00
C276   C     0.53830   0.05630   0.82420   0.00000  Uiso   1.00
H277   H     0.55340   0.09630   0.82430   0.00000  Uiso   1.00
C278   C     0.55110   0.05810   0.88240   0.00000  Uiso   1.00
H279   H     0.57440   0.09870   0.92130   0.00000  Uiso   1.00
N281   N     0.96692   0.60761   0.46359   0.00000  Uiso   1.00
N282   N     0.94650   0.64937   0.46247   0.00000  Uiso   1.00
C283   C     0.05630   0.82420   0.53830   0.00000  Uiso   1.00
H284   H     0.09630   0.82430   0.55340   0.00000  Uiso   1.00
C285   C     0.05810   0.88240   0.55110   0.00000  Uiso   1.00
H286   H     0.09870   0.92130   0.57440   0.00000  Uiso   1.00
N288   N     0.85598   0.39239   0.35931   0.00000  Uiso   1.00
N289   N     0.81310   0.35063   0.29713   0.00000  Uiso   1.00
C290   C     0.71410   0.17580   0.23210   0.00000  Uiso   1.00
H291   H     0.72910   0.17570   0.27200   0.00000  Uiso   1.00
C292   C     0.66870   0.11760   0.17570   0.00000  Uiso   1.00
H293   H     0.65310   0.07870   0.17740   0.00000  Uiso   1.00
N295   N     0.14402   0.50333   0.53641   0.00000  Uiso   1.00
N296   N     0.18690   0.48403   0.53753   0.00000  Uiso   1.00
C297   C     0.28590   0.51800   0.46170   0.00000  Uiso   1.00
H298   H     0.27090   0.54290   0.44660   0.00000  Uiso   1.00
C299   C     0.33130   0.50700   0.44890   0.00000  Uiso   1.00
H300   H     0.34690   0.52430   0.42560   0.00000  Uiso   1.00
N302   N     0.03308   0.49667   0.64069   0.00000  Uiso   1.00
N303   N     0.05350   0.51597   0.70287   0.00000  Uiso   1.00
C304   C     0.94370   0.48200   0.76790   0.00000  Uiso   1.00
H305   H     0.90370   0.45710   0.72800   0.00000  Uiso   1.00
C306   C     0.94190   0.49300   0.82430   0.00000  Uiso   1.00
H307   H     0.90130   0.47570   0.82260   0.00000  Uiso   1.00
N309   N     0.39239   0.35931   0.85598   0.00000  Uiso   1.00
N310   N     0.35063   0.29713   0.81310   0.00000  Uiso   1.00
C311   C     0.17580   0.23210   0.71410   0.00000  Uiso   1.00
H312   H     0.17570   0.27200   0.72910   0.00000  Uiso   1.00
C313   C     0.11760   0.17570   0.66870   0.00000  Uiso   1.00
H314   H     0.07870   0.17740   0.65310   0.00000  Uiso   1.00
N316   N     0.60761   0.46359   0.96692   0.00000  Uiso   1.00
N317   N     0.64937   0.46247   0.94650   0.00000  Uiso   1.00
C318   C     0.82420   0.53830   0.05630   0.00000  Uiso   1.00
H319   H     0.82430   0.55340   0.09630   0.00000  Uiso   1.00
C320   C     0.88240   0.55110   0.05810   0.00000  Uiso   1.00
H321   H     0.92130   0.57440   0.09870   0.00000  Uiso   1.00
N323   N     0.49667   0.64069   0.03308   0.00000  Uiso   1.00
N324   N     0.51597   0.70287   0.05350   0.00000  Uiso   1.00
C325   C     0.48200   0.76790   0.94370   0.00000  Uiso   1.00
H326   H     0.45710   0.72800   0.90370   0.00000  Uiso   1.00
C327   C     0.49300   0.82430   0.94190   0.00000  Uiso   1.00
H328   H     0.47570   0.82260   0.90130   0.00000  Uiso   1.00
N330   N     0.50333   0.53641   0.14402   0.00000  Uiso   1.00
N331   N     0.48403   0.53753   0.18690   0.00000  Uiso   1.00
C332   C     0.51800   0.46170   0.28590   0.00000  Uiso   1.00
H333   H     0.54290   0.44660   0.27090   0.00000  Uiso   1.00
C334   C     0.50700   0.44890   0.33130   0.00000  Uiso   1.00
H335   H     0.52430   0.42560   0.34690   0.00000  Uiso   1.00
Mn337  Mn    0.09420   0.59420   0.50000   0.00000  Uiso   1.00
O338   O     0.16810   0.66810   0.50000   0.00000  Uiso   1.00
Mn339  Mn    0.90580   0.40580   0.50000   0.00000  Uiso   1.00
O340   O     0.83190   0.33190   0.50000   0.00000  Uiso   1.00
Mn341  Mn    0.50000   0.09420   0.59420   0.00000  Uiso   1.00
O342   O     0.50000   0.16810   0.66810   0.00000  Uiso   1.00
Mn343  Mn    0.50000   0.90580   0.40580   0.00000  Uiso   1.00
O344   O     0.50000   0.83190   0.33190   0.00000  Uiso   1.00
Mn345  Mn    0.59420   0.50000   0.09420   0.00000  Uiso   1.00
O346   O     0.66810   0.50000   0.16810   0.00000  Uiso   1.00
Mn347  Mn    0.40580   0.50000   0.90580   0.00000  Uiso   1.00
O348   O     0.33190   0.50000   0.83190   0.00000  Uiso   1.00
Mn349  Mn    0.40580   0.90580   0.50000   0.00000  Uiso   1.00
O350   O     0.33190   0.83190   0.50000   0.00000  Uiso   1.00
Mn351  Mn    0.59420   0.09420   0.50000   0.00000  Uiso   1.00
O352   O     0.66810   0.16810   0.50000   0.00000  Uiso   1.00
Mn353  Mn    0.09420   0.50000   0.59420   0.00000  Uiso   1.00
O354   O     0.16810   0.50000   0.66810   0.00000  Uiso   1.00
Mn355  Mn    0.90580   0.50000   0.40580   0.00000  Uiso   1.00
O356   O     0.83190   0.50000   0.33190   0.00000  Uiso   1.00
Mn357  Mn    0.50000   0.59420   0.09420   0.00000  Uiso   1.00
O358   O     0.50000   0.66810   0.16810   0.00000  Uiso   1.00
Mn359  Mn    0.50000   0.40580   0.90580   0.00000  Uiso   1.00
O360   O     0.50000   0.33190   0.83190   0.00000  Uiso   1.00
Cl361  Cl    0.00000   0.50000   0.50000   0.00000  Uiso   1.00
Cl362  Cl    0.50000  -0.00000   0.50000   0.00000  Uiso   1.00
Cl363  Cl    0.50000   0.50000   0.00000   0.00000  Uiso   1.00
N376   N     0.41610   0.41610   0.47380   0.00000  Uiso   1.00
N377   N     0.94230   0.94230   0.52620   0.00000  Uiso   1.00
N378   N     0.05770   0.58390  -0.00000   0.00000  Uiso   1.00
N379   N     0.58390   0.05770  -0.00000   0.00000  Uiso   1.00
N380   N     0.47380   0.41610   0.41610   0.00000  Uiso   1.00
N381   N     0.52620   0.94230   0.94230   0.00000  Uiso   1.00
N382   N     0.00000   0.05770   0.58390   0.00000  Uiso   1.00
N383   N     0.00000   0.58390   0.05770   0.00000  Uiso   1.00
N384   N     0.41610   0.47380   0.41610   0.00000  Uiso   1.00
N385   N     0.94230   0.52620   0.94230   0.00000  Uiso   1.00
N386   N     0.58390  -0.00000   0.05770   0.00000  Uiso   1.00
N387   N     0.05770  -0.00000   0.58390   0.00000  Uiso   1.00
N388   N     0.05770   0.05770   0.47380   0.00000  Uiso   1.00
N389   N     0.58390   0.58390   0.52620   0.00000  Uiso   1.00
N390   N     0.94230   0.41610   0.00000   0.00000  Uiso   1.00
N391   N     0.41610   0.94230   0.00000   0.00000  Uiso   1.00
N392   N     0.94230  -0.00000   0.41610   0.00000  Uiso   1.00
N393   N     0.41610  -0.00000   0.94230   0.00000  Uiso   1.00
N394   N     0.58390   0.52620   0.58390   0.00000  Uiso   1.00
N395   N     0.05770   0.47380   0.05770   0.00000  Uiso   1.00
N396   N     0.00000   0.94230   0.41610   0.00000  Uiso   1.00
N397   N     0.00000   0.41610   0.94230   0.00000  Uiso   1.00
N398   N     0.47380   0.05770   0.05770   0.00000  Uiso   1.00
N399   N     0.52620   0.58390   0.58390   0.00000  Uiso   1.00
C400   C     0.21180   0.50520   0.50520   0.00000  Uiso   1.00
C401   C     0.26140   0.49500   0.49500   0.00000  Uiso   1.00
C402   C     0.35500   0.47010   0.47010   0.00000  Uiso   1.00
C403   C     0.39720   0.45240   0.45240   0.00000  Uiso   1.00
C404   C     0.00000   0.70660   0.49480   0.00000  Uiso   1.00
C405   C     0.00000   0.76640   0.50500   0.00000  Uiso   1.00
C406   C     0.00000   0.88490   0.52990   0.00000  Uiso   1.00
C407   C     0.00000   0.94480   0.54760   0.00000  Uiso   1.00
C408   C     0.00000   0.49480   0.70660   0.00000  Uiso   1.00
C409   C     0.00000   0.50500   0.76640   0.00000  Uiso   1.00
C410   C     0.00000   0.52990   0.88490   0.00000  Uiso   1.00
C411   C     0.00000   0.54760   0.94480   0.00000  Uiso   1.00
C412   C     0.78820   0.29340   0.29340   0.00000  Uiso   1.00
C413   C     0.73860   0.23360   0.23360   0.00000  Uiso   1.00
C414   C     0.64500   0.11510   0.11510   0.00000  Uiso   1.00
C415   C     0.60280   0.05520   0.05520   0.00000  Uiso   1.00
C416   C     0.50520   0.21180   0.50520   0.00000  Uiso   1.00
C417   C     0.49500   0.26140   0.49500   0.00000  Uiso   1.00
C418   C     0.47010   0.35500   0.47010   0.00000  Uiso   1.00
C419   C     0.45240   0.39720   0.45240   0.00000  Uiso   1.00
C420   C     0.49480  -0.00000   0.70660   0.00000  Uiso   1.00
C421   C     0.50500   0.00000   0.76640   0.00000  Uiso   1.00
C422   C     0.52990  -0.00000   0.88490   0.00000  Uiso   1.00
C423   C     0.54760  -0.00000   0.94480   0.00000  Uiso   1.00
C424   C     0.70660  -0.00000   0.49480   0.00000  Uiso   1.00
C425   C     0.76640  -0.00000   0.50500   0.00000  Uiso   1.00
C426   C     0.88490   0.00000   0.52990   0.00000  Uiso   1.00
C427   C     0.94480  -0.00000   0.54760   0.00000  Uiso   1.00
C428   C     0.29340   0.78820   0.29340   0.00000  Uiso   1.00
C429   C     0.23360   0.73860   0.23360   0.00000  Uiso   1.00
C430   C     0.11510   0.64500   0.11510   0.00000  Uiso   1.00
C431   C     0.05520   0.60280   0.05520   0.00000  Uiso   1.00
C432   C     0.50520   0.50520   0.21180   0.00000  Uiso   1.00
C433   C     0.49500   0.49500   0.26140   0.00000  Uiso   1.00
C434   C     0.47010   0.47010   0.35500   0.00000  Uiso   1.00
C435   C     0.45240   0.45240   0.39720   0.00000  Uiso   1.00
C436   C     0.70660   0.49480  -0.00000   0.00000  Uiso   1.00
C437   C     0.76640   0.50500   0.00000   0.00000  Uiso   1.00
C438   C     0.88490   0.52990   0.00000   0.00000  Uiso   1.00
C439   C     0.94480   0.54760   0.00000   0.00000  Uiso   1.00
C440   C     0.49480   0.70660   0.00000   0.00000  Uiso   1.00
C441   C     0.50500   0.76640   0.00000   0.00000  Uiso   1.00
C442   C     0.52990   0.88490   0.00000   0.00000  Uiso   1.00
C443   C     0.54760   0.94480  -0.00000   0.00000  Uiso   1.00
C444   C     0.29340   0.29340   0.78820   0.00000  Uiso   1.00
C445   C     0.23360   0.23360   0.73860   0.00000  Uiso   1.00
C446   C     0.11510   0.11510   0.64500   0.00000  Uiso   1.00
C447   C     0.05520   0.05520   0.60280   0.00000  Uiso   1.00
C448   C     0.29340  -0.00000   0.50520   0.00000  Uiso   1.00
C449   C     0.23360  -0.00000   0.49500   0.00000  Uiso   1.00
C450   C     0.11510  -0.00000   0.47010   0.00000  Uiso   1.00
C451   C     0.05520  -0.00000   0.45240   0.00000  Uiso   1.00
C452   C     0.49480   0.78820   0.49480   0.00000  Uiso   1.00
C453   C     0.50500   0.73860   0.50500   0.00000  Uiso   1.00
C454   C     0.52990   0.64500   0.52990   0.00000  Uiso   1.00
C455   C     0.54760   0.60280   0.54760   0.00000  Uiso   1.00
C456   C     0.70660   0.21180   0.70660   0.00000  Uiso   1.00
C457   C     0.76640   0.26140   0.76640   0.00000  Uiso   1.00
C458   C     0.88490   0.35500   0.88490   0.00000  Uiso   1.00
C459   C     0.94480   0.39720   0.94480   0.00000  Uiso   1.00
C460   C     0.50520  -0.00000   0.29340   0.00000  Uiso   1.00
C461   C     0.49500  -0.00000   0.23360   0.00000  Uiso   1.00
C462   C     0.47010  -0.00000   0.11510   0.00000  Uiso   1.00
C463   C     0.45240  -0.00000   0.05520   0.00000  Uiso   1.00
C464   C     0.00000   0.29340   0.50520   0.00000  Uiso   1.00
C465   C     0.00000   0.23360   0.49500   0.00000  Uiso   1.00
C466   C     0.00000   0.11510   0.47010   0.00000  Uiso   1.00
C467   C     0.00000   0.05520   0.45240   0.00000  Uiso   1.00
C468   C     0.21180   0.70660   0.70660   0.00000  Uiso   1.00
C469   C     0.26140   0.76640   0.76640   0.00000  Uiso   1.00
C470   C     0.35500   0.88490   0.88490   0.00000  Uiso   1.00
C471   C     0.39720   0.94480   0.94480   0.00000  Uiso   1.00
C472   C     0.78820   0.49480   0.49480   0.00000  Uiso   1.00
C473   C     0.73860   0.50500   0.50500   0.00000  Uiso   1.00
C474   C     0.64500   0.52990   0.52990   0.00000  Uiso   1.00
C475   C     0.60280   0.54760   0.54760   0.00000  Uiso   1.00
C476   C     0.00000   0.50520   0.29340   0.00000  Uiso   1.00
C477   C     0.00000   0.49500   0.23360   0.00000  Uiso   1.00
C478   C     0.00000   0.47010   0.11510   0.00000  Uiso   1.00
C479   C     0.00000   0.45240   0.05520   0.00000  Uiso   1.00
C480   C     0.70660   0.70660   0.21180   0.00000  Uiso   1.00
C481   C     0.76640   0.76640   0.26140   0.00000  Uiso   1.00
C482   C     0.88490   0.88490   0.35500   0.00000  Uiso   1.00
C483   C     0.94480   0.94480   0.39720   0.00000  Uiso   1.00
C484   C     0.29340   0.50520  -0.00000   0.00000  Uiso   1.00
C485   C     0.23360   0.49500   0.00000   0.00000  Uiso   1.00
C486   C     0.11510   0.47010   0.00000   0.00000  Uiso   1.00
C487   C     0.05520   0.45240   0.00000   0.00000  Uiso   1.00
C488   C     0.50520   0.29340   0.00000   0.00000  Uiso   1.00
C489   C     0.49500   0.23360   0.00000   0.00000  Uiso   1.00
C490   C     0.47010   0.11510  -0.00000   0.00000  Uiso   1.00
C491   C     0.45240   0.05520   0.00000   0.00000  Uiso   1.00
C492   C     0.49480   0.49480   0.78820   0.00000  Uiso   1.00
C493   C     0.50500   0.50500   0.73860   0.00000  Uiso   1.00
C494   C     0.52990   0.52990   0.64500   0.00000  Uiso   1.00
C495   C     0.54760   0.54760   0.60280   0.00000  Uiso   1.00
loop_
_geom_bond_atom_site_label_1
_geom_bond_atom_site_label_2
_geom_bond_distance
_geom_bond_site_symmetry_2
_ccdc_geom_bond_type
N1     N2      1.322   .     S
N1     N295    1.363   .     S
N1     Mn337   2.224   .     S
N2     C400    1.324   .     D
C3     H4      0.951   .     S
C3     C5      1.376   .     D
C3     C401    1.363   .     S
C5     H6      0.950   .     S
C5     C402    1.414   .     S
N8     N9      1.322   .     S
N8     Mn337   2.224   .     S
N8     N281    1.363   1_455 S
N9     C404    1.324   .     D
C10    H11     0.951   .     S
C10    C12     1.376   .     D
C10    C405    1.363   1_655 S
C12    H13     0.950   .     S
C12    C406    1.414   1_655 S
N15    N16     1.322   .     D
N15    Mn339   2.224   .     S
N15    N302    1.363   1_655 D
N16    C408    1.324   1_655 S
C17    H18     0.951   .     S
C17    C19     1.376   .     S
C17    C409    1.363   .     D
C19    H20     0.950   .     S
C19    C410    1.414   .     D
N22    N23     1.322   .     S
N22    N288    1.363   .     S
N22    Mn339   2.224   .     S
N23    C412    1.324   .     D
C24    H25     0.951   .     S
C24    C26     1.376   .     S
C24    C413    1.363   .     D
C26    H27     0.950   .     S
C26    C414    1.414   .     D
N29    N30     1.322   .     S
N29    N260    1.363   .     S
N29    Mn341   2.224   .     S
N30    C416    1.324   .     D
C31    H32     0.951   .     S
C31    C33     1.376   .     S
C31    C417    1.363   .     D
C33    H34     0.950   .     S
C33    C418    1.414   .     D
N36    N37     1.322   .     S
N36    Mn341   2.224   .     S
N36    N274    1.363   1_545 D
N37    C420    1.324   .     D
C38    H39     0.951   .     S
C38    C40     1.376   .     D
C38    C421    1.363   1_565 S
C40    H41     0.950   .     S
C40    C422    1.414   1_565 S
N43    N44     1.322   .     D
N43    Mn343   2.224   .     S
N43    N253    1.363   1_565 S
N44    C424    1.324   1_565 S
C45    H46     0.951   .     S
C45    C47     1.376   .     D
C45    C425    1.363   .     S
C47    H48     0.950   .     S
C47    C426    1.414   .     S
N50    N51     1.322   .     S
N50    N267    1.363   .     S
N50    Mn343   2.224   .     S
N51    C428    1.324   .     D
C52    H53     0.951   .     S
C52    C54     1.376   .     D
C52    C429    1.363   .     S
C54    H55     0.950   .     S
C54    C430    1.414   .     S
N57    N58     1.322   .     S
N57    N330    1.363   .     S
N57    Mn345   2.224   .     S
N58    C432    1.324   .     D
C59    H60     0.951   .     S
C59    C61     1.376   .     S
C59    C433    1.363   .     D
C61    H62     0.950   .     S
C61    C434    1.414   .     D
N64    N65     1.322   .     S
N64    Mn345   2.224   .     S
N64    N316    1.363   1_554 S
N65    C436    1.324   .     D
C66    H67     0.951   .     S
C66    C68     1.376   .     S
C66    C437    1.363   1_556 D
C68    H69     0.950   .     S
C68    C438    1.414   1_556 S
N71    N72     1.322   .     D
N71    Mn347   2.224   .     S
N71    N323    1.363   1_556 D
N72    C440    1.324   1_556 S
C73    H74     0.951   .     S
C73    C75     1.376   .     S
C73    C441    1.363   .     D
C75    H76     0.950   .     S
C75    C442    1.414   .     D
N78    N79     1.322   .     S
N78    N309    1.363   .     S
N78    Mn347   2.224   .     S
N79    C444    1.324   .     D
C80    H81     0.951   .     S
C80    C82     1.376   .     D
C80    C445    1.363   .     S
C82    H83     0.950   .     S
C82    C446    1.414   .     S
N85    N86     1.322   .     D
N85    Mn349   2.224   .     S
N85    N211    1.363   1_565 D
N86    C448    1.324   1_565 S
C87    H88     0.951   .     S
C87    C89     1.376   .     D
C87    C449    1.363   .     S
C89    H90     0.950   .     S
C89    C450    1.414   .     S
N92    N93     1.322   .     S
N92    N197    1.363   .     S
N92    Mn349   2.224   .     S
N93    C452    1.324   .     D
C94    H95     0.951   .     S
C94    C96     1.376   .     D
C94    C453    1.363   .     S
C96    H97     0.950   .     S
C96    C454    1.414   .     S
N99    N100    1.322   .     S
N99    N218    1.363   .     S
N99    Mn351   2.224   .     S
N100   C456    1.324   .     D
C101   H102    0.951   .     S
C101   C103    1.376   .     S
C101   C457    1.363   .     D
C103   H104    0.950   .     S
C103   C458    1.414   .     D
N106   N107    1.322   .     S
N106   Mn351   2.224   .     S
N106   N204    1.363   1_545 S
N107   C460    1.324   .     D
C108   H109    0.951   .     S
C108   C110    1.376   .     S
C108   C461    1.363   1_565 S
C110   H111    0.950   .     S
C110   C462    1.414   1_565 D
N113   N114    1.322   .     S
N113   Mn353   2.224   .     S
N113   N176    1.363   1_455 S
N114   C464    1.324   .     D
C115   H116    0.951   .     S
C115   C117    1.376   .     D
C115   C465    1.363   1_655 D
C117   H118    0.950   .     S
C117   C466    1.414   1_655 S
N120   N121    1.322   .     S
N120   N190    1.363   .     S
N120   Mn353   2.224   .     S
N121   C468    1.324   .     D
C122   H123    0.951   .     S
C122   C124    1.376   .     D
C122   C469    1.363   .     S
C124   H125    0.950   .     S
C124   C470    1.414   .     S
N127   N128    1.322   .     S
N127   N169    1.363   .     S
N127   Mn355   2.224   .     S
N128   C472    1.324   .     D
C129   H130    0.951   .     S
C129   C131    1.376   .     S
C129   C473    1.363   .     D
C131   H132    0.950   .     S
C131   C474    1.414   .     D
N134   N135    1.322   .     S
N134   Mn355   2.224   .     S
N134   N183    1.363   1_655 S
N135   C476    1.324   1_655 S
C136   H137    0.951   .     S
C136   C138    1.376   .     D
C136   C477    1.363   .     S
C138   H139    0.950   .     S
C138   C478    1.414   .     S
N141   N142    1.322   .     S
N141   N246    1.363   .     S
N141   Mn357   2.224   .     S
N142   C480    1.324   .     D
C143   H144    0.951   .     S
C143   C145    1.376   .     D
C143   C481    1.363   .     S
C145   H146    0.950   .     S
C145   C482    1.414   .     S
N148   N149    1.322   .     S
N148   Mn357   2.224   .     S
N148   N232    1.363   1_554 D
N149   C484    1.324   .     D
C150   H151    0.951   .     S
C150   C152    1.376   .     D
C150   C485    1.363   1_556 S
C152   H153    0.950   .     S
C152   C486    1.414   1_556 S
N155   N156    1.322   .     S
N155   Mn359   2.224   .     S
N155   N239    1.363   1_556 D
N156   C488    1.324   1_556 S
C157   H158    0.951   .     S
C157   C159    1.376   .     S
C157   C489    1.363   .     D
C159   H160    0.950   .     S
C159   C490    1.414   .     D
N162   N163    1.322   .     S
N162   N225    1.363   .     S
N162   Mn359   2.224   .     S
N163   C492    1.324   .     D
C164   H165    0.951   .     S
C164   C166    1.376   .     D
C164   C493    1.363   .     S
C166   H167    0.950   .     S
C166   C494    1.414   .     S
N169   N170    1.322   .     D
N169   Mn339   2.224   .     S
N170   C472    1.324   .     S
C171   H172    0.951   .     S
C171   C173    1.376   .     D
C171   C473    1.363   .     S
C173   H174    0.950   .     S
C173   C474    1.414   .     S
N176   N177    1.322   .     D
N176   Mn339   2.224   .     S
N176   N113    1.363   1_655 S
N177   C464    1.324   1_655 S
C178   H179    0.951   .     S
C178   C180    1.376   .     S
C178   C465    1.363   .     D
C180   H181    0.950   .     S
C180   C466    1.414   .     D
N183   N184    1.322   .     D
N183   Mn337   2.224   .     S
N183   N134    1.363   1_455 S
N184   C476    1.324   .     S
C185   H186    0.951   .     S
C185   C187    1.376   .     S
C185   C477    1.363   1_655 S
C187   H188    0.950   .     S
C187   C478    1.414   1_655 D
N190   N191    1.322   .     D
N190   Mn337   2.224   .     S
N191   C468    1.324   .     S
C192   H193    0.951   .     S
C192   C194    1.376   .     S
C192   C469    1.363   .     D
C194   H195    0.950   .     S
C194   C470    1.414   .     D
N197   N198    1.322   .     D
N197   Mn343   2.224   .     S
N198   C452    1.324   .     S
C199   H200    0.951   .     S
C199   C201    1.376   .     S
C199   C453    1.363   .     D
C201   H202    0.950   .     S
C201   C454    1.414   .     D
N204   N205    1.322   .     D
N204   Mn343   2.224   .     S
N204   N106    1.363   1_565 S
N205   C460    1.324   1_565 S
C206   H207    0.951   .     S
C206   C208    1.376   .     D
C206   C461    1.363   .     S
C208   H209    0.950   .     S
C208   C462    1.414   .     S
N211   N212    1.322   .     S
N211   Mn341   2.224   .     S
N211   N85     1.363   1_545 D
N212   C448    1.324   .     D
C213   H214    0.951   .     S
C213   C215    1.376   .     S
C213   C449    1.363   1_565 S
C215   H216    0.950   .     S
C215   C450    1.414   1_565 D
N218   N219    1.322   .     D
N218   Mn341   2.224   .     S
N219   C456    1.324   .     S
C220   H221    0.951   .     S
C220   C222    1.376   .     D
C220   C457    1.363   .     S
C222   H223    0.950   .     S
C222   C458    1.414   .     S
N225   N226    1.322   .     D
N225   Mn347   2.224   .     S
N226   C492    1.324   .     S
C227   H228    0.951   .     S
C227   C229    1.376   .     S
C227   C493    1.363   .     D
C229   H230    0.950   .     S
C229   C494    1.414   .     D
N232   N233    1.322   .     D
N232   Mn347   2.224   .     S
N232   N148    1.363   1_556 D
N233   C484    1.324   1_556 S
C234   H235    0.951   .     S
C234   C236    1.376   .     S
C234   C485    1.363   .     D
C236   H237    0.950   .     S
C236   C486    1.414   .     D
N239   N240    1.322   .     D
N239   Mn345   2.224   .     S
N239   N155    1.363   1_554 D
N240   C488    1.324   .     S
C241   H242    0.951   .     S
C241   C243    1.376   .     D
C241   C489    1.363   1_556 S
C243   H244    0.950   .     S
C243   C490    1.414   1_556 D
N246   N247    1.322   .     D
N246   Mn345   2.224   .     S
N247   C480    1.324   .     S
C248   H249    0.951   .     S
C248   C250    1.376   .     S
C248   C481    1.363   .     D
C250   H251    0.950   .     S
C250   C482    1.414   .     D
N253   N254    1.322   .     S
N253   Mn351   2.224   .     S
N253   N43     1.363   1_545 S
N254   C424    1.324   .     D
C255   H256    0.951   .     S
C255   C257    1.376   .     S
C255   C425    1.363   1_565 D
C257   H258    0.950   .     S
C257   C426    1.414   1_565 S
N260   N261    1.322   .     D
N260   Mn351   2.224   .     S
N261   C416    1.324   .     S
C262   H263    0.951   .     S
C262   C264    1.376   .     D
C262   C417    1.363   .     S
C264   H265    0.950   .     S
C264   C418    1.414   .     S
N267   N268    1.322   .     D
N267   Mn349   2.224   .     S
N268   C428    1.324   .     S
C269   H270    0.951   .     S
C269   C271    1.376   .     S
C269   C429    1.363   .     D
C271   H272    0.950   .     S
C271   C430    1.414   .     D
N274   N275    1.322   .     D
N274   Mn349   2.224   .     S
N274   N36     1.363   1_565 D
N275   C420    1.324   1_565 D
C276   H277    0.951   .     S
C276   C278    1.376   .     S
C276   C421    1.363   .     D
C278   H279    0.950   .     S
C278   C422    1.414   .     D
N281   N282    1.322   .     D
N281   Mn355   2.224   .     S
N281   N8      1.363   1_655 S
N282   C404    1.324   1_655 S
C283   H284    0.951   .     S
C283   C285    1.376   .     S
C283   C405    1.363   .     D
C285   H286    0.950   .     S
C285   C406    1.414   .     D
N288   N289    1.322   .     D
N288   Mn355   2.224   .     S
N289   C412    1.324   .     S
C290   H291    0.951   .     S
C290   C292    1.376   .     D
C290   C413    1.363   .     S
C292   H293    0.950   .     S
C292   C414    1.414   .     S
N295   N296    1.322   .     D
N295   Mn353   2.224   .     S
N296   C400    1.324   .     S
C297   H298    0.951   .     S
C297   C299    1.376   .     S
C297   C401    1.363   .     D
C299   H300    0.950   .     S
C299   C402    1.414   .     D
N302   N303    1.322   .     S
N302   Mn353   2.224   .     S
N302   N15     1.363   1_455 D
N303   C408    1.324   .     D
C304   H305    0.951   .     S
C304   C306    1.376   .     D
C304   C409    1.363   1_655 S
C306   H307    0.950   .     S
C306   C410    1.414   1_655 S
N309   N310    1.322   .     D
N309   Mn359   2.224   .     S
N310   C444    1.324   .     S
C311   H312    0.951   .     S
C311   C313    1.376   .     S
C311   C445    1.363   .     D
C313   H314    0.950   .     S
C313   C446    1.414   .     D
N316   N317    1.322   .     D
N316   Mn359   2.224   .     S
N316   N64     1.363   1_556 S
N317   C436    1.324   1_556 D
C318   H319    0.951   .     S
C318   C320    1.376   .     D
C318   C437    1.363   .     S
C320   H321    0.950   .     S
C320   C438    1.414   .     S
N323   N324    1.322   .     S
N323   Mn357   2.224   .     S
N323   N71     1.363   1_554 D
N324   C440    1.324   .     D
C325   H326    0.951   .     S
C325   C327    1.376   .     D
C325   C441    1.363   1_556 D
C327   H328    0.950   .     S
C327   C442    1.414   1_556 S
N330   N331    1.322   .     D
N330   Mn357   2.224   .     S
N331   C432    1.324   .     S
C332   H333    0.951   .     S
C332   C334    1.376   .     D
C332   C433    1.363   .     S
C334   H335    0.950   .     S
C334   C434    1.414   .     S
Mn337  O338    2.153   .     S
Mn339  O340    2.153   .     S
Mn341  O342    2.153   .     S
Mn343  O344    2.153   .     S
Mn345  O346    2.153   .     S
Mn347  O348    2.153   .     S
Mn349  O350    2.153   .     S
Mn351  O352    2.153   .     S
Mn353  O354    2.153   .     S
Mn355  O356    2.153   .     S
Mn357  O358    2.153   .     S
Mn359  O360    2.153   .     S
N376   C403    1.344   .     S
N376   C419    1.344   .     D
N377   C407    1.344   1_655 S
N377   C427    1.344   1_565 S
N378   C431    1.344   .     S
N378   C411    1.344   1_554 S
N379   C415    1.344   .     S
N379   C423    1.344   1_554 S
N380   C419    1.344   .     S
N380   C435    1.344   .     D
N381   C423    1.344   1_565 S
N381   C443    1.344   1_556 D
N382   C447    1.344   .     D
N382   C427    1.344   1_455 S
N383   C431    1.344   .     D
N383   C439    1.344   1_455 S
N384   C403    1.344   .     D
N384   C435    1.344   .     S
N385   C411    1.344   1_655 D
N385   C439    1.344   1_556 S
N386   C415    1.344   .     D
N386   C443    1.344   1_545 D
N387   C447    1.344   .     S
N387   C407    1.344   1_545 S
N388   C451    1.344   .     S
N388   C467    1.344   .     D
N389   C455    1.344   .     S
N389   C475    1.344   .     D
N390   C459    1.344   1_554 S
N390   C479    1.344   1_655 D
N391   C463    1.344   1_565 S
N391   C471    1.344   1_554 S
N392   C467    1.344   1_655 S
N392   C483    1.344   1_545 D
N393   C471    1.344   1_545 S
N393   C491    1.344   1_556 S
N394   C475    1.344   .     S
N394   C495    1.344   .     D
N395   C479    1.344   .     S
N395   C487    1.344   .     D
N396   C451    1.344   1_565 S
N396   C483    1.344   1_455 D
N397   C459    1.344   1_455 S
N397   C487    1.344   1_556 D
N398   C463    1.344   .     D
N398   C491    1.344   .     S
N399   C455    1.344   .     D
N399   C495    1.344   .     S
C400   C401    1.444   .     S
C402   C403    1.426   .     S
C404   C405    1.444   .     S
C404   N282    1.324   1_455 S
C405   C10     1.363   1_455 S
C406   C407    1.426   .     S
C406   C12     1.414   1_455 S
C407   N377    1.344   1_455 S
C407   N387    1.344   1_565 S
C408   C409    1.444   .     S
C408   N16     1.324   1_455 S
C409   C304    1.363   1_455 S
C410   C411    1.426   .     S
C410   C306    1.414   1_455 S
C411   N378    1.344   1_556 S
C411   N385    1.344   1_455 D
C412   C413    1.444   .     S
C414   C415    1.426   .     S
C416   C417    1.444   .     S
C418   C419    1.426   .     S
C420   C421    1.444   .     S
C420   N275    1.324   1_545 D
C421   C38     1.363   1_545 S
C422   C423    1.426   .     S
C422   C40     1.414   1_545 S
C423   N379    1.344   1_556 S
C423   N381    1.344   1_545 S
C424   C425    1.444   .     S
C424   N44     1.324   1_545 S
C425   C255    1.363   1_545 D
C426   C427    1.426   .     S
C426   C257    1.414   1_545 S
C427   N377    1.344   1_545 S
C427   N382    1.344   1_655 S
C428   C429    1.444   .     S
C430   C431    1.426   .     S
C432   C433    1.444   .     S
C434   C435    1.426   .     S
C436   C437    1.444   .     S
C436   N317    1.324   1_554 D
C437   C66     1.363   1_554 D
C438   C439    1.426   .     S
C438   C68     1.414   1_554 S
C439   N383    1.344   1_655 S
C439   N385    1.344   1_554 S
C440   C441    1.444   .     S
C440   N72     1.324   1_554 S
C441   C325    1.363   1_554 D
C442   C443    1.426   .     S
C442   C327    1.414   1_554 S
C443   N381    1.344   1_554 D
C443   N386    1.344   1_565 D
C444   C445    1.444   .     S
C446   C447    1.426   .     S
C448   C449    1.444   .     S
C448   N86     1.324   1_545 S
C449   C213    1.363   1_545 S
C450   C451    1.426   .     S
C450   C215    1.414   1_545 D
C451   N396    1.344   1_545 S
C452   C453    1.444   .     S
C454   C455    1.426   .     S
C456   C457    1.444   .     S
C458   C459    1.426   .     S
C459   N390    1.344   1_556 S
C459   N397    1.344   1_655 S
C460   C461    1.444   .     S
C460   N205    1.324   1_545 S
C461   C108    1.363   1_545 S
C462   C463    1.426   .     S
C462   C110    1.414   1_545 D
C463   N391    1.344   1_545 S
C464   C465    1.444   .     S
C464   N177    1.324   1_455 S
C465   C115    1.363   1_455 D
C466   C467    1.426   .     S
C466   C117    1.414   1_455 S
C467   N392    1.344   1_455 S
C468   C469    1.444   .     S
C470   C471    1.426   .     S
C471   N391    1.344   1_556 S
C471   N393    1.344   1_565 S
C472   C473    1.444   .     S
C474   C475    1.426   .     S
C476   C477    1.444   .     S
C476   N135    1.324   1_455 S
C477   C185    1.363   1_455 S
C478   C479    1.426   .     S
C478   C187    1.414   1_455 D
C479   N390    1.344   1_455 D
C480   C481    1.444   .     S
C482   C483    1.426   .     S
C483   N392    1.344   1_565 D
C483   N396    1.344   1_655 D
C484   C485    1.444   .     S
C484   N233    1.324   1_554 S
C485   C150    1.363   1_554 S
C486   C487    1.426   .     S
C486   C152    1.414   1_554 S
C487   N397    1.344   1_554 D
C488   C489    1.444   .     S
C488   N156    1.324   1_554 S
C489   C241    1.363   1_554 S
C490   C491    1.426   .     S
C490   C243    1.414   1_554 D
C491   N393    1.344   1_554 S
C492   C493    1.444   .     S
C494   C495    1.426   .     S
