data_image0
_cell_length_a       22.5756
_cell_length_b       29.6302
_cell_length_c       28.208
_cell_angle_alpha    90
_cell_angle_beta     90
_cell_angle_gamma    90

_symmetry_space_group_name_H-M    P 1
_symmetry_int_tables_number       1

loop_
  _symmetry_equiv_pos_as_xyz
  'x, y, z'

loop_
  _atom_site_label
  _atom_site_occupancy
  _atom_site_fract_x
  _atom_site_fract_y
  _atom_site_fract_z
  _atom_site_thermal_displace_type
  _atom_site_B_iso_or_equiv
  _atom_site_type_symbol
  Zn1      1.0000 0.35714  0.12640  0.65802  Biso   1.000  Zn
  Zn2      1.0000 0.42135  0.12495  0.77307  Biso   1.000  Zn
  Zn3      1.0000 0.85414  0.37189  0.86128  Biso   1.000  Zn
  Zn4      1.0000 0.76101  0.45867  0.90002  Biso   1.000  Zn
  Zn5      1.0000 0.85714  0.87360  0.84198  Biso   1.000  Zn
  Zn6      1.0000 0.92135  0.87505  0.72693  Biso   1.000  Zn
  Zn7      1.0000 0.35414  0.62811  0.63872  Biso   1.000  Zn
  Zn8      1.0000 0.26101  0.54133  0.59998  Biso   1.000  Zn
  Zn9      1.0000 0.64286  0.87360  0.34198  Biso   1.000  Zn
  Zn10     1.0000 0.57865  0.87505  0.22693  Biso   1.000  Zn
  Zn11     1.0000 0.14586  0.62811  0.13872  Biso   1.000  Zn
  Zn12     1.0000 0.23899  0.54133  0.09998  Biso   1.000  Zn
  Zn13     1.0000 0.14286  0.12640  0.15802  Biso   1.000  Zn
  Zn14     1.0000 0.07865  0.12495  0.27307  Biso   1.000  Zn
  Zn15     1.0000 0.64586  0.37189  0.36128  Biso   1.000  Zn
  Zn16     1.0000 0.73899  0.45867  0.40002  Biso   1.000  Zn
  Si1      1.0000 0.56181  0.37765  0.66004  Biso   1.000  Si
  Si2      1.0000 0.06176  0.12215  0.85771  Biso   1.000  Si
  Si3      1.0000 0.06181  0.62235  0.83996  Biso   1.000  Si
  Si4      1.0000 0.56176  0.87785  0.64229  Biso   1.000  Si
  Si5      1.0000 0.43819  0.62235  0.33996  Biso   1.000  Si
  Si6      1.0000 0.93824  0.87785  0.14229  Biso   1.000  Si
  Si7      1.0000 0.93819  0.37765  0.16004  Biso   1.000  Si
  Si8      1.0000 0.43824  0.12215  0.35771  Biso   1.000  Si
  H1       1.0000 0.47500  0.32010  0.60950  Biso   1.000  H
  H2       1.0000 0.42520  0.25370  0.62540  Biso   1.000  H
  H3       1.0000 0.50820  0.24460  0.75100  Biso   1.000  H
  H4       1.0000 0.55770  0.31070  0.73510  Biso   1.000  H
  H5       1.0000 0.56570  0.41210  0.75380  Biso   1.000  H
  H6       1.0000 0.63480  0.41530  0.81550  Biso   1.000  H
  H7       1.0000 0.75840  0.35840  0.73020  Biso   1.000  H
  H8       1.0000 0.68930  0.35520  0.66840  Biso   1.000  H
  H9       1.0000 0.62800  0.44280  0.61000  Biso   1.000  H
  H10      1.0000 0.66920  0.45120  0.53440  Biso   1.000  H
  H11      1.0000 0.61310  0.32570  0.49940  Biso   1.000  H
  H12      1.0000 0.57190  0.31730  0.57500  Biso   1.000  H
  H13      1.0000 0.56850  0.47600  0.66110  Biso   1.000  H
  H14      1.0000 0.50330  0.53500  0.65400  Biso   1.000  H
  H15      1.0000 0.36660  0.44830  0.66140  Biso   1.000  H
  H16      1.0000 0.43300  0.38890  0.66820  Biso   1.000  H
  H17      1.0000 0.18970  0.11730  0.87050  Biso   1.000  H
  H18      1.0000 0.27350  0.11720  0.82330  Biso   1.000  H
  H19      1.0000 0.16980  0.14500  0.71050  Biso   1.000  H
  H20      1.0000 0.08840  0.14480  0.75800  Biso   1.000  H
  H21      1.0000 0.07460  0.22040  0.85080  Biso   1.000  H
  H22      1.0000 0.01030  0.28240  0.85090  Biso   1.000  H
  H23      1.0000 0.87110  0.19920  0.85070  Biso   1.000  H
  H24      1.0000 0.93330  0.13720  0.85040  Biso   1.000  H
  H25      1.0000 0.06730  0.05670  0.77870  Biso   1.000  H
  H26      1.0000 0.01890  0.99040  0.75870  Biso   1.000  H
  H27      1.0000 0.91920  0.99990  0.87710  Biso   1.000  H
  H28      1.0000 0.96670  0.06670  0.89630  Biso   1.000  H
  H29      1.0000 0.10340  0.04690  0.91610  Biso   1.000  H
  H30      1.0000 0.14030  0.03750  0.99140  Biso   1.000  H
  H31      1.0000 0.11240  0.16690  0.02090  Biso   1.000  H
  H32      1.0000 0.07530  0.17870  0.94360  Biso   1.000  H
  H33      1.0000 0.97500  0.67990  0.89050  Biso   1.000  H
  H34      1.0000 0.92520  0.74630  0.87460  Biso   1.000  H
  H35      1.0000 0.00820  0.75540  0.74900  Biso   1.000  H
  H36      1.0000 0.05770  0.68930  0.76490  Biso   1.000  H
  H37      1.0000 0.06570  0.58790  0.74620  Biso   1.000  H
  H38      1.0000 0.13480  0.58470  0.68450  Biso   1.000  H
  H39      1.0000 0.25840  0.64160  0.76980  Biso   1.000  H
  H40      1.0000 0.18930  0.64480  0.83160  Biso   1.000  H
  H41      1.0000 0.12800  0.55720  0.89000  Biso   1.000  H
  H42      1.0000 0.16920  0.54880  0.96560  Biso   1.000  H
  H43      1.0000 0.11310  0.67430  0.00060  Biso   1.000  H
  H44      1.0000 0.07190  0.68270  0.92500  Biso   1.000  H
  H45      1.0000 0.06850  0.52400  0.83890  Biso   1.000  H
  H46      1.0000 0.00330  0.46500  0.84600  Biso   1.000  H
  H47      1.0000 0.86660  0.55170  0.83860  Biso   1.000  H
  H48      1.0000 0.93300  0.61110  0.83180  Biso   1.000  H
  H49      1.0000 0.68970  0.88270  0.62950  Biso   1.000  H
  H50      1.0000 0.77350  0.88280  0.67670  Biso   1.000  H
  H51      1.0000 0.66980  0.85500  0.78950  Biso   1.000  H
  H52      1.0000 0.58840  0.85520  0.74200  Biso   1.000  H
  H53      1.0000 0.57460  0.77960  0.64920  Biso   1.000  H
  H54      1.0000 0.51030  0.71760  0.64910  Biso   1.000  H
  H55      1.0000 0.37110  0.80080  0.64930  Biso   1.000  H
  H56      1.0000 0.43330  0.86280  0.64960  Biso   1.000  H
  H57      1.0000 0.56730  0.94330  0.72130  Biso   1.000  H
  H58      1.0000 0.51890  0.00960  0.74130  Biso   1.000  H
  H59      1.0000 0.41920  0.00010  0.62290  Biso   1.000  H
  H60      1.0000 0.46670  0.93330  0.60370  Biso   1.000  H
  H61      1.0000 0.60340  0.95310  0.58390  Biso   1.000  H
  H62      1.0000 0.64030  0.96250  0.50860  Biso   1.000  H
  H63      1.0000 0.61240  0.83310  0.47910  Biso   1.000  H
  H64      1.0000 0.57530  0.82130  0.55640  Biso   1.000  H
  H65      1.0000 0.52500  0.67990  0.39050  Biso   1.000  H
  H66      1.0000 0.57480  0.74630  0.37460  Biso   1.000  H
  H67      1.0000 0.49180  0.75540  0.24900  Biso   1.000  H
  H68      1.0000 0.44230  0.68930  0.26490  Biso   1.000  H
  H69      1.0000 0.43430  0.58790  0.24620  Biso   1.000  H
  H70      1.0000 0.36520  0.58470  0.18450  Biso   1.000  H
  H71      1.0000 0.24160  0.64160  0.26980  Biso   1.000  H
  H72      1.0000 0.31070  0.64480  0.33160  Biso   1.000  H
  H73      1.0000 0.37200  0.55720  0.39000  Biso   1.000  H
  H74      1.0000 0.33080  0.54880  0.46560  Biso   1.000  H
  H75      1.0000 0.38690  0.67430  0.50060  Biso   1.000  H
  H76      1.0000 0.42810  0.68270  0.42500  Biso   1.000  H
  H77      1.0000 0.43150  0.52400  0.33890  Biso   1.000  H
  H78      1.0000 0.49670  0.46500  0.34600  Biso   1.000  H
  H79      1.0000 0.63340  0.55170  0.33860  Biso   1.000  H
  H80      1.0000 0.56700  0.61110  0.33180  Biso   1.000  H
  H81      1.0000 0.81030  0.88270  0.12950  Biso   1.000  H
  H82      1.0000 0.72650  0.88280  0.17670  Biso   1.000  H
  H83      1.0000 0.83020  0.85500  0.28950  Biso   1.000  H
  H84      1.0000 0.91160  0.85520  0.24200  Biso   1.000  H
  H85      1.0000 0.92540  0.77960  0.14920  Biso   1.000  H
  H86      1.0000 0.98970  0.71760  0.14910  Biso   1.000  H
  H87      1.0000 0.12890  0.80080  0.14930  Biso   1.000  H
  H88      1.0000 0.06670  0.86280  0.14960  Biso   1.000  H
  H89      1.0000 0.93270  0.94330  0.22130  Biso   1.000  H
  H90      1.0000 0.98110  0.00960  0.24130  Biso   1.000  H
  H91      1.0000 0.08080  0.00010  0.12290  Biso   1.000  H
  H92      1.0000 0.03330  0.93330  0.10370  Biso   1.000  H
  H93      1.0000 0.89660  0.95310  0.08390  Biso   1.000  H
  H94      1.0000 0.85970  0.96250  0.00860  Biso   1.000  H
  H95      1.0000 0.88760  0.83310  0.97910  Biso   1.000  H
  H96      1.0000 0.92470  0.82130  0.05640  Biso   1.000  H
  H97      1.0000 0.02500  0.32010  0.10950  Biso   1.000  H
  H98      1.0000 0.07480  0.25370  0.12540  Biso   1.000  H
  H99      1.0000 0.99180  0.24460  0.25100  Biso   1.000  H
  H100     1.0000 0.94230  0.31070  0.23510  Biso   1.000  H
  H101     1.0000 0.93430  0.41210  0.25380  Biso   1.000  H
  H102     1.0000 0.86520  0.41530  0.31550  Biso   1.000  H
  H103     1.0000 0.74160  0.35840  0.23020  Biso   1.000  H
  H104     1.0000 0.81070  0.35520  0.16840  Biso   1.000  H
  H105     1.0000 0.87200  0.44280  0.11000  Biso   1.000  H
  H106     1.0000 0.83080  0.45120  0.03440  Biso   1.000  H
  H107     1.0000 0.88690  0.32570  0.99940  Biso   1.000  H
  H108     1.0000 0.92810  0.31730  0.07500  Biso   1.000  H
  H109     1.0000 0.93150  0.47600  0.16110  Biso   1.000  H
  H110     1.0000 0.99670  0.53500  0.15400  Biso   1.000  H
  H111     1.0000 0.13340  0.44830  0.16140  Biso   1.000  H
  H112     1.0000 0.06700  0.38890  0.16820  Biso   1.000  H
  H113     1.0000 0.31030  0.11730  0.37050  Biso   1.000  H
  H114     1.0000 0.22650  0.11720  0.32330  Biso   1.000  H
  H115     1.0000 0.33020  0.14500  0.21050  Biso   1.000  H
  H116     1.0000 0.41160  0.14480  0.25800  Biso   1.000  H
  H117     1.0000 0.42540  0.22040  0.35080  Biso   1.000  H
  H118     1.0000 0.48970  0.28240  0.35090  Biso   1.000  H
  H119     1.0000 0.62890  0.19920  0.35070  Biso   1.000  H
  H120     1.0000 0.56670  0.13720  0.35040  Biso   1.000  H
  H121     1.0000 0.43270  0.05670  0.27870  Biso   1.000  H
  H122     1.0000 0.48110  0.99040  0.25870  Biso   1.000  H
  H123     1.0000 0.58080  0.99990  0.37710  Biso   1.000  H
  H124     1.0000 0.53330  0.06670  0.39630  Biso   1.000  H
  H125     1.0000 0.39660  0.04690  0.41610  Biso   1.000  H
  H126     1.0000 0.35970  0.03750  0.49140  Biso   1.000  H
  H127     1.0000 0.38760  0.16690  0.52090  Biso   1.000  H
  H128     1.0000 0.42470  0.17870  0.44360  Biso   1.000  H
  C1       1.0000 0.52233  0.32325  0.67128  Biso   1.000  C
  C2       1.0000 0.48220  0.30473  0.63855  Biso   1.000  C
  C3       1.0000 0.45320  0.26495  0.64760  Biso   1.000  C
  C4       1.0000 0.46440  0.24109  0.68876  Biso   1.000  C
  C5       1.0000 0.50200  0.25951  0.72153  Biso   1.000  C
  C6       1.0000 0.53070  0.29929  0.71219  Biso   1.000  C
  C7       1.0000 0.43510  0.19689  0.69770  Biso   1.000  C
  C8       1.0000 0.62100  0.38338  0.70529  Biso   1.000  C
  C9       1.0000 0.60480  0.40120  0.74900  Biso   1.000  C
  C10      1.0000 0.64590  0.40310  0.78566  Biso   1.000  C
  C11      1.0000 0.70310  0.38720  0.77864  Biso   1.000  C
  C12      1.0000 0.71930  0.36930  0.73500  Biso   1.000  C
  C13      1.0000 0.67830  0.36740  0.69828  Biso   1.000  C
  C14      1.0000 0.74600  0.39020  0.81900  Biso   1.000  C
  C15      1.0000 0.59605  0.37927  0.59959  Biso   1.000  C
  C16      1.0000 0.62500  0.41906  0.58753  Biso   1.000  C
  C17      1.0000 0.64950  0.42404  0.54263  Biso   1.000  C
  C18      1.0000 0.64510  0.38923  0.50979  Biso   1.000  C
  C19      1.0000 0.61610  0.34944  0.52184  Biso   1.000  C
  C20      1.0000 0.59160  0.34446  0.56674  Biso   1.000  C
  C21      1.0000 0.67090  0.39480  0.46110  Biso   1.000  C
  C22      1.0000 0.50726  0.42589  0.66273  Biso   1.000  C
  C23      1.0000 0.52720  0.47007  0.66026  Biso   1.000  C
  C24      1.0000 0.48840  0.50512  0.65661  Biso   1.000  C
  C25      1.0000 0.42750  0.49826  0.65660  Biso   1.000  C
  C26      1.0000 0.40792  0.45425  0.66089  Biso   1.000  C
  C27      1.0000 0.44760  0.41875  0.66446  Biso   1.000  C
  C28      1.0000 0.38580  0.53601  0.64990  Biso   1.000  C
  C29      1.0000 0.12918  0.12925  0.81941  Biso   1.000  C
  C30      1.0000 0.18550  0.12233  0.83744  Biso   1.000  C
  C31      1.0000 0.23560  0.12241  0.80972  Biso   1.000  C
  C32      1.0000 0.22951  0.13026  0.76164  Biso   1.000  C
  C33      1.0000 0.17410  0.13877  0.74336  Biso   1.000  C
  C34      1.0000 0.12600  0.13843  0.77162  Biso   1.000  C
  C35      1.0000 0.28460  0.12966  0.73187  Biso   1.000  C
  C36      1.0000 0.01187  0.17158  0.85260  Biso   1.000  C
  C37      1.0000 0.03307  0.21538  0.85156  Biso   1.000  C
  C38      1.0000 0.99460  0.25266  0.85160  Biso   1.000  C
  C39      1.0000 0.93492  0.24631  0.85258  Biso   1.000  C
  C40      1.0000 0.91278  0.20362  0.85145  Biso   1.000  C
  C41      1.0000 0.94990  0.16665  0.85135  Biso   1.000  C
  C42      1.0000 0.89180  0.28630  0.85594  Biso   1.000  C
  C43      1.0000 0.02202  0.06922  0.84034  Biso   1.000  C
  C44      1.0000 0.03699  0.04539  0.79876  Biso   1.000  C
  C45      1.0000 0.00844  0.00599  0.78685  Biso   1.000  C
  C46      1.0000 0.96463  0.98929  0.81591  Biso   1.000  C
  C47      1.0000 0.94914  0.01162  0.85694  Biso   1.000  C
  C48      1.0000 0.97784  0.05117  0.86818  Biso   1.000  C
  C49      1.0000 0.93469  0.94599  0.80249  Biso   1.000  C
  C50      1.0000 0.08680  0.11459  0.92077  Biso   1.000  C
  C51      1.0000 0.10560  0.07219  0.93682  Biso   1.000  C
  C52      1.0000 0.12730  0.06650  0.98171  Biso   1.000  C
  C53      1.0000 0.13040  0.10040  0.01167  Biso   1.000  C
  C54      1.0000 0.11090  0.14270  0.99889  Biso   1.000  C
  C55      1.0000 0.08890  0.14960  0.95273  Biso   1.000  C
  C56      1.0000 0.15320  0.09580  0.06280  Biso   1.000  C
  C57      1.0000 0.02233  0.67675  0.82872  Biso   1.000  C
  C58      1.0000 0.98220  0.69527  0.86145  Biso   1.000  C
  C59      1.0000 0.95320  0.73505  0.85240  Biso   1.000  C
  C60      1.0000 0.96440  0.75891  0.81124  Biso   1.000  C
  C61      1.0000 0.00200  0.74049  0.77847  Biso   1.000  C
  C62      1.0000 0.03070  0.70071  0.78781  Biso   1.000  C
  C63      1.0000 0.93510  0.80311  0.80230  Biso   1.000  C
  C64      1.0000 0.12100  0.61662  0.79471  Biso   1.000  C
  C65      1.0000 0.10480  0.59880  0.75100  Biso   1.000  C
  C66      1.0000 0.14590  0.59690  0.71434  Biso   1.000  C
  C67      1.0000 0.20310  0.61280  0.72136  Biso   1.000  C
  C68      1.0000 0.21930  0.63070  0.76500  Biso   1.000  C
  C69      1.0000 0.17830  0.63260  0.80172  Biso   1.000  C
  C70      1.0000 0.24600  0.60980  0.68100  Biso   1.000  C
  C71      1.0000 0.09605  0.62073  0.90041  Biso   1.000  C
  C72      1.0000 0.12500  0.58094  0.91247  Biso   1.000  C
  C73      1.0000 0.14950  0.57596  0.95737  Biso   1.000  C
  C74      1.0000 0.14510  0.61077  0.99021  Biso   1.000  C
  C75      1.0000 0.11610  0.65056  0.97816  Biso   1.000  C
  C76      1.0000 0.09160  0.65554  0.93326  Biso   1.000  C
  C77      1.0000 0.17090  0.60520  0.03890  Biso   1.000  C
  C78      1.0000 0.00726  0.57411  0.83727  Biso   1.000  C
  C79      1.0000 0.02720  0.52993  0.83974  Biso   1.000  C
  C80      1.0000 0.98840  0.49488  0.84339  Biso   1.000  C
  C81      1.0000 0.92750  0.50174  0.84340  Biso   1.000  C
  C82      1.0000 0.90792  0.54575  0.83911  Biso   1.000  C
  C83      1.0000 0.94760  0.58125  0.83554  Biso   1.000  C
  C84      1.0000 0.88580  0.46399  0.85010  Biso   1.000  C
  C85      1.0000 0.62918  0.87075  0.68059  Biso   1.000  C
  C86      1.0000 0.68550  0.87767  0.66256  Biso   1.000  C
  C87      1.0000 0.73560  0.87759  0.69028  Biso   1.000  C
  C88      1.0000 0.72951  0.86974  0.73836  Biso   1.000  C
  C89      1.0000 0.67410  0.86123  0.75664  Biso   1.000  C
  C90      1.0000 0.62600  0.86157  0.72838  Biso   1.000  C
  C91      1.0000 0.78460  0.87034  0.76813  Biso   1.000  C
  C92      1.0000 0.51187  0.82842  0.64740  Biso   1.000  C
  C93      1.0000 0.53307  0.78462  0.64844  Biso   1.000  C
  C94      1.0000 0.49460  0.74734  0.64840  Biso   1.000  C
  C95      1.0000 0.43492  0.75369  0.64742  Biso   1.000  C
  C96      1.0000 0.41278  0.79638  0.64855  Biso   1.000  C
  C97      1.0000 0.44990  0.83335  0.64865  Biso   1.000  C
  C98      1.0000 0.39180  0.71370  0.64406  Biso   1.000  C
  C99      1.0000 0.52202  0.93078  0.65966  Biso   1.000  C
  C100     1.0000 0.53699  0.95461  0.70124  Biso   1.000  C
  C101     1.0000 0.50844  0.99401  0.71315  Biso   1.000  C
  C102     1.0000 0.46463  0.01071  0.68409  Biso   1.000  C
  C103     1.0000 0.44914  0.98838  0.64306  Biso   1.000  C
  C104     1.0000 0.47784  0.94883  0.63182  Biso   1.000  C
  C105     1.0000 0.43469  0.05401  0.69751  Biso   1.000  C
  C106     1.0000 0.58680  0.88541  0.57923  Biso   1.000  C
  C107     1.0000 0.60560  0.92781  0.56318  Biso   1.000  C
  C108     1.0000 0.62730  0.93350  0.51829  Biso   1.000  C
  C109     1.0000 0.63040  0.89960  0.48833  Biso   1.000  C
  C110     1.0000 0.61090  0.85730  0.50111  Biso   1.000  C
  C111     1.0000 0.58890  0.85040  0.54727  Biso   1.000  C
  C112     1.0000 0.65320  0.90420  0.43720  Biso   1.000  C
  C113     1.0000 0.47767  0.67675  0.32872  Biso   1.000  C
  C114     1.0000 0.51780  0.69527  0.36145  Biso   1.000  C
  C115     1.0000 0.54680  0.73505  0.35240  Biso   1.000  C
  C116     1.0000 0.53560  0.75891  0.31124  Biso   1.000  C
  C117     1.0000 0.49800  0.74049  0.27847  Biso   1.000  C
  C118     1.0000 0.46930  0.70071  0.28781  Biso   1.000  C
  C119     1.0000 0.56490  0.80311  0.30230  Biso   1.000  C
  C120     1.0000 0.37900  0.61662  0.29471  Biso   1.000  C
  C121     1.0000 0.39520  0.59880  0.25100  Biso   1.000  C
  C122     1.0000 0.35410  0.59690  0.21434  Biso   1.000  C
  C123     1.0000 0.29690  0.61280  0.22136  Biso   1.000  C
  C124     1.0000 0.28070  0.63070  0.26500  Biso   1.000  C
  C125     1.0000 0.32170  0.63260  0.30172  Biso   1.000  C
  C126     1.0000 0.25400  0.60980  0.18100  Biso   1.000  C
  C127     1.0000 0.40395  0.62073  0.40041  Biso   1.000  C
  C128     1.0000 0.37500  0.58094  0.41247  Biso   1.000  C
  C129     1.0000 0.35050  0.57596  0.45737  Biso   1.000  C
  C130     1.0000 0.35490  0.61077  0.49021  Biso   1.000  C
  C131     1.0000 0.38390  0.65056  0.47816  Biso   1.000  C
  C132     1.0000 0.40840  0.65554  0.43326  Biso   1.000  C
  C133     1.0000 0.32910  0.60520  0.53890  Biso   1.000  C
  C134     1.0000 0.49274  0.57411  0.33727  Biso   1.000  C
  C135     1.0000 0.47280  0.52993  0.33974  Biso   1.000  C
  C136     1.0000 0.51160  0.49488  0.34339  Biso   1.000  C
  C137     1.0000 0.57250  0.50174  0.34340  Biso   1.000  C
  C138     1.0000 0.59208  0.54575  0.33911  Biso   1.000  C
  C139     1.0000 0.55240  0.58125  0.33554  Biso   1.000  C
  C140     1.0000 0.61420  0.46399  0.35010  Biso   1.000  C
  C141     1.0000 0.87082  0.87075  0.18059  Biso   1.000  C
  C142     1.0000 0.81450  0.87767  0.16256  Biso   1.000  C
  C143     1.0000 0.76440  0.87759  0.19028  Biso   1.000  C
  C144     1.0000 0.77049  0.86974  0.23836  Biso   1.000  C
  C145     1.0000 0.82590  0.86123  0.25664  Biso   1.000  C
  C146     1.0000 0.87400  0.86157  0.22838  Biso   1.000  C
  C147     1.0000 0.71540  0.87034  0.26813  Biso   1.000  C
  C148     1.0000 0.98813  0.82842  0.14740  Biso   1.000  C
  C149     1.0000 0.96693  0.78462  0.14844  Biso   1.000  C
  C150     1.0000 0.00540  0.74734  0.14840  Biso   1.000  C
  C151     1.0000 0.06508  0.75369  0.14742  Biso   1.000  C
  C152     1.0000 0.08722  0.79638  0.14855  Biso   1.000  C
  C153     1.0000 0.05010  0.83335  0.14865  Biso   1.000  C
  C154     1.0000 0.10820  0.71370  0.14406  Biso   1.000  C
  C155     1.0000 0.97798  0.93078  0.15966  Biso   1.000  C
  C156     1.0000 0.96301  0.95461  0.20124  Biso   1.000  C
  C157     1.0000 0.99156  0.99401  0.21315  Biso   1.000  C
  C158     1.0000 0.03537  0.01071  0.18409  Biso   1.000  C
  C159     1.0000 0.05086  0.98838  0.14306  Biso   1.000  C
  C160     1.0000 0.02216  0.94883  0.13182  Biso   1.000  C
  C161     1.0000 0.06531  0.05401  0.19751  Biso   1.000  C
  C162     1.0000 0.91320  0.88541  0.07923  Biso   1.000  C
  C163     1.0000 0.89440  0.92781  0.06318  Biso   1.000  C
  C164     1.0000 0.87270  0.93350  0.01829  Biso   1.000  C
  C165     1.0000 0.86960  0.89960  0.98833  Biso   1.000  C
  C166     1.0000 0.88910  0.85730  0.00111  Biso   1.000  C
  C167     1.0000 0.91110  0.85040  0.04727  Biso   1.000  C
  C168     1.0000 0.84680  0.90420  0.93720  Biso   1.000  C
  C169     1.0000 0.97767  0.32325  0.17128  Biso   1.000  C
  C170     1.0000 0.01780  0.30473  0.13855  Biso   1.000  C
  C171     1.0000 0.04680  0.26495  0.14760  Biso   1.000  C
  C172     1.0000 0.03560  0.24109  0.18876  Biso   1.000  C
  C173     1.0000 0.99800  0.25951  0.22153  Biso   1.000  C
  C174     1.0000 0.96930  0.29929  0.21219  Biso   1.000  C
  C175     1.0000 0.06490  0.19689  0.19770  Biso   1.000  C
  C176     1.0000 0.87900  0.38338  0.20529  Biso   1.000  C
  C177     1.0000 0.89520  0.40120  0.24900  Biso   1.000  C
  C178     1.0000 0.85410  0.40310  0.28566  Biso   1.000  C
  C179     1.0000 0.79690  0.38720  0.27864  Biso   1.000  C
  C180     1.0000 0.78070  0.36930  0.23500  Biso   1.000  C
  C181     1.0000 0.82170  0.36740  0.19828  Biso   1.000  C
  C182     1.0000 0.75400  0.39020  0.31900  Biso   1.000  C
  C183     1.0000 0.90395  0.37927  0.09959  Biso   1.000  C
  C184     1.0000 0.87500  0.41906  0.08753  Biso   1.000  C
  C185     1.0000 0.85050  0.42404  0.04263  Biso   1.000  C
  C186     1.0000 0.85490  0.38923  0.00979  Biso   1.000  C
  C187     1.0000 0.88390  0.34944  0.02184  Biso   1.000  C
  C188     1.0000 0.90840  0.34446  0.06674  Biso   1.000  C
  C189     1.0000 0.82910  0.39480  0.96110  Biso   1.000  C
  C190     1.0000 0.99274  0.42589  0.16273  Biso   1.000  C
  C191     1.0000 0.97280  0.47007  0.16026  Biso   1.000  C
  C192     1.0000 0.01160  0.50512  0.15661  Biso   1.000  C
  C193     1.0000 0.07250  0.49826  0.15660  Biso   1.000  C
  C194     1.0000 0.09208  0.45425  0.16089  Biso   1.000  C
  C195     1.0000 0.05240  0.41875  0.16446  Biso   1.000  C
  C196     1.0000 0.11420  0.53601  0.14990  Biso   1.000  C
  C197     1.0000 0.37082  0.12925  0.31941  Biso   1.000  C
  C198     1.0000 0.31450  0.12233  0.33744  Biso   1.000  C
  C199     1.0000 0.26440  0.12241  0.30972  Biso   1.000  C
  C200     1.0000 0.27049  0.13026  0.26164  Biso   1.000  C
  C201     1.0000 0.32590  0.13877  0.24336  Biso   1.000  C
  C202     1.0000 0.37400  0.13843  0.27162  Biso   1.000  C
  C203     1.0000 0.21540  0.12966  0.23187  Biso   1.000  C
  C204     1.0000 0.48813  0.17158  0.35260  Biso   1.000  C
  C205     1.0000 0.46693  0.21538  0.35156  Biso   1.000  C
  C206     1.0000 0.50540  0.25266  0.35160  Biso   1.000  C
  C207     1.0000 0.56508  0.24631  0.35258  Biso   1.000  C
  C208     1.0000 0.58722  0.20362  0.35145  Biso   1.000  C
  C209     1.0000 0.55010  0.16665  0.35135  Biso   1.000  C
  C210     1.0000 0.60820  0.28630  0.35594  Biso   1.000  C
  C211     1.0000 0.47798  0.06922  0.34034  Biso   1.000  C
  C212     1.0000 0.46301  0.04539  0.29876  Biso   1.000  C
  C213     1.0000 0.49156  0.00599  0.28685  Biso   1.000  C
  C214     1.0000 0.53537  0.98929  0.31591  Biso   1.000  C
  C215     1.0000 0.55086  0.01162  0.35694  Biso   1.000  C
  C216     1.0000 0.52216  0.05117  0.36818  Biso   1.000  C
  C217     1.0000 0.56531  0.94599  0.30249  Biso   1.000  C
  C218     1.0000 0.41320  0.11459  0.42077  Biso   1.000  C
  C219     1.0000 0.39440  0.07219  0.43682  Biso   1.000  C
  C220     1.0000 0.37270  0.06650  0.48171  Biso   1.000  C
  C221     1.0000 0.36960  0.10040  0.51167  Biso   1.000  C
  C222     1.0000 0.38910  0.14270  0.49889  Biso   1.000  C
  C223     1.0000 0.41110  0.14960  0.45273  Biso   1.000  C
  C224     1.0000 0.34680  0.09580  0.56280  Biso   1.000  C
  O1       1.0000 0.40396  0.18142  0.66554  Biso   1.000  O
  O2       1.0000 0.44382  0.17872  0.73695  Biso   1.000  O
  O3       1.0000 0.72970  0.41000  0.85648  Biso   1.000  O
  O4       1.0000 0.79460  0.37030  0.81300  Biso   1.000  O
  O5       1.0000 0.69140  0.43360  0.45180  Biso   1.000  O
  O6       1.0000 0.65870  0.36520  0.43070  Biso   1.000  O
  O7       1.0000 0.40575  0.57559  0.64954  Biso   1.000  O
  O8       1.0000 0.33222  0.52757  0.64587  Biso   1.000  O
  O9       1.0000 0.33270  0.12598  0.75154  Biso   1.000  O
  O10      1.0000 0.27809  0.13100  0.68703  Biso   1.000  O
  O11      1.0000 0.91499  0.32514  0.84932  Biso   1.000  O
  O12      1.0000 0.84003  0.28089  0.86509  Biso   1.000  O
  O13      1.0000 0.94319  0.93037  0.76199  Biso   1.000  O
  O14      1.0000 0.90143  0.92913  0.83399  Biso   1.000  O
  O15      1.0000 0.16840  0.05480  0.07390  Biso   1.000  O
  O16      1.0000 0.14980  0.12893  0.08926  Biso   1.000  O
  O17      1.0000 0.39080  0.17670  0.82140  Biso   1.000  O
  O18      1.0000 0.51310  0.12500  0.79210  Biso   1.000  O
  O19      1.0000 0.67990  0.45580  0.93940  Biso   1.000  O
  O20      1.0000 0.72750  0.51360  0.86610  Biso   1.000  O
  O21      1.0000 0.90396  0.81858  0.83446  Biso   1.000  O
  O22      1.0000 0.94382  0.82128  0.76305  Biso   1.000  O
  O23      1.0000 0.22970  0.59000  0.64352  Biso   1.000  O
  O24      1.0000 0.29460  0.62970  0.68700  Biso   1.000  O
  O25      1.0000 0.19140  0.56640  0.04820  Biso   1.000  O
  O26      1.0000 0.15870  0.63480  0.06930  Biso   1.000  O
  O27      1.0000 0.90575  0.42441  0.85046  Biso   1.000  O
  O28      1.0000 0.83222  0.47243  0.85413  Biso   1.000  O
  O29      1.0000 0.83270  0.87402  0.74846  Biso   1.000  O
  O30      1.0000 0.77809  0.86900  0.81297  Biso   1.000  O
  O31      1.0000 0.41499  0.67486  0.65068  Biso   1.000  O
  O32      1.0000 0.34003  0.71911  0.63491  Biso   1.000  O
  O33      1.0000 0.44319  0.06963  0.73801  Biso   1.000  O
  O34      1.0000 0.40143  0.07087  0.66601  Biso   1.000  O
  O35      1.0000 0.66840  0.94520  0.42610  Biso   1.000  O
  O36      1.0000 0.64980  0.87107  0.41074  Biso   1.000  O
  O37      1.0000 0.89080  0.82330  0.67860  Biso   1.000  O
  O38      1.0000 0.01310  0.87500  0.70790  Biso   1.000  O
  O39      1.0000 0.17990  0.54420  0.56060  Biso   1.000  O
  O40      1.0000 0.22750  0.48640  0.63390  Biso   1.000  O
  O41      1.0000 0.59604  0.81858  0.33446  Biso   1.000  O
  O42      1.0000 0.55618  0.82128  0.26305  Biso   1.000  O
  O43      1.0000 0.27030  0.59000  0.14352  Biso   1.000  O
  O44      1.0000 0.20540  0.62970  0.18700  Biso   1.000  O
  O45      1.0000 0.30860  0.56640  0.54820  Biso   1.000  O
  O46      1.0000 0.34130  0.63480  0.56930  Biso   1.000  O
  O47      1.0000 0.59425  0.42441  0.35046  Biso   1.000  O
  O48      1.0000 0.66778  0.47243  0.35413  Biso   1.000  O
  O49      1.0000 0.66730  0.87402  0.24846  Biso   1.000  O
  O50      1.0000 0.72191  0.86900  0.31297  Biso   1.000  O
  O51      1.0000 0.08501  0.67486  0.15068  Biso   1.000  O
  O52      1.0000 0.15997  0.71911  0.13491  Biso   1.000  O
  O53      1.0000 0.05681  0.06963  0.23801  Biso   1.000  O
  O54      1.0000 0.09857  0.07087  0.16601  Biso   1.000  O
  O55      1.0000 0.83160  0.94520  0.92610  Biso   1.000  O
  O56      1.0000 0.85020  0.87107  0.91074  Biso   1.000  O
  O57      1.0000 0.60920  0.82330  0.17860  Biso   1.000  O
  O58      1.0000 0.48690  0.87500  0.20790  Biso   1.000  O
  O59      1.0000 0.32010  0.54420  0.06060  Biso   1.000  O
  O60      1.0000 0.27250  0.48640  0.13390  Biso   1.000  O
  O61      1.0000 0.09604  0.18142  0.16554  Biso   1.000  O
  O62      1.0000 0.05618  0.17872  0.23695  Biso   1.000  O
  O63      1.0000 0.77030  0.41000  0.35648  Biso   1.000  O
  O64      1.0000 0.70540  0.37030  0.31300  Biso   1.000  O
  O65      1.0000 0.80860  0.43360  0.95180  Biso   1.000  O
  O66      1.0000 0.84130  0.36520  0.93070  Biso   1.000  O
  O67      1.0000 0.09425  0.57559  0.14954  Biso   1.000  O
  O68      1.0000 0.16778  0.52757  0.14587  Biso   1.000  O
  O69      1.0000 0.16730  0.12598  0.25154  Biso   1.000  O
  O70      1.0000 0.22191  0.13100  0.18703  Biso   1.000  O
  O71      1.0000 0.58501  0.32514  0.34932  Biso   1.000  O
  O72      1.0000 0.65997  0.28089  0.36509  Biso   1.000  O
  O73      1.0000 0.55681  0.93037  0.26199  Biso   1.000  O
  O74      1.0000 0.59857  0.92913  0.33399  Biso   1.000  O
  O75      1.0000 0.33160  0.05480  0.57390  Biso   1.000  O
  O76      1.0000 0.35020  0.12893  0.58926  Biso   1.000  O
  O77      1.0000 0.10920  0.17670  0.32140  Biso   1.000  O
  O78      1.0000 0.98690  0.12500  0.29210  Biso   1.000  O
  O79      1.0000 0.82010  0.45580  0.43940  Biso   1.000  O
  O80      1.0000 0.77250  0.51360  0.36610  Biso   1.000  O
  Zn17     1.0000 0.14286  0.37360  0.65802  Biso   1.000  Zn
  Zn18     1.0000 0.07865  0.37505  0.77307  Biso   1.000  Zn
  Zn19     1.0000 0.64586  0.12811  0.86128  Biso   1.000  Zn
  Zn20     1.0000 0.73899  0.04133  0.90002  Biso   1.000  Zn
  Zn21     1.0000 0.64286  0.62640  0.84198  Biso   1.000  Zn
  Zn22     1.0000 0.57865  0.62495  0.72693  Biso   1.000  Zn
  Zn23     1.0000 0.14586  0.87189  0.63872  Biso   1.000  Zn
  Zn24     1.0000 0.23899  0.95867  0.59998  Biso   1.000  Zn
  Zn25     1.0000 0.85714  0.62640  0.34198  Biso   1.000  Zn
  Zn26     1.0000 0.92135  0.62495  0.22693  Biso   1.000  Zn
  Zn27     1.0000 0.35414  0.87189  0.13872  Biso   1.000  Zn
  Zn28     1.0000 0.26101  0.95867  0.09998  Biso   1.000  Zn
  Zn29     1.0000 0.35714  0.37360  0.15802  Biso   1.000  Zn
  Zn30     1.0000 0.42135  0.37505  0.27307  Biso   1.000  Zn
  Zn31     1.0000 0.85414  0.12811  0.36128  Biso   1.000  Zn
  Zn32     1.0000 0.76101  0.04133  0.40002  Biso   1.000  Zn
  Si9      1.0000 0.93819  0.12235  0.66004  Biso   1.000  Si
  Si10     1.0000 0.43824  0.37785  0.85771  Biso   1.000  Si
  Si11     1.0000 0.43819  0.87765  0.83996  Biso   1.000  Si
  Si12     1.0000 0.93824  0.62215  0.64229  Biso   1.000  Si
  Si13     1.0000 0.06181  0.87765  0.33996  Biso   1.000  Si
  Si14     1.0000 0.56176  0.62215  0.14229  Biso   1.000  Si
  Si15     1.0000 0.56181  0.12235  0.16004  Biso   1.000  Si
  Si16     1.0000 0.06176  0.37785  0.35771  Biso   1.000  Si
  H129     1.0000 0.02500  0.17990  0.60950  Biso   1.000  H
  H130     1.0000 0.07480  0.24630  0.62540  Biso   1.000  H
  H131     1.0000 0.99180  0.25540  0.75100  Biso   1.000  H
  H132     1.0000 0.94230  0.18930  0.73510  Biso   1.000  H
  H133     1.0000 0.93430  0.08790  0.75380  Biso   1.000  H
  H134     1.0000 0.86520  0.08470  0.81550  Biso   1.000  H
  H135     1.0000 0.74160  0.14160  0.73020  Biso   1.000  H
  H136     1.0000 0.81070  0.14480  0.66840  Biso   1.000  H
  H137     1.0000 0.87200  0.05720  0.61000  Biso   1.000  H
  H138     1.0000 0.83080  0.04880  0.53440  Biso   1.000  H
  H139     1.0000 0.88690  0.17430  0.49940  Biso   1.000  H
  H140     1.0000 0.92810  0.18270  0.57500  Biso   1.000  H
  H141     1.0000 0.93150  0.02400  0.66110  Biso   1.000  H
  H142     1.0000 0.99670  0.96500  0.65400  Biso   1.000  H
  H143     1.0000 0.13340  0.05170  0.66140  Biso   1.000  H
  H144     1.0000 0.06700  0.11110  0.66820  Biso   1.000  H
  H145     1.0000 0.31030  0.38270  0.87050  Biso   1.000  H
  H146     1.0000 0.22650  0.38280  0.82330  Biso   1.000  H
  H147     1.0000 0.33020  0.35500  0.71050  Biso   1.000  H
  H148     1.0000 0.41160  0.35520  0.75800  Biso   1.000  H
  H149     1.0000 0.42540  0.27960  0.85080  Biso   1.000  H
  H150     1.0000 0.48970  0.21760  0.85090  Biso   1.000  H
  H151     1.0000 0.62890  0.30080  0.85070  Biso   1.000  H
  H152     1.0000 0.56670  0.36280  0.85040  Biso   1.000  H
  H153     1.0000 0.43270  0.44330  0.77870  Biso   1.000  H
  H154     1.0000 0.48110  0.50960  0.75870  Biso   1.000  H
  H155     1.0000 0.58080  0.50010  0.87710  Biso   1.000  H
  H156     1.0000 0.53330  0.43330  0.89630  Biso   1.000  H
  H157     1.0000 0.39660  0.45310  0.91610  Biso   1.000  H
  H158     1.0000 0.35970  0.46250  0.99140  Biso   1.000  H
  H159     1.0000 0.38760  0.33310  0.02090  Biso   1.000  H
  H160     1.0000 0.42470  0.32130  0.94360  Biso   1.000  H
  H161     1.0000 0.52500  0.82010  0.89050  Biso   1.000  H
  H162     1.0000 0.57480  0.75370  0.87460  Biso   1.000  H
  H163     1.0000 0.49180  0.74460  0.74900  Biso   1.000  H
  H164     1.0000 0.44230  0.81070  0.76490  Biso   1.000  H
  H165     1.0000 0.43430  0.91210  0.74620  Biso   1.000  H
  H166     1.0000 0.36520  0.91530  0.68450  Biso   1.000  H
  H167     1.0000 0.24160  0.85840  0.76980  Biso   1.000  H
  H168     1.0000 0.31070  0.85520  0.83160  Biso   1.000  H
  H169     1.0000 0.37200  0.94280  0.89000  Biso   1.000  H
  H170     1.0000 0.33080  0.95120  0.96560  Biso   1.000  H
  H171     1.0000 0.38690  0.82570  0.00060  Biso   1.000  H
  H172     1.0000 0.42810  0.81730  0.92500  Biso   1.000  H
  H173     1.0000 0.43150  0.97600  0.83890  Biso   1.000  H
  H174     1.0000 0.49670  0.03500  0.84600  Biso   1.000  H
  H175     1.0000 0.63340  0.94830  0.83860  Biso   1.000  H
  H176     1.0000 0.56700  0.88890  0.83180  Biso   1.000  H
  H177     1.0000 0.81030  0.61730  0.62950  Biso   1.000  H
  H178     1.0000 0.72650  0.61720  0.67670  Biso   1.000  H
  H179     1.0000 0.83020  0.64500  0.78950  Biso   1.000  H
  H180     1.0000 0.91160  0.64480  0.74200  Biso   1.000  H
  H181     1.0000 0.92540  0.72040  0.64920  Biso   1.000  H
  H182     1.0000 0.98970  0.78240  0.64910  Biso   1.000  H
  H183     1.0000 0.12890  0.69920  0.64930  Biso   1.000  H
  H184     1.0000 0.06670  0.63720  0.64960  Biso   1.000  H
  H185     1.0000 0.93270  0.55670  0.72130  Biso   1.000  H
  H186     1.0000 0.98110  0.49040  0.74130  Biso   1.000  H
  H187     1.0000 0.08080  0.49990  0.62290  Biso   1.000  H
  H188     1.0000 0.03330  0.56670  0.60370  Biso   1.000  H
  H189     1.0000 0.89660  0.54690  0.58390  Biso   1.000  H
  H190     1.0000 0.85970  0.53750  0.50860  Biso   1.000  H
  H191     1.0000 0.88760  0.66690  0.47910  Biso   1.000  H
  H192     1.0000 0.92470  0.67870  0.55640  Biso   1.000  H
  H193     1.0000 0.97500  0.82010  0.39050  Biso   1.000  H
  H194     1.0000 0.92520  0.75370  0.37460  Biso   1.000  H
  H195     1.0000 0.00820  0.74460  0.24900  Biso   1.000  H
  H196     1.0000 0.05770  0.81070  0.26490  Biso   1.000  H
  H197     1.0000 0.06570  0.91210  0.24620  Biso   1.000  H
  H198     1.0000 0.13480  0.91530  0.18450  Biso   1.000  H
  H199     1.0000 0.25840  0.85840  0.26980  Biso   1.000  H
  H200     1.0000 0.18930  0.85520  0.33160  Biso   1.000  H
  H201     1.0000 0.12800  0.94280  0.39000  Biso   1.000  H
  H202     1.0000 0.16920  0.95120  0.46560  Biso   1.000  H
  H203     1.0000 0.11310  0.82570  0.50060  Biso   1.000  H
  H204     1.0000 0.07190  0.81730  0.42500  Biso   1.000  H
  H205     1.0000 0.06850  0.97600  0.33890  Biso   1.000  H
  H206     1.0000 0.00330  0.03500  0.34600  Biso   1.000  H
  H207     1.0000 0.86660  0.94830  0.33860  Biso   1.000  H
  H208     1.0000 0.93300  0.88890  0.33180  Biso   1.000  H
  H209     1.0000 0.68970  0.61730  0.12950  Biso   1.000  H
  H210     1.0000 0.77350  0.61720  0.17670  Biso   1.000  H
  H211     1.0000 0.66980  0.64500  0.28950  Biso   1.000  H
  H212     1.0000 0.58840  0.64480  0.24200  Biso   1.000  H
  H213     1.0000 0.57460  0.72040  0.14920  Biso   1.000  H
  H214     1.0000 0.51030  0.78240  0.14910  Biso   1.000  H
  H215     1.0000 0.37110  0.69920  0.14930  Biso   1.000  H
  H216     1.0000 0.43330  0.63720  0.14960  Biso   1.000  H
  H217     1.0000 0.56730  0.55670  0.22130  Biso   1.000  H
  H218     1.0000 0.51890  0.49040  0.24130  Biso   1.000  H
  H219     1.0000 0.41920  0.49990  0.12290  Biso   1.000  H
  H220     1.0000 0.46670  0.56670  0.10370  Biso   1.000  H
  H221     1.0000 0.60340  0.54690  0.08390  Biso   1.000  H
  H222     1.0000 0.64030  0.53750  0.00860  Biso   1.000  H
  H223     1.0000 0.61240  0.66690  0.97910  Biso   1.000  H
  H224     1.0000 0.57530  0.67870  0.05640  Biso   1.000  H
  H225     1.0000 0.47500  0.17990  0.10950  Biso   1.000  H
  H226     1.0000 0.42520  0.24630  0.12540  Biso   1.000  H
  H227     1.0000 0.50820  0.25540  0.25100  Biso   1.000  H
  H228     1.0000 0.55770  0.18930  0.23510  Biso   1.000  H
  H229     1.0000 0.56570  0.08790  0.25380  Biso   1.000  H
  H230     1.0000 0.63480  0.08470  0.31550  Biso   1.000  H
  H231     1.0000 0.75840  0.14160  0.23020  Biso   1.000  H
  H232     1.0000 0.68930  0.14480  0.16840  Biso   1.000  H
  H233     1.0000 0.62800  0.05720  0.11000  Biso   1.000  H
  H234     1.0000 0.66920  0.04880  0.03440  Biso   1.000  H
  H235     1.0000 0.61310  0.17430  0.99940  Biso   1.000  H
  H236     1.0000 0.57190  0.18270  0.07500  Biso   1.000  H
  H237     1.0000 0.56850  0.02400  0.16110  Biso   1.000  H
  H238     1.0000 0.50330  0.96500  0.15400  Biso   1.000  H
  H239     1.0000 0.36660  0.05170  0.16140  Biso   1.000  H
  H240     1.0000 0.43300  0.11110  0.16820  Biso   1.000  H
  H241     1.0000 0.18970  0.38270  0.37050  Biso   1.000  H
  H242     1.0000 0.27350  0.38280  0.32330  Biso   1.000  H
  H243     1.0000 0.16980  0.35500  0.21050  Biso   1.000  H
  H244     1.0000 0.08840  0.35520  0.25800  Biso   1.000  H
  H245     1.0000 0.07460  0.27960  0.35080  Biso   1.000  H
  H246     1.0000 0.01030  0.21760  0.35090  Biso   1.000  H
  H247     1.0000 0.87110  0.30080  0.35070  Biso   1.000  H
  H248     1.0000 0.93330  0.36280  0.35040  Biso   1.000  H
  H249     1.0000 0.06730  0.44330  0.27870  Biso   1.000  H
  H250     1.0000 0.01890  0.50960  0.25870  Biso   1.000  H
  H251     1.0000 0.91920  0.50010  0.37710  Biso   1.000  H
  H252     1.0000 0.96670  0.43330  0.39630  Biso   1.000  H
  H253     1.0000 0.10340  0.45310  0.41610  Biso   1.000  H
  H254     1.0000 0.14030  0.46250  0.49140  Biso   1.000  H
  H255     1.0000 0.11240  0.33310  0.52090  Biso   1.000  H
  H256     1.0000 0.07530  0.32130  0.44360  Biso   1.000  H
  C225     1.0000 0.97767  0.17675  0.67128  Biso   1.000  C
  C226     1.0000 0.01780  0.19527  0.63855  Biso   1.000  C
  C227     1.0000 0.04680  0.23505  0.64760  Biso   1.000  C
  C228     1.0000 0.03560  0.25891  0.68876  Biso   1.000  C
  C229     1.0000 0.99800  0.24049  0.72153  Biso   1.000  C
  C230     1.0000 0.96930  0.20071  0.71219  Biso   1.000  C
  C231     1.0000 0.06490  0.30311  0.69770  Biso   1.000  C
  C232     1.0000 0.87900  0.11662  0.70529  Biso   1.000  C
  C233     1.0000 0.89520  0.09880  0.74900  Biso   1.000  C
  C234     1.0000 0.85410  0.09690  0.78566  Biso   1.000  C
  C235     1.0000 0.79690  0.11280  0.77864  Biso   1.000  C
  C236     1.0000 0.78070  0.13070  0.73500  Biso   1.000  C
  C237     1.0000 0.82170  0.13260  0.69828  Biso   1.000  C
  C238     1.0000 0.75400  0.10980  0.81900  Biso   1.000  C
  C239     1.0000 0.90395  0.12073  0.59959  Biso   1.000  C
  C240     1.0000 0.87500  0.08094  0.58753  Biso   1.000  C
  C241     1.0000 0.85050  0.07596  0.54263  Biso   1.000  C
  C242     1.0000 0.85490  0.11077  0.50979  Biso   1.000  C
  C243     1.0000 0.88390  0.15056  0.52184  Biso   1.000  C
  C244     1.0000 0.90840  0.15554  0.56674  Biso   1.000  C
  C245     1.0000 0.82910  0.10520  0.46110  Biso   1.000  C
  C246     1.0000 0.99274  0.07411  0.66273  Biso   1.000  C
  C247     1.0000 0.97280  0.02993  0.66026  Biso   1.000  C
  C248     1.0000 0.01160  0.99488  0.65661  Biso   1.000  C
  C249     1.0000 0.07250  0.00174  0.65660  Biso   1.000  C
  C250     1.0000 0.09208  0.04575  0.66089  Biso   1.000  C
  C251     1.0000 0.05240  0.08125  0.66446  Biso   1.000  C
  C252     1.0000 0.11420  0.96399  0.64990  Biso   1.000  C
  C253     1.0000 0.37082  0.37075  0.81941  Biso   1.000  C
  C254     1.0000 0.31450  0.37767  0.83744  Biso   1.000  C
  C255     1.0000 0.26440  0.37759  0.80972  Biso   1.000  C
  C256     1.0000 0.27049  0.36974  0.76164  Biso   1.000  C
  C257     1.0000 0.32590  0.36123  0.74336  Biso   1.000  C
  C258     1.0000 0.37400  0.36157  0.77162  Biso   1.000  C
  C259     1.0000 0.21540  0.37034  0.73187  Biso   1.000  C
  C260     1.0000 0.48813  0.32842  0.85260  Biso   1.000  C
  C261     1.0000 0.46693  0.28462  0.85156  Biso   1.000  C
  C262     1.0000 0.50540  0.24734  0.85160  Biso   1.000  C
  C263     1.0000 0.56508  0.25369  0.85258  Biso   1.000  C
  C264     1.0000 0.58722  0.29638  0.85145  Biso   1.000  C
  C265     1.0000 0.55010  0.33335  0.85135  Biso   1.000  C
  C266     1.0000 0.60820  0.21370  0.85594  Biso   1.000  C
  C267     1.0000 0.47798  0.43078  0.84034  Biso   1.000  C
  C268     1.0000 0.46301  0.45461  0.79876  Biso   1.000  C
  C269     1.0000 0.49156  0.49401  0.78685  Biso   1.000  C
  C270     1.0000 0.53537  0.51071  0.81591  Biso   1.000  C
  C271     1.0000 0.55086  0.48838  0.85694  Biso   1.000  C
  C272     1.0000 0.52216  0.44883  0.86818  Biso   1.000  C
  C273     1.0000 0.56531  0.55401  0.80249  Biso   1.000  C
  C274     1.0000 0.41320  0.38541  0.92077  Biso   1.000  C
  C275     1.0000 0.39440  0.42781  0.93682  Biso   1.000  C
  C276     1.0000 0.37270  0.43350  0.98171  Biso   1.000  C
  C277     1.0000 0.36960  0.39960  0.01167  Biso   1.000  C
  C278     1.0000 0.38910  0.35730  0.99889  Biso   1.000  C
  C279     1.0000 0.41110  0.35040  0.95273  Biso   1.000  C
  C280     1.0000 0.34680  0.40420  0.06280  Biso   1.000  C
  C281     1.0000 0.47767  0.82325  0.82872  Biso   1.000  C
  C282     1.0000 0.51780  0.80473  0.86145  Biso   1.000  C
  C283     1.0000 0.54680  0.76495  0.85240  Biso   1.000  C
  C284     1.0000 0.53560  0.74109  0.81124  Biso   1.000  C
  C285     1.0000 0.49800  0.75951  0.77847  Biso   1.000  C
  C286     1.0000 0.46930  0.79929  0.78781  Biso   1.000  C
  C287     1.0000 0.56490  0.69689  0.80230  Biso   1.000  C
  C288     1.0000 0.37900  0.88338  0.79471  Biso   1.000  C
  C289     1.0000 0.39520  0.90120  0.75100  Biso   1.000  C
  C290     1.0000 0.35410  0.90310  0.71434  Biso   1.000  C
  C291     1.0000 0.29690  0.88720  0.72136  Biso   1.000  C
  C292     1.0000 0.28070  0.86930  0.76500  Biso   1.000  C
  C293     1.0000 0.32170  0.86740  0.80172  Biso   1.000  C
  C294     1.0000 0.25400  0.89020  0.68100  Biso   1.000  C
  C295     1.0000 0.40395  0.87927  0.90041  Biso   1.000  C
  C296     1.0000 0.37500  0.91906  0.91247  Biso   1.000  C
  C297     1.0000 0.35050  0.92404  0.95737  Biso   1.000  C
  C298     1.0000 0.35490  0.88923  0.99021  Biso   1.000  C
  C299     1.0000 0.38390  0.84944  0.97816  Biso   1.000  C
  C300     1.0000 0.40840  0.84446  0.93326  Biso   1.000  C
  C301     1.0000 0.32910  0.89480  0.03890  Biso   1.000  C
  C302     1.0000 0.49274  0.92589  0.83727  Biso   1.000  C
  C303     1.0000 0.47280  0.97007  0.83974  Biso   1.000  C
  C304     1.0000 0.51160  0.00512  0.84339  Biso   1.000  C
  C305     1.0000 0.57250  0.99826  0.84340  Biso   1.000  C
  C306     1.0000 0.59208  0.95425  0.83911  Biso   1.000  C
  C307     1.0000 0.55240  0.91875  0.83554  Biso   1.000  C
  C308     1.0000 0.61420  0.03601  0.85010  Biso   1.000  C
  C309     1.0000 0.87082  0.62925  0.68059  Biso   1.000  C
  C310     1.0000 0.81450  0.62233  0.66256  Biso   1.000  C
  C311     1.0000 0.76440  0.62241  0.69028  Biso   1.000  C
  C312     1.0000 0.77049  0.63026  0.73836  Biso   1.000  C
  C313     1.0000 0.82590  0.63877  0.75664  Biso   1.000  C
  C314     1.0000 0.87400  0.63843  0.72838  Biso   1.000  C
  C315     1.0000 0.71540  0.62966  0.76813  Biso   1.000  C
  C316     1.0000 0.98813  0.67158  0.64740  Biso   1.000  C
  C317     1.0000 0.96693  0.71538  0.64844  Biso   1.000  C
  C318     1.0000 0.00540  0.75266  0.64840  Biso   1.000  C
  C319     1.0000 0.06508  0.74631  0.64742  Biso   1.000  C
  C320     1.0000 0.08722  0.70362  0.64855  Biso   1.000  C
  C321     1.0000 0.05010  0.66665  0.64865  Biso   1.000  C
  C322     1.0000 0.10820  0.78630  0.64406  Biso   1.000  C
  C323     1.0000 0.97798  0.56922  0.65966  Biso   1.000  C
  C324     1.0000 0.96301  0.54539  0.70124  Biso   1.000  C
  C325     1.0000 0.99156  0.50599  0.71315  Biso   1.000  C
  C326     1.0000 0.03537  0.48929  0.68409  Biso   1.000  C
  C327     1.0000 0.05086  0.51162  0.64306  Biso   1.000  C
  C328     1.0000 0.02216  0.55117  0.63182  Biso   1.000  C
  C329     1.0000 0.06531  0.44599  0.69751  Biso   1.000  C
  C330     1.0000 0.91320  0.61459  0.57923  Biso   1.000  C
  C331     1.0000 0.89440  0.57219  0.56318  Biso   1.000  C
  C332     1.0000 0.87270  0.56650  0.51829  Biso   1.000  C
  C333     1.0000 0.86960  0.60040  0.48833  Biso   1.000  C
  C334     1.0000 0.88910  0.64270  0.50111  Biso   1.000  C
  C335     1.0000 0.91110  0.64960  0.54727  Biso   1.000  C
  C336     1.0000 0.84680  0.59580  0.43720  Biso   1.000  C
  C337     1.0000 0.02233  0.82325  0.32872  Biso   1.000  C
  C338     1.0000 0.98220  0.80473  0.36145  Biso   1.000  C
  C339     1.0000 0.95320  0.76495  0.35240  Biso   1.000  C
  C340     1.0000 0.96440  0.74109  0.31124  Biso   1.000  C
  C341     1.0000 0.00200  0.75951  0.27847  Biso   1.000  C
  C342     1.0000 0.03070  0.79929  0.28781  Biso   1.000  C
  C343     1.0000 0.93510  0.69689  0.30230  Biso   1.000  C
  C344     1.0000 0.12100  0.88338  0.29471  Biso   1.000  C
  C345     1.0000 0.10480  0.90120  0.25100  Biso   1.000  C
  C346     1.0000 0.14590  0.90310  0.21434  Biso   1.000  C
  C347     1.0000 0.20310  0.88720  0.22136  Biso   1.000  C
  C348     1.0000 0.21930  0.86930  0.26500  Biso   1.000  C
  C349     1.0000 0.17830  0.86740  0.30172  Biso   1.000  C
  C350     1.0000 0.24600  0.89020  0.18100  Biso   1.000  C
  C351     1.0000 0.09605  0.87927  0.40041  Biso   1.000  C
  C352     1.0000 0.12500  0.91906  0.41247  Biso   1.000  C
  C353     1.0000 0.14950  0.92404  0.45737  Biso   1.000  C
  C354     1.0000 0.14510  0.88923  0.49021  Biso   1.000  C
  C355     1.0000 0.11610  0.84944  0.47816  Biso   1.000  C
  C356     1.0000 0.09160  0.84446  0.43326  Biso   1.000  C
  C357     1.0000 0.17090  0.89480  0.53890  Biso   1.000  C
  C358     1.0000 0.00726  0.92589  0.33727  Biso   1.000  C
  C359     1.0000 0.02720  0.97007  0.33974  Biso   1.000  C
  C360     1.0000 0.98840  0.00512  0.34339  Biso   1.000  C
  C361     1.0000 0.92750  0.99826  0.34340  Biso   1.000  C
  C362     1.0000 0.90792  0.95425  0.33911  Biso   1.000  C
  C363     1.0000 0.94760  0.91875  0.33554  Biso   1.000  C
  C364     1.0000 0.88580  0.03601  0.35010  Biso   1.000  C
  C365     1.0000 0.62918  0.62925  0.18059  Biso   1.000  C
  C366     1.0000 0.68550  0.62233  0.16256  Biso   1.000  C
  C367     1.0000 0.73560  0.62241  0.19028  Biso   1.000  C
  C368     1.0000 0.72951  0.63026  0.23836  Biso   1.000  C
  C369     1.0000 0.67410  0.63877  0.25664  Biso   1.000  C
  C370     1.0000 0.62600  0.63843  0.22838  Biso   1.000  C
  C371     1.0000 0.78460  0.62966  0.26813  Biso   1.000  C
  C372     1.0000 0.51187  0.67158  0.14740  Biso   1.000  C
  C373     1.0000 0.53307  0.71538  0.14844  Biso   1.000  C
  C374     1.0000 0.49460  0.75266  0.14840  Biso   1.000  C
  C375     1.0000 0.43492  0.74631  0.14742  Biso   1.000  C
  C376     1.0000 0.41278  0.70362  0.14855  Biso   1.000  C
  C377     1.0000 0.44990  0.66665  0.14865  Biso   1.000  C
  C378     1.0000 0.39180  0.78630  0.14406  Biso   1.000  C
  C379     1.0000 0.52202  0.56922  0.15966  Biso   1.000  C
  C380     1.0000 0.53699  0.54539  0.20124  Biso   1.000  C
  C381     1.0000 0.50844  0.50599  0.21315  Biso   1.000  C
  C382     1.0000 0.46463  0.48929  0.18409  Biso   1.000  C
  C383     1.0000 0.44914  0.51162  0.14306  Biso   1.000  C
  C384     1.0000 0.47784  0.55117  0.13182  Biso   1.000  C
  C385     1.0000 0.43469  0.44599  0.19751  Biso   1.000  C
  C386     1.0000 0.58680  0.61459  0.07923  Biso   1.000  C
  C387     1.0000 0.60560  0.57219  0.06318  Biso   1.000  C
  C388     1.0000 0.62730  0.56650  0.01829  Biso   1.000  C
  C389     1.0000 0.63040  0.60040  0.98833  Biso   1.000  C
  C390     1.0000 0.61090  0.64270  0.00111  Biso   1.000  C
  C391     1.0000 0.58890  0.64960  0.04727  Biso   1.000  C
  C392     1.0000 0.65320  0.59580  0.93720  Biso   1.000  C
  C393     1.0000 0.52233  0.17675  0.17128  Biso   1.000  C
  C394     1.0000 0.48220  0.19527  0.13855  Biso   1.000  C
  C395     1.0000 0.45320  0.23505  0.14760  Biso   1.000  C
  C396     1.0000 0.46440  0.25891  0.18876  Biso   1.000  C
  C397     1.0000 0.50200  0.24049  0.22153  Biso   1.000  C
  C398     1.0000 0.53070  0.20071  0.21219  Biso   1.000  C
  C399     1.0000 0.43510  0.30311  0.19770  Biso   1.000  C
  C400     1.0000 0.62100  0.11662  0.20529  Biso   1.000  C
  C401     1.0000 0.60480  0.09880  0.24900  Biso   1.000  C
  C402     1.0000 0.64590  0.09690  0.28566  Biso   1.000  C
  C403     1.0000 0.70310  0.11280  0.27864  Biso   1.000  C
  C404     1.0000 0.71930  0.13070  0.23500  Biso   1.000  C
  C405     1.0000 0.67830  0.13260  0.19828  Biso   1.000  C
  C406     1.0000 0.74600  0.10980  0.31900  Biso   1.000  C
  C407     1.0000 0.59605  0.12073  0.09959  Biso   1.000  C
  C408     1.0000 0.62500  0.08094  0.08753  Biso   1.000  C
  C409     1.0000 0.64950  0.07596  0.04263  Biso   1.000  C
  C410     1.0000 0.64510  0.11077  0.00979  Biso   1.000  C
  C411     1.0000 0.61610  0.15056  0.02184  Biso   1.000  C
  C412     1.0000 0.59160  0.15554  0.06674  Biso   1.000  C
  C413     1.0000 0.67090  0.10520  0.96110  Biso   1.000  C
  C414     1.0000 0.50726  0.07411  0.16273  Biso   1.000  C
  C415     1.0000 0.52720  0.02993  0.16026  Biso   1.000  C
  C416     1.0000 0.48840  0.99488  0.15661  Biso   1.000  C
  C417     1.0000 0.42750  0.00174  0.15660  Biso   1.000  C
  C418     1.0000 0.40792  0.04575  0.16089  Biso   1.000  C
  C419     1.0000 0.44760  0.08125  0.16446  Biso   1.000  C
  C420     1.0000 0.38580  0.96399  0.14990  Biso   1.000  C
  C421     1.0000 0.12918  0.37075  0.31941  Biso   1.000  C
  C422     1.0000 0.18550  0.37767  0.33744  Biso   1.000  C
  C423     1.0000 0.23560  0.37759  0.30972  Biso   1.000  C
  C424     1.0000 0.22951  0.36974  0.26164  Biso   1.000  C
  C425     1.0000 0.17410  0.36123  0.24336  Biso   1.000  C
  C426     1.0000 0.12600  0.36157  0.27162  Biso   1.000  C
  C427     1.0000 0.28460  0.37034  0.23187  Biso   1.000  C
  C428     1.0000 0.01187  0.32842  0.35260  Biso   1.000  C
  C429     1.0000 0.03307  0.28462  0.35156  Biso   1.000  C
  C430     1.0000 0.99460  0.24734  0.35160  Biso   1.000  C
  C431     1.0000 0.93492  0.25369  0.35258  Biso   1.000  C
  C432     1.0000 0.91278  0.29638  0.35145  Biso   1.000  C
  C433     1.0000 0.94990  0.33335  0.35135  Biso   1.000  C
  C434     1.0000 0.89180  0.21370  0.35594  Biso   1.000  C
  C435     1.0000 0.02202  0.43078  0.34034  Biso   1.000  C
  C436     1.0000 0.03699  0.45461  0.29876  Biso   1.000  C
  C437     1.0000 0.00844  0.49401  0.28685  Biso   1.000  C
  C438     1.0000 0.96463  0.51071  0.31591  Biso   1.000  C
  C439     1.0000 0.94914  0.48838  0.35694  Biso   1.000  C
  C440     1.0000 0.97784  0.44883  0.36818  Biso   1.000  C
  C441     1.0000 0.93469  0.55401  0.30249  Biso   1.000  C
  C442     1.0000 0.08680  0.38541  0.42077  Biso   1.000  C
  C443     1.0000 0.10560  0.42781  0.43682  Biso   1.000  C
  C444     1.0000 0.12730  0.43350  0.48171  Biso   1.000  C
  C445     1.0000 0.13040  0.39960  0.51167  Biso   1.000  C
  C446     1.0000 0.11090  0.35730  0.49889  Biso   1.000  C
  C447     1.0000 0.08890  0.35040  0.45273  Biso   1.000  C
  C448     1.0000 0.15320  0.40420  0.56280  Biso   1.000  C
  O81      1.0000 0.09604  0.31858  0.66554  Biso   1.000  O
  O82      1.0000 0.05618  0.32128  0.73695  Biso   1.000  O
  O83      1.0000 0.77030  0.09000  0.85648  Biso   1.000  O
  O84      1.0000 0.70540  0.12970  0.81300  Biso   1.000  O
  O85      1.0000 0.80860  0.06640  0.45180  Biso   1.000  O
  O86      1.0000 0.84130  0.13480  0.43070  Biso   1.000  O
  O87      1.0000 0.09425  0.92441  0.64954  Biso   1.000  O
  O88      1.0000 0.16778  0.97243  0.64587  Biso   1.000  O
  O89      1.0000 0.16730  0.37402  0.75154  Biso   1.000  O
  O90      1.0000 0.22191  0.36900  0.68703  Biso   1.000  O
  O91      1.0000 0.58501  0.17486  0.84932  Biso   1.000  O
  O92      1.0000 0.65997  0.21911  0.86509  Biso   1.000  O
  O93      1.0000 0.55681  0.56963  0.76199  Biso   1.000  O
  O94      1.0000 0.59857  0.57087  0.83399  Biso   1.000  O
  O95      1.0000 0.33160  0.44520  0.07390  Biso   1.000  O
  O96      1.0000 0.35020  0.37107  0.08926  Biso   1.000  O
  O97      1.0000 0.10920  0.32330  0.82140  Biso   1.000  O
  O98      1.0000 0.98690  0.37500  0.79210  Biso   1.000  O
  O99      1.0000 0.82010  0.04420  0.93940  Biso   1.000  O
  O100     1.0000 0.77250  0.98640  0.86610  Biso   1.000  O
  O101     1.0000 0.59604  0.68142  0.83446  Biso   1.000  O
  O102     1.0000 0.55618  0.67872  0.76305  Biso   1.000  O
  O103     1.0000 0.27030  0.91000  0.64352  Biso   1.000  O
  O104     1.0000 0.20540  0.87030  0.68700  Biso   1.000  O
  O105     1.0000 0.30860  0.93360  0.04820  Biso   1.000  O
  O106     1.0000 0.34130  0.86520  0.06930  Biso   1.000  O
  O107     1.0000 0.59425  0.07559  0.85046  Biso   1.000  O
  O108     1.0000 0.66778  0.02757  0.85413  Biso   1.000  O
  O109     1.0000 0.66730  0.62598  0.74846  Biso   1.000  O
  O110     1.0000 0.72191  0.63100  0.81297  Biso   1.000  O
  O111     1.0000 0.08501  0.82514  0.65068  Biso   1.000  O
  O112     1.0000 0.15997  0.78089  0.63491  Biso   1.000  O
  O113     1.0000 0.05681  0.43037  0.73801  Biso   1.000  O
  O114     1.0000 0.09857  0.42913  0.66601  Biso   1.000  O
  O115     1.0000 0.83160  0.55480  0.42610  Biso   1.000  O
  O116     1.0000 0.85020  0.62893  0.41074  Biso   1.000  O
  O117     1.0000 0.60920  0.67670  0.67860  Biso   1.000  O
  O118     1.0000 0.48690  0.62500  0.70790  Biso   1.000  O
  O119     1.0000 0.32010  0.95580  0.56060  Biso   1.000  O
  O120     1.0000 0.27250  0.01360  0.63390  Biso   1.000  O
  O121     1.0000 0.90396  0.68142  0.33446  Biso   1.000  O
  O122     1.0000 0.94382  0.67872  0.26305  Biso   1.000  O
  O123     1.0000 0.22970  0.91000  0.14352  Biso   1.000  O
  O124     1.0000 0.29460  0.87030  0.18700  Biso   1.000  O
  O125     1.0000 0.19140  0.93360  0.54820  Biso   1.000  O
  O126     1.0000 0.15870  0.86520  0.56930  Biso   1.000  O
  O127     1.0000 0.90575  0.07559  0.35046  Biso   1.000  O
  O128     1.0000 0.83222  0.02757  0.35413  Biso   1.000  O
  O129     1.0000 0.83270  0.62598  0.24846  Biso   1.000  O
  O130     1.0000 0.77809  0.63100  0.31297  Biso   1.000  O
  O131     1.0000 0.41499  0.82514  0.15068  Biso   1.000  O
  O132     1.0000 0.34003  0.78089  0.13491  Biso   1.000  O
  O133     1.0000 0.44319  0.43037  0.23801  Biso   1.000  O
  O134     1.0000 0.40143  0.42913  0.16601  Biso   1.000  O
  O135     1.0000 0.66840  0.55480  0.92610  Biso   1.000  O
  O136     1.0000 0.64980  0.62893  0.91074  Biso   1.000  O
  O137     1.0000 0.89080  0.67670  0.17860  Biso   1.000  O
  O138     1.0000 0.01310  0.62500  0.20790  Biso   1.000  O
  O139     1.0000 0.17990  0.95580  0.06060  Biso   1.000  O
  O140     1.0000 0.22750  0.01360  0.13390  Biso   1.000  O
  O141     1.0000 0.40396  0.31858  0.16554  Biso   1.000  O
  O142     1.0000 0.44382  0.32128  0.23695  Biso   1.000  O
  O143     1.0000 0.72970  0.09000  0.35648  Biso   1.000  O
  O144     1.0000 0.79460  0.12970  0.31300  Biso   1.000  O
  O145     1.0000 0.69140  0.06640  0.95180  Biso   1.000  O
  O146     1.0000 0.65870  0.13480  0.93070  Biso   1.000  O
  O147     1.0000 0.40575  0.92441  0.14954  Biso   1.000  O
  O148     1.0000 0.33222  0.97243  0.14587  Biso   1.000  O
  O149     1.0000 0.33270  0.37402  0.25154  Biso   1.000  O
  O150     1.0000 0.27809  0.36900  0.18703  Biso   1.000  O
  O151     1.0000 0.91499  0.17486  0.34932  Biso   1.000  O
  O152     1.0000 0.84003  0.21911  0.36509  Biso   1.000  O
  O153     1.0000 0.94319  0.56963  0.26199  Biso   1.000  O
  O154     1.0000 0.90143  0.57087  0.33399  Biso   1.000  O
  O155     1.0000 0.16840  0.44520  0.57390  Biso   1.000  O
  O156     1.0000 0.14980  0.37107  0.58926  Biso   1.000  O
  O157     1.0000 0.39080  0.32330  0.32140  Biso   1.000  O
  O158     1.0000 0.51310  0.37500  0.29210  Biso   1.000  O
  O159     1.0000 0.67990  0.04420  0.43940  Biso   1.000  O
  O160     1.0000 0.72750  0.98640  0.36610  Biso   1.000  O
