data_image0
_cell_length_a       34.837
_cell_length_b       34.837
_cell_length_c       34.837
_cell_angle_alpha    60
_cell_angle_beta     60
_cell_angle_gamma    60

_symmetry_space_group_name_H-M    P 1
_symmetry_int_tables_number       1

loop_
  _symmetry_equiv_pos_as_xyz
  'x, y, z'

loop_
  _atom_site_label
  _atom_site_occupancy
  _atom_site_fract_x
  _atom_site_fract_y
  _atom_site_fract_z
  _atom_site_thermal_displace_type
  _atom_site_B_iso_or_equiv
  _atom_site_type_symbol
  Dy1      1.0000 0.52276  0.05858  0.94142  Biso   1.000  Dy
  Dy2      1.0000 0.05858  0.52276  0.47724  Biso   1.000  Dy
  Dy3      1.0000 0.94142  0.47724  0.52276  Biso   1.000  Dy
  Dy4      1.0000 0.47724  0.94142  0.05858  Biso   1.000  Dy
  Dy5      1.0000 0.52276  0.94142  0.47724  Biso   1.000  Dy
  Dy6      1.0000 0.05858  0.47724  0.94142  Biso   1.000  Dy
  Dy7      1.0000 0.94142  0.52276  0.05858  Biso   1.000  Dy
  Dy8      1.0000 0.47724  0.05858  0.52276  Biso   1.000  Dy
  Dy9      1.0000 0.52276  0.47724  0.05858  Biso   1.000  Dy
  Dy10     1.0000 0.05858  0.94142  0.52276  Biso   1.000  Dy
  Dy11     1.0000 0.94142  0.05858  0.47724  Biso   1.000  Dy
  Dy12     1.0000 0.47724  0.52276  0.94142  Biso   1.000  Dy
  Dy13     1.0000 0.44142  0.97724  0.55858  Biso   1.000  Dy
  Dy14     1.0000 0.97724  0.44142  0.02276  Biso   1.000  Dy
  Dy15     1.0000 0.02276  0.55858  0.97724  Biso   1.000  Dy
  Dy16     1.0000 0.55858  0.02276  0.44142  Biso   1.000  Dy
  Dy17     1.0000 0.55858  0.97724  0.02276  Biso   1.000  Dy
  Dy18     1.0000 0.02276  0.44142  0.55858  Biso   1.000  Dy
  Dy19     1.0000 0.97724  0.55858  0.44142  Biso   1.000  Dy
  Dy20     1.0000 0.44142  0.02276  0.97724  Biso   1.000  Dy
  Dy21     1.0000 0.02276  0.97724  0.44142  Biso   1.000  Dy
  Dy22     1.0000 0.55858  0.44142  0.97724  Biso   1.000  Dy
  Dy23     1.0000 0.44142  0.55858  0.02276  Biso   1.000  Dy
  Dy24     1.0000 0.97724  0.02276  0.55858  Biso   1.000  Dy
  H1       1.0000 0.54170  0.05230  0.07470  Biso   1.000  H
  H2       1.0000 0.55490  0.20190  0.00990  Biso   1.000  H
  H3       1.0000 0.55030  0.17310  0.96570  Biso   1.000  H
  H4       1.0000 0.59330  0.01010  0.17010  Biso   1.000  H
  H5       1.0000 0.58900  0.00840  0.12740  Biso   1.000  H
  H6       1.0000 0.63840  0.05640  0.07320  Biso   1.000  H
  H7       1.0000 0.66520  0.00740  0.10500  Biso   1.000  H
  H8       1.0000 0.64460  0.05440  0.11680  Biso   1.000  H
  H9       1.0000 0.49950  0.04330  0.15910  Biso   1.000  H
  H10      1.0000 0.50320  0.04460  0.20240  Biso   1.000  H
  H11      1.0000 0.45760  0.12300  0.18740  Biso   1.000  H
  H12      1.0000 0.43050  0.09630  0.18870  Biso   1.000  H
  H13      1.0000 0.45860  0.12640  0.13940  Biso   1.000  H
  H14      1.0000 0.05230  0.54170  0.33130  Biso   1.000  H
  H15      1.0000 0.20190  0.55490  0.23330  Biso   1.000  H
  H16      1.0000 0.17310  0.55030  0.31090  Biso   1.000  H
  H17      1.0000 0.01010  0.59330  0.22650  Biso   1.000  H
  H18      1.0000 0.00840  0.58900  0.27520  Biso   1.000  H
  H19      1.0000 0.05640  0.63840  0.23200  Biso   1.000  H
  H20      1.0000 0.00740  0.66520  0.22240  Biso   1.000  H
  H21      1.0000 0.05440  0.64460  0.18420  Biso   1.000  H
  H22      1.0000 0.04330  0.49950  0.29810  Biso   1.000  H
  H23      1.0000 0.04460  0.50320  0.24980  Biso   1.000  H
  H24      1.0000 0.12300  0.45760  0.23200  Biso   1.000  H
  H25      1.0000 0.09630  0.43050  0.28450  Biso   1.000  H
  H26      1.0000 0.12640  0.45860  0.27560  Biso   1.000  H
  H27      1.0000 0.07470  0.33130  0.54170  Biso   1.000  H
  H28      1.0000 0.00990  0.23330  0.55490  Biso   1.000  H
  H29      1.0000 0.96570  0.31090  0.55030  Biso   1.000  H
  H30      1.0000 0.17010  0.22650  0.59330  Biso   1.000  H
  H31      1.0000 0.12740  0.27520  0.58900  Biso   1.000  H
  H32      1.0000 0.07320  0.23200  0.63840  Biso   1.000  H
  H33      1.0000 0.10500  0.22240  0.66520  Biso   1.000  H
  H34      1.0000 0.11680  0.18420  0.64460  Biso   1.000  H
  H35      1.0000 0.15910  0.29810  0.49950  Biso   1.000  H
  H36      1.0000 0.20240  0.24980  0.50320  Biso   1.000  H
  H37      1.0000 0.18740  0.23200  0.45760  Biso   1.000  H
  H38      1.0000 0.18870  0.28450  0.43050  Biso   1.000  H
  H39      1.0000 0.13940  0.27560  0.45860  Biso   1.000  H
  H40      1.0000 0.33130  0.07470  0.05230  Biso   1.000  H
  H41      1.0000 0.23330  0.00990  0.20190  Biso   1.000  H
  H42      1.0000 0.31090  0.96570  0.17310  Biso   1.000  H
  H43      1.0000 0.22650  0.17010  0.01010  Biso   1.000  H
  H44      1.0000 0.27520  0.12740  0.00840  Biso   1.000  H
  H45      1.0000 0.23200  0.07320  0.05640  Biso   1.000  H
  H46      1.0000 0.22240  0.10500  0.00740  Biso   1.000  H
  H47      1.0000 0.18420  0.11680  0.05440  Biso   1.000  H
  H48      1.0000 0.29810  0.15910  0.04330  Biso   1.000  H
  H49      1.0000 0.24980  0.20240  0.04460  Biso   1.000  H
  H50      1.0000 0.23200  0.18740  0.12300  Biso   1.000  H
  H51      1.0000 0.28450  0.18870  0.09630  Biso   1.000  H
  H52      1.0000 0.27560  0.13940  0.12640  Biso   1.000  H
  H53      1.0000 0.54170  0.07470  0.33130  Biso   1.000  H
  H54      1.0000 0.55490  0.00990  0.23330  Biso   1.000  H
  H55      1.0000 0.55030  0.96570  0.31090  Biso   1.000  H
  H56      1.0000 0.59330  0.17010  0.22650  Biso   1.000  H
  H57      1.0000 0.58900  0.12740  0.27520  Biso   1.000  H
  H58      1.0000 0.63840  0.07320  0.23200  Biso   1.000  H
  H59      1.0000 0.66520  0.10500  0.22240  Biso   1.000  H
  H60      1.0000 0.64460  0.11680  0.18420  Biso   1.000  H
  H61      1.0000 0.49950  0.15910  0.29810  Biso   1.000  H
  H62      1.0000 0.50320  0.20240  0.24980  Biso   1.000  H
  H63      1.0000 0.45760  0.18740  0.23200  Biso   1.000  H
  H64      1.0000 0.43050  0.18870  0.28450  Biso   1.000  H
  H65      1.0000 0.45860  0.13940  0.27560  Biso   1.000  H
  H66      1.0000 0.05230  0.33130  0.07470  Biso   1.000  H
  H67      1.0000 0.20190  0.23330  0.00990  Biso   1.000  H
  H68      1.0000 0.17310  0.31090  0.96570  Biso   1.000  H
  H69      1.0000 0.01010  0.22650  0.17010  Biso   1.000  H
  H70      1.0000 0.00840  0.27520  0.12740  Biso   1.000  H
  H71      1.0000 0.05640  0.23200  0.07320  Biso   1.000  H
  H72      1.0000 0.00740  0.22240  0.10500  Biso   1.000  H
  H73      1.0000 0.05440  0.18420  0.11680  Biso   1.000  H
  H74      1.0000 0.04330  0.29810  0.15910  Biso   1.000  H
  H75      1.0000 0.04460  0.24980  0.20240  Biso   1.000  H
  H76      1.0000 0.12300  0.23200  0.18740  Biso   1.000  H
  H77      1.0000 0.09630  0.28450  0.18870  Biso   1.000  H
  H78      1.0000 0.12640  0.27560  0.13940  Biso   1.000  H
  H79      1.0000 0.07470  0.54170  0.05230  Biso   1.000  H
  H80      1.0000 0.00990  0.55490  0.20190  Biso   1.000  H
  H81      1.0000 0.96570  0.55030  0.17310  Biso   1.000  H
  H82      1.0000 0.17010  0.59330  0.01010  Biso   1.000  H
  H83      1.0000 0.12740  0.58900  0.00840  Biso   1.000  H
  H84      1.0000 0.07320  0.63840  0.05640  Biso   1.000  H
  H85      1.0000 0.10500  0.66520  0.00740  Biso   1.000  H
  H86      1.0000 0.11680  0.64460  0.05440  Biso   1.000  H
  H87      1.0000 0.15910  0.49950  0.04330  Biso   1.000  H
  H88      1.0000 0.20240  0.50320  0.04460  Biso   1.000  H
  H89      1.0000 0.18740  0.45760  0.12300  Biso   1.000  H
  H90      1.0000 0.18870  0.43050  0.09630  Biso   1.000  H
  H91      1.0000 0.13940  0.45860  0.12640  Biso   1.000  H
  H92      1.0000 0.33130  0.05230  0.54170  Biso   1.000  H
  H93      1.0000 0.23330  0.20190  0.55490  Biso   1.000  H
  H94      1.0000 0.31090  0.17310  0.55030  Biso   1.000  H
  H95      1.0000 0.22650  0.01010  0.59330  Biso   1.000  H
  H96      1.0000 0.27520  0.00840  0.58900  Biso   1.000  H
  H97      1.0000 0.23200  0.05640  0.63840  Biso   1.000  H
  H98      1.0000 0.22240  0.00740  0.66520  Biso   1.000  H
  H99      1.0000 0.18420  0.05440  0.64460  Biso   1.000  H
  H100     1.0000 0.29810  0.04330  0.49950  Biso   1.000  H
  H101     1.0000 0.24980  0.04460  0.50320  Biso   1.000  H
  H102     1.0000 0.23200  0.12300  0.45760  Biso   1.000  H
  H103     1.0000 0.28450  0.09630  0.43050  Biso   1.000  H
  H104     1.0000 0.27560  0.12640  0.45860  Biso   1.000  H
  H105     1.0000 0.54170  0.33130  0.05230  Biso   1.000  H
  H106     1.0000 0.55490  0.23330  0.20190  Biso   1.000  H
  H107     1.0000 0.55030  0.31090  0.17310  Biso   1.000  H
  H108     1.0000 0.59330  0.22650  0.01010  Biso   1.000  H
  H109     1.0000 0.58900  0.27520  0.00840  Biso   1.000  H
  H110     1.0000 0.63840  0.23200  0.05640  Biso   1.000  H
  H111     1.0000 0.66520  0.22240  0.00740  Biso   1.000  H
  H112     1.0000 0.64460  0.18420  0.05440  Biso   1.000  H
  H113     1.0000 0.49950  0.29810  0.04330  Biso   1.000  H
  H114     1.0000 0.50320  0.24980  0.04460  Biso   1.000  H
  H115     1.0000 0.45760  0.23200  0.12300  Biso   1.000  H
  H116     1.0000 0.43050  0.28450  0.09630  Biso   1.000  H
  H117     1.0000 0.45860  0.27560  0.12640  Biso   1.000  H
  H118     1.0000 0.05230  0.07470  0.54170  Biso   1.000  H
  H119     1.0000 0.20190  0.00990  0.55490  Biso   1.000  H
  H120     1.0000 0.17310  0.96570  0.55030  Biso   1.000  H
  H121     1.0000 0.01010  0.17010  0.59330  Biso   1.000  H
  H122     1.0000 0.00840  0.12740  0.58900  Biso   1.000  H
  H123     1.0000 0.05640  0.07320  0.63840  Biso   1.000  H
  H124     1.0000 0.00740  0.10500  0.66520  Biso   1.000  H
  H125     1.0000 0.05440  0.11680  0.64460  Biso   1.000  H
  H126     1.0000 0.04330  0.15910  0.49950  Biso   1.000  H
  H127     1.0000 0.04460  0.20240  0.50320  Biso   1.000  H
  H128     1.0000 0.12300  0.18740  0.45760  Biso   1.000  H
  H129     1.0000 0.09630  0.18870  0.43050  Biso   1.000  H
  H130     1.0000 0.12640  0.13940  0.45860  Biso   1.000  H
  H131     1.0000 0.07470  0.05230  0.33130  Biso   1.000  H
  H132     1.0000 0.00990  0.20190  0.23330  Biso   1.000  H
  H133     1.0000 0.96570  0.17310  0.31090  Biso   1.000  H
  H134     1.0000 0.17010  0.01010  0.22650  Biso   1.000  H
  H135     1.0000 0.12740  0.00840  0.27520  Biso   1.000  H
  H136     1.0000 0.07320  0.05640  0.23200  Biso   1.000  H
  H137     1.0000 0.10500  0.00740  0.22240  Biso   1.000  H
  H138     1.0000 0.11680  0.05440  0.18420  Biso   1.000  H
  H139     1.0000 0.15910  0.04330  0.29810  Biso   1.000  H
  H140     1.0000 0.20240  0.04460  0.24980  Biso   1.000  H
  H141     1.0000 0.18740  0.12300  0.23200  Biso   1.000  H
  H142     1.0000 0.18870  0.09630  0.28450  Biso   1.000  H
  H143     1.0000 0.13940  0.12640  0.27560  Biso   1.000  H
  H144     1.0000 0.33130  0.54170  0.07470  Biso   1.000  H
  H145     1.0000 0.23330  0.55490  0.00990  Biso   1.000  H
  H146     1.0000 0.31090  0.55030  0.96570  Biso   1.000  H
  H147     1.0000 0.22650  0.59330  0.17010  Biso   1.000  H
  H148     1.0000 0.27520  0.58900  0.12740  Biso   1.000  H
  H149     1.0000 0.23200  0.63840  0.07320  Biso   1.000  H
  H150     1.0000 0.22240  0.66520  0.10500  Biso   1.000  H
  H151     1.0000 0.18420  0.64460  0.11680  Biso   1.000  H
  H152     1.0000 0.29810  0.49950  0.15910  Biso   1.000  H
  H153     1.0000 0.24980  0.50320  0.20240  Biso   1.000  H
  H154     1.0000 0.23200  0.45760  0.18740  Biso   1.000  H
  H155     1.0000 0.28450  0.43050  0.18870  Biso   1.000  H
  H156     1.0000 0.27560  0.45860  0.13940  Biso   1.000  H
  H157     1.0000 0.44770  0.95830  0.42530  Biso   1.000  H
  H158     1.0000 0.29810  0.94510  0.49010  Biso   1.000  H
  H159     1.0000 0.32690  0.94970  0.53430  Biso   1.000  H
  H160     1.0000 0.48990  0.90670  0.32990  Biso   1.000  H
  H161     1.0000 0.49160  0.91100  0.37260  Biso   1.000  H
  H162     1.0000 0.44360  0.86160  0.42680  Biso   1.000  H
  H163     1.0000 0.49260  0.83480  0.39500  Biso   1.000  H
  H164     1.0000 0.44560  0.85540  0.38320  Biso   1.000  H
  H165     1.0000 0.45670  0.00050  0.34090  Biso   1.000  H
  H166     1.0000 0.45540  0.99680  0.29760  Biso   1.000  H
  H167     1.0000 0.37700  0.04240  0.31260  Biso   1.000  H
  H168     1.0000 0.40370  0.06950  0.31130  Biso   1.000  H
  H169     1.0000 0.37360  0.04140  0.36060  Biso   1.000  H
  H170     1.0000 0.95830  0.44770  0.16870  Biso   1.000  H
  H171     1.0000 0.94510  0.29810  0.26670  Biso   1.000  H
  H172     1.0000 0.94970  0.32690  0.18910  Biso   1.000  H
  H173     1.0000 0.90670  0.48990  0.27350  Biso   1.000  H
  H174     1.0000 0.91100  0.49160  0.22480  Biso   1.000  H
  H175     1.0000 0.86160  0.44360  0.26800  Biso   1.000  H
  H176     1.0000 0.83480  0.49260  0.27760  Biso   1.000  H
  H177     1.0000 0.85540  0.44560  0.31580  Biso   1.000  H
  H178     1.0000 0.00050  0.45670  0.20190  Biso   1.000  H
  H179     1.0000 0.99680  0.45540  0.25020  Biso   1.000  H
  H180     1.0000 0.04240  0.37700  0.26800  Biso   1.000  H
  H181     1.0000 0.06950  0.40370  0.21550  Biso   1.000  H
  H182     1.0000 0.04140  0.37360  0.22440  Biso   1.000  H
  H183     1.0000 0.16870  0.42530  0.95830  Biso   1.000  H
  H184     1.0000 0.26670  0.49010  0.94510  Biso   1.000  H
  H185     1.0000 0.18910  0.53430  0.94970  Biso   1.000  H
  H186     1.0000 0.27350  0.32990  0.90670  Biso   1.000  H
  H187     1.0000 0.22480  0.37260  0.91100  Biso   1.000  H
  H188     1.0000 0.26800  0.42680  0.86160  Biso   1.000  H
  H189     1.0000 0.27760  0.39500  0.83480  Biso   1.000  H
  H190     1.0000 0.31580  0.38320  0.85540  Biso   1.000  H
  H191     1.0000 0.20190  0.34090  0.00050  Biso   1.000  H
  H192     1.0000 0.25020  0.29760  0.99680  Biso   1.000  H
  H193     1.0000 0.26800  0.31260  0.04240  Biso   1.000  H
  H194     1.0000 0.21550  0.31130  0.06950  Biso   1.000  H
  H195     1.0000 0.22440  0.36060  0.04140  Biso   1.000  H
  H196     1.0000 0.42530  0.16870  0.44770  Biso   1.000  H
  H197     1.0000 0.49010  0.26670  0.29810  Biso   1.000  H
  H198     1.0000 0.53430  0.18910  0.32690  Biso   1.000  H
  H199     1.0000 0.32990  0.27350  0.48990  Biso   1.000  H
  H200     1.0000 0.37260  0.22480  0.49160  Biso   1.000  H
  H201     1.0000 0.42680  0.26800  0.44360  Biso   1.000  H
  H202     1.0000 0.39500  0.27760  0.49260  Biso   1.000  H
  H203     1.0000 0.38320  0.31580  0.44560  Biso   1.000  H
  H204     1.0000 0.34090  0.20190  0.45670  Biso   1.000  H
  H205     1.0000 0.29760  0.25020  0.45540  Biso   1.000  H
  H206     1.0000 0.31260  0.26800  0.37700  Biso   1.000  H
  H207     1.0000 0.31130  0.21550  0.40370  Biso   1.000  H
  H208     1.0000 0.36060  0.22440  0.37360  Biso   1.000  H
  H209     1.0000 0.42530  0.95830  0.16870  Biso   1.000  H
  H210     1.0000 0.49010  0.94510  0.26670  Biso   1.000  H
  H211     1.0000 0.53430  0.94970  0.18910  Biso   1.000  H
  H212     1.0000 0.32990  0.90670  0.27350  Biso   1.000  H
  H213     1.0000 0.37260  0.91100  0.22480  Biso   1.000  H
  H214     1.0000 0.42680  0.86160  0.26800  Biso   1.000  H
  H215     1.0000 0.39500  0.83480  0.27760  Biso   1.000  H
  H216     1.0000 0.38320  0.85540  0.31580  Biso   1.000  H
  H217     1.0000 0.34090  0.00050  0.20190  Biso   1.000  H
  H218     1.0000 0.29760  0.99680  0.25020  Biso   1.000  H
  H219     1.0000 0.31260  0.04240  0.26800  Biso   1.000  H
  H220     1.0000 0.31130  0.06950  0.21550  Biso   1.000  H
  H221     1.0000 0.36060  0.04140  0.22440  Biso   1.000  H
  H222     1.0000 0.16870  0.44770  0.42530  Biso   1.000  H
  H223     1.0000 0.26670  0.29810  0.49010  Biso   1.000  H
  H224     1.0000 0.18910  0.32690  0.53430  Biso   1.000  H
  H225     1.0000 0.27350  0.48990  0.32990  Biso   1.000  H
  H226     1.0000 0.22480  0.49160  0.37260  Biso   1.000  H
  H227     1.0000 0.26800  0.44360  0.42680  Biso   1.000  H
  H228     1.0000 0.27760  0.49260  0.39500  Biso   1.000  H
  H229     1.0000 0.31580  0.44560  0.38320  Biso   1.000  H
  H230     1.0000 0.20190  0.45670  0.34090  Biso   1.000  H
  H231     1.0000 0.25020  0.45540  0.29760  Biso   1.000  H
  H232     1.0000 0.26800  0.37700  0.31260  Biso   1.000  H
  H233     1.0000 0.21550  0.40370  0.31130  Biso   1.000  H
  H234     1.0000 0.22440  0.37360  0.36060  Biso   1.000  H
  H235     1.0000 0.95830  0.42530  0.44770  Biso   1.000  H
  H236     1.0000 0.94510  0.49010  0.29810  Biso   1.000  H
  H237     1.0000 0.94970  0.53430  0.32690  Biso   1.000  H
  H238     1.0000 0.90670  0.32990  0.48990  Biso   1.000  H
  H239     1.0000 0.91100  0.37260  0.49160  Biso   1.000  H
  H240     1.0000 0.86160  0.42680  0.44360  Biso   1.000  H
  H241     1.0000 0.83480  0.39500  0.49260  Biso   1.000  H
  H242     1.0000 0.85540  0.38320  0.44560  Biso   1.000  H
  H243     1.0000 0.00050  0.34090  0.45670  Biso   1.000  H
  H244     1.0000 0.99680  0.29760  0.45540  Biso   1.000  H
  H245     1.0000 0.04240  0.31260  0.37700  Biso   1.000  H
  H246     1.0000 0.06950  0.31130  0.40370  Biso   1.000  H
  H247     1.0000 0.04140  0.36060  0.37360  Biso   1.000  H
  H248     1.0000 0.44770  0.16870  0.95830  Biso   1.000  H
  H249     1.0000 0.29810  0.26670  0.94510  Biso   1.000  H
  H250     1.0000 0.32690  0.18910  0.94970  Biso   1.000  H
  H251     1.0000 0.48990  0.27350  0.90670  Biso   1.000  H
  H252     1.0000 0.49160  0.22480  0.91100  Biso   1.000  H
  H253     1.0000 0.44360  0.26800  0.86160  Biso   1.000  H
  H254     1.0000 0.49260  0.27760  0.83480  Biso   1.000  H
  H255     1.0000 0.44560  0.31580  0.85540  Biso   1.000  H
  H256     1.0000 0.45670  0.20190  0.00050  Biso   1.000  H
  H257     1.0000 0.45540  0.25020  0.99680  Biso   1.000  H
  H258     1.0000 0.37700  0.26800  0.04240  Biso   1.000  H
  H259     1.0000 0.40370  0.21550  0.06950  Biso   1.000  H
  H260     1.0000 0.37360  0.22440  0.04140  Biso   1.000  H
  H261     1.0000 0.16870  0.95830  0.44770  Biso   1.000  H
  H262     1.0000 0.26670  0.94510  0.29810  Biso   1.000  H
  H263     1.0000 0.18910  0.94970  0.32690  Biso   1.000  H
  H264     1.0000 0.27350  0.90670  0.48990  Biso   1.000  H
  H265     1.0000 0.22480  0.91100  0.49160  Biso   1.000  H
  H266     1.0000 0.26800  0.86160  0.44360  Biso   1.000  H
  H267     1.0000 0.27760  0.83480  0.49260  Biso   1.000  H
  H268     1.0000 0.31580  0.85540  0.44560  Biso   1.000  H
  H269     1.0000 0.20190  0.00050  0.45670  Biso   1.000  H
  H270     1.0000 0.25020  0.99680  0.45540  Biso   1.000  H
  H271     1.0000 0.26800  0.04240  0.37700  Biso   1.000  H
  H272     1.0000 0.21550  0.06950  0.40370  Biso   1.000  H
  H273     1.0000 0.22440  0.04140  0.37360  Biso   1.000  H
  H274     1.0000 0.42530  0.44770  0.95830  Biso   1.000  H
  H275     1.0000 0.49010  0.29810  0.94510  Biso   1.000  H
  H276     1.0000 0.53430  0.32690  0.94970  Biso   1.000  H
  H277     1.0000 0.32990  0.48990  0.90670  Biso   1.000  H
  H278     1.0000 0.37260  0.49160  0.91100  Biso   1.000  H
  H279     1.0000 0.42680  0.44360  0.86160  Biso   1.000  H
  H280     1.0000 0.39500  0.49260  0.83480  Biso   1.000  H
  H281     1.0000 0.38320  0.44560  0.85540  Biso   1.000  H
  H282     1.0000 0.34090  0.45670  0.00050  Biso   1.000  H
  H283     1.0000 0.29760  0.45540  0.99680  Biso   1.000  H
  H284     1.0000 0.31260  0.37700  0.04240  Biso   1.000  H
  H285     1.0000 0.31130  0.40370  0.06950  Biso   1.000  H
  H286     1.0000 0.36060  0.37360  0.04140  Biso   1.000  H
  H287     1.0000 0.44770  0.42530  0.16870  Biso   1.000  H
  H288     1.0000 0.29810  0.49010  0.26670  Biso   1.000  H
  H289     1.0000 0.32690  0.53430  0.18910  Biso   1.000  H
  H290     1.0000 0.48990  0.32990  0.27350  Biso   1.000  H
  H291     1.0000 0.49160  0.37260  0.22480  Biso   1.000  H
  H292     1.0000 0.44360  0.42680  0.26800  Biso   1.000  H
  H293     1.0000 0.49260  0.39500  0.27760  Biso   1.000  H
  H294     1.0000 0.44560  0.38320  0.31580  Biso   1.000  H
  H295     1.0000 0.45670  0.34090  0.20190  Biso   1.000  H
  H296     1.0000 0.45540  0.29760  0.25020  Biso   1.000  H
  H297     1.0000 0.37700  0.31260  0.26800  Biso   1.000  H
  H298     1.0000 0.40370  0.31130  0.21550  Biso   1.000  H
  H299     1.0000 0.37360  0.36060  0.22440  Biso   1.000  H
  H300     1.0000 0.95830  0.16870  0.42530  Biso   1.000  H
  H301     1.0000 0.94510  0.26670  0.49010  Biso   1.000  H
  H302     1.0000 0.94970  0.18910  0.53430  Biso   1.000  H
  H303     1.0000 0.90670  0.27350  0.32990  Biso   1.000  H
  H304     1.0000 0.91100  0.22480  0.37260  Biso   1.000  H
  H305     1.0000 0.86160  0.26800  0.42680  Biso   1.000  H
  H306     1.0000 0.83480  0.27760  0.39500  Biso   1.000  H
  H307     1.0000 0.85540  0.31580  0.38320  Biso   1.000  H
  H308     1.0000 0.00050  0.20190  0.34090  Biso   1.000  H
  H309     1.0000 0.99680  0.25020  0.29760  Biso   1.000  H
  H310     1.0000 0.04240  0.26800  0.31260  Biso   1.000  H
  H311     1.0000 0.06950  0.21550  0.31130  Biso   1.000  H
  H312     1.0000 0.04140  0.22440  0.36060  Biso   1.000  H
  H313     1.0000 0.45830  0.94770  0.92530  Biso   1.000  H
  H314     1.0000 0.44510  0.79810  0.99010  Biso   1.000  H
  H315     1.0000 0.44970  0.82690  0.03430  Biso   1.000  H
  H316     1.0000 0.40670  0.98990  0.82990  Biso   1.000  H
  H317     1.0000 0.41100  0.99160  0.87260  Biso   1.000  H
  H318     1.0000 0.36160  0.94360  0.92680  Biso   1.000  H
  H319     1.0000 0.33480  0.99260  0.89500  Biso   1.000  H
  H320     1.0000 0.35540  0.94560  0.88320  Biso   1.000  H
  H321     1.0000 0.50050  0.95670  0.84090  Biso   1.000  H
  H322     1.0000 0.49680  0.95540  0.79760  Biso   1.000  H
  H323     1.0000 0.54240  0.87700  0.81260  Biso   1.000  H
  H324     1.0000 0.56950  0.90370  0.81130  Biso   1.000  H
  H325     1.0000 0.54140  0.87360  0.86060  Biso   1.000  H
  H326     1.0000 0.94770  0.45830  0.66870  Biso   1.000  H
  H327     1.0000 0.79810  0.44510  0.76670  Biso   1.000  H
  H328     1.0000 0.82690  0.44970  0.68910  Biso   1.000  H
  H329     1.0000 0.98990  0.40670  0.77350  Biso   1.000  H
  H330     1.0000 0.99160  0.41100  0.72480  Biso   1.000  H
  H331     1.0000 0.94360  0.36160  0.76800  Biso   1.000  H
  H332     1.0000 0.99260  0.33480  0.77760  Biso   1.000  H
  H333     1.0000 0.94560  0.35540  0.81580  Biso   1.000  H
  H334     1.0000 0.95670  0.50050  0.70190  Biso   1.000  H
  H335     1.0000 0.95540  0.49680  0.75020  Biso   1.000  H
  H336     1.0000 0.87700  0.54240  0.76800  Biso   1.000  H
  H337     1.0000 0.90370  0.56950  0.71550  Biso   1.000  H
  H338     1.0000 0.87360  0.54140  0.72440  Biso   1.000  H
  H339     1.0000 0.92530  0.66870  0.45830  Biso   1.000  H
  H340     1.0000 0.99010  0.76670  0.44510  Biso   1.000  H
  H341     1.0000 0.03430  0.68910  0.44970  Biso   1.000  H
  H342     1.0000 0.82990  0.77350  0.40670  Biso   1.000  H
  H343     1.0000 0.87260  0.72480  0.41100  Biso   1.000  H
  H344     1.0000 0.92680  0.76800  0.36160  Biso   1.000  H
  H345     1.0000 0.89500  0.77760  0.33480  Biso   1.000  H
  H346     1.0000 0.88320  0.81580  0.35540  Biso   1.000  H
  H347     1.0000 0.84090  0.70190  0.50050  Biso   1.000  H
  H348     1.0000 0.79760  0.75020  0.49680  Biso   1.000  H
  H349     1.0000 0.81260  0.76800  0.54240  Biso   1.000  H
  H350     1.0000 0.81130  0.71550  0.56950  Biso   1.000  H
  H351     1.0000 0.86060  0.72440  0.54140  Biso   1.000  H
  H352     1.0000 0.66870  0.92530  0.94770  Biso   1.000  H
  H353     1.0000 0.76670  0.99010  0.79810  Biso   1.000  H
  H354     1.0000 0.68910  0.03430  0.82690  Biso   1.000  H
  H355     1.0000 0.77350  0.82990  0.98990  Biso   1.000  H
  H356     1.0000 0.72480  0.87260  0.99160  Biso   1.000  H
  H357     1.0000 0.76800  0.92680  0.94360  Biso   1.000  H
  H358     1.0000 0.77760  0.89500  0.99260  Biso   1.000  H
  H359     1.0000 0.81580  0.88320  0.94560  Biso   1.000  H
  H360     1.0000 0.70190  0.84090  0.95670  Biso   1.000  H
  H361     1.0000 0.75020  0.79760  0.95540  Biso   1.000  H
  H362     1.0000 0.76800  0.81260  0.87700  Biso   1.000  H
  H363     1.0000 0.71550  0.81130  0.90370  Biso   1.000  H
  H364     1.0000 0.72440  0.86060  0.87360  Biso   1.000  H
  H365     1.0000 0.45830  0.92530  0.66870  Biso   1.000  H
  H366     1.0000 0.44510  0.99010  0.76670  Biso   1.000  H
  H367     1.0000 0.44970  0.03430  0.68910  Biso   1.000  H
  H368     1.0000 0.40670  0.82990  0.77350  Biso   1.000  H
  H369     1.0000 0.41100  0.87260  0.72480  Biso   1.000  H
  H370     1.0000 0.36160  0.92680  0.76800  Biso   1.000  H
  H371     1.0000 0.33480  0.89500  0.77760  Biso   1.000  H
  H372     1.0000 0.35540  0.88320  0.81580  Biso   1.000  H
  H373     1.0000 0.50050  0.84090  0.70190  Biso   1.000  H
  H374     1.0000 0.49680  0.79760  0.75020  Biso   1.000  H
  H375     1.0000 0.54240  0.81260  0.76800  Biso   1.000  H
  H376     1.0000 0.56950  0.81130  0.71550  Biso   1.000  H
  H377     1.0000 0.54140  0.86060  0.72440  Biso   1.000  H
  H378     1.0000 0.94770  0.66870  0.92530  Biso   1.000  H
  H379     1.0000 0.79810  0.76670  0.99010  Biso   1.000  H
  H380     1.0000 0.82690  0.68910  0.03430  Biso   1.000  H
  H381     1.0000 0.98990  0.77350  0.82990  Biso   1.000  H
  H382     1.0000 0.99160  0.72480  0.87260  Biso   1.000  H
  H383     1.0000 0.94360  0.76800  0.92680  Biso   1.000  H
  H384     1.0000 0.99260  0.77760  0.89500  Biso   1.000  H
  H385     1.0000 0.94560  0.81580  0.88320  Biso   1.000  H
  H386     1.0000 0.95670  0.70190  0.84090  Biso   1.000  H
  H387     1.0000 0.95540  0.75020  0.79760  Biso   1.000  H
  H388     1.0000 0.87700  0.76800  0.81260  Biso   1.000  H
  H389     1.0000 0.90370  0.71550  0.81130  Biso   1.000  H
  H390     1.0000 0.87360  0.72440  0.86060  Biso   1.000  H
  H391     1.0000 0.92530  0.45830  0.94770  Biso   1.000  H
  H392     1.0000 0.99010  0.44510  0.79810  Biso   1.000  H
  H393     1.0000 0.03430  0.44970  0.82690  Biso   1.000  H
  H394     1.0000 0.82990  0.40670  0.98990  Biso   1.000  H
  H395     1.0000 0.87260  0.41100  0.99160  Biso   1.000  H
  H396     1.0000 0.92680  0.36160  0.94360  Biso   1.000  H
  H397     1.0000 0.89500  0.33480  0.99260  Biso   1.000  H
  H398     1.0000 0.88320  0.35540  0.94560  Biso   1.000  H
  H399     1.0000 0.84090  0.50050  0.95670  Biso   1.000  H
  H400     1.0000 0.79760  0.49680  0.95540  Biso   1.000  H
  H401     1.0000 0.81260  0.54240  0.87700  Biso   1.000  H
  H402     1.0000 0.81130  0.56950  0.90370  Biso   1.000  H
  H403     1.0000 0.86060  0.54140  0.87360  Biso   1.000  H
  H404     1.0000 0.66870  0.94770  0.45830  Biso   1.000  H
  H405     1.0000 0.76670  0.79810  0.44510  Biso   1.000  H
  H406     1.0000 0.68910  0.82690  0.44970  Biso   1.000  H
  H407     1.0000 0.77350  0.98990  0.40670  Biso   1.000  H
  H408     1.0000 0.72480  0.99160  0.41100  Biso   1.000  H
  H409     1.0000 0.76800  0.94360  0.36160  Biso   1.000  H
  H410     1.0000 0.77760  0.99260  0.33480  Biso   1.000  H
  H411     1.0000 0.81580  0.94560  0.35540  Biso   1.000  H
  H412     1.0000 0.70190  0.95670  0.50050  Biso   1.000  H
  H413     1.0000 0.75020  0.95540  0.49680  Biso   1.000  H
  H414     1.0000 0.76800  0.87700  0.54240  Biso   1.000  H
  H415     1.0000 0.71550  0.90370  0.56950  Biso   1.000  H
  H416     1.0000 0.72440  0.87360  0.54140  Biso   1.000  H
  H417     1.0000 0.45830  0.66870  0.94770  Biso   1.000  H
  H418     1.0000 0.44510  0.76670  0.79810  Biso   1.000  H
  H419     1.0000 0.44970  0.68910  0.82690  Biso   1.000  H
  H420     1.0000 0.40670  0.77350  0.98990  Biso   1.000  H
  H421     1.0000 0.41100  0.72480  0.99160  Biso   1.000  H
  H422     1.0000 0.36160  0.76800  0.94360  Biso   1.000  H
  H423     1.0000 0.33480  0.77760  0.99260  Biso   1.000  H
  H424     1.0000 0.35540  0.81580  0.94560  Biso   1.000  H
  H425     1.0000 0.50050  0.70190  0.95670  Biso   1.000  H
  H426     1.0000 0.49680  0.75020  0.95540  Biso   1.000  H
  H427     1.0000 0.54240  0.76800  0.87700  Biso   1.000  H
  H428     1.0000 0.56950  0.71550  0.90370  Biso   1.000  H
  H429     1.0000 0.54140  0.72440  0.87360  Biso   1.000  H
  H430     1.0000 0.94770  0.92530  0.45830  Biso   1.000  H
  H431     1.0000 0.79810  0.99010  0.44510  Biso   1.000  H
  H432     1.0000 0.82690  0.03430  0.44970  Biso   1.000  H
  H433     1.0000 0.98990  0.82990  0.40670  Biso   1.000  H
  H434     1.0000 0.99160  0.87260  0.41100  Biso   1.000  H
  H435     1.0000 0.94360  0.92680  0.36160  Biso   1.000  H
  H436     1.0000 0.99260  0.89500  0.33480  Biso   1.000  H
  H437     1.0000 0.94560  0.88320  0.35540  Biso   1.000  H
  H438     1.0000 0.95670  0.84090  0.50050  Biso   1.000  H
  H439     1.0000 0.95540  0.79760  0.49680  Biso   1.000  H
  H440     1.0000 0.87700  0.81260  0.54240  Biso   1.000  H
  H441     1.0000 0.90370  0.81130  0.56950  Biso   1.000  H
  H442     1.0000 0.87360  0.86060  0.54140  Biso   1.000  H
  H443     1.0000 0.92530  0.94770  0.66870  Biso   1.000  H
  H444     1.0000 0.99010  0.79810  0.76670  Biso   1.000  H
  H445     1.0000 0.03430  0.82690  0.68910  Biso   1.000  H
  H446     1.0000 0.82990  0.98990  0.77350  Biso   1.000  H
  H447     1.0000 0.87260  0.99160  0.72480  Biso   1.000  H
  H448     1.0000 0.92680  0.94360  0.76800  Biso   1.000  H
  H449     1.0000 0.89500  0.99260  0.77760  Biso   1.000  H
  H450     1.0000 0.88320  0.94560  0.81580  Biso   1.000  H
  H451     1.0000 0.84090  0.95670  0.70190  Biso   1.000  H
  H452     1.0000 0.79760  0.95540  0.75020  Biso   1.000  H
  H453     1.0000 0.81260  0.87700  0.76800  Biso   1.000  H
  H454     1.0000 0.81130  0.90370  0.71550  Biso   1.000  H
  H455     1.0000 0.86060  0.87360  0.72440  Biso   1.000  H
  H456     1.0000 0.66870  0.45830  0.92530  Biso   1.000  H
  H457     1.0000 0.76670  0.44510  0.99010  Biso   1.000  H
  H458     1.0000 0.68910  0.44970  0.03430  Biso   1.000  H
  H459     1.0000 0.77350  0.40670  0.82990  Biso   1.000  H
  H460     1.0000 0.72480  0.41100  0.87260  Biso   1.000  H
  H461     1.0000 0.76800  0.36160  0.92680  Biso   1.000  H
  H462     1.0000 0.77760  0.33480  0.89500  Biso   1.000  H
  H463     1.0000 0.81580  0.35540  0.88320  Biso   1.000  H
  H464     1.0000 0.70190  0.50050  0.84090  Biso   1.000  H
  H465     1.0000 0.75020  0.49680  0.79760  Biso   1.000  H
  H466     1.0000 0.76800  0.54240  0.81260  Biso   1.000  H
  H467     1.0000 0.71550  0.56950  0.81130  Biso   1.000  H
  H468     1.0000 0.72440  0.54140  0.86060  Biso   1.000  H
  H469     1.0000 0.55230  0.04170  0.57470  Biso   1.000  H
  H470     1.0000 0.70190  0.05490  0.50990  Biso   1.000  H
  H471     1.0000 0.67310  0.05030  0.46570  Biso   1.000  H
  H472     1.0000 0.51010  0.09330  0.67010  Biso   1.000  H
  H473     1.0000 0.50840  0.08900  0.62740  Biso   1.000  H
  H474     1.0000 0.55640  0.13840  0.57320  Biso   1.000  H
  H475     1.0000 0.50740  0.16520  0.60500  Biso   1.000  H
  H476     1.0000 0.55440  0.14460  0.61680  Biso   1.000  H
  H477     1.0000 0.54330  0.99950  0.65910  Biso   1.000  H
  H478     1.0000 0.54460  0.00320  0.70240  Biso   1.000  H
  H479     1.0000 0.62300  0.95760  0.68740  Biso   1.000  H
  H480     1.0000 0.59630  0.93050  0.68870  Biso   1.000  H
  H481     1.0000 0.62640  0.95860  0.63940  Biso   1.000  H
  H482     1.0000 0.04170  0.55230  0.83130  Biso   1.000  H
  H483     1.0000 0.05490  0.70190  0.73330  Biso   1.000  H
  H484     1.0000 0.05030  0.67310  0.81090  Biso   1.000  H
  H485     1.0000 0.09330  0.51010  0.72650  Biso   1.000  H
  H486     1.0000 0.08900  0.50840  0.77520  Biso   1.000  H
  H487     1.0000 0.13840  0.55640  0.73200  Biso   1.000  H
  H488     1.0000 0.16520  0.50740  0.72240  Biso   1.000  H
  H489     1.0000 0.14460  0.55440  0.68420  Biso   1.000  H
  H490     1.0000 0.99950  0.54330  0.79810  Biso   1.000  H
  H491     1.0000 0.00320  0.54460  0.74980  Biso   1.000  H
  H492     1.0000 0.95760  0.62300  0.73200  Biso   1.000  H
  H493     1.0000 0.93050  0.59630  0.78450  Biso   1.000  H
  H494     1.0000 0.95860  0.62640  0.77560  Biso   1.000  H
  H495     1.0000 0.83130  0.57470  0.04170  Biso   1.000  H
  H496     1.0000 0.73330  0.50990  0.05490  Biso   1.000  H
  H497     1.0000 0.81090  0.46570  0.05030  Biso   1.000  H
  H498     1.0000 0.72650  0.67010  0.09330  Biso   1.000  H
  H499     1.0000 0.77520  0.62740  0.08900  Biso   1.000  H
  H500     1.0000 0.73200  0.57320  0.13840  Biso   1.000  H
  H501     1.0000 0.72240  0.60500  0.16520  Biso   1.000  H
  H502     1.0000 0.68420  0.61680  0.14460  Biso   1.000  H
  H503     1.0000 0.79810  0.65910  0.99950  Biso   1.000  H
  H504     1.0000 0.74980  0.70240  0.00320  Biso   1.000  H
  H505     1.0000 0.73200  0.68740  0.95760  Biso   1.000  H
  H506     1.0000 0.78450  0.68870  0.93050  Biso   1.000  H
  H507     1.0000 0.77560  0.63940  0.95860  Biso   1.000  H
  H508     1.0000 0.57470  0.83130  0.55230  Biso   1.000  H
  H509     1.0000 0.50990  0.73330  0.70190  Biso   1.000  H
  H510     1.0000 0.46570  0.81090  0.67310  Biso   1.000  H
  H511     1.0000 0.67010  0.72650  0.51010  Biso   1.000  H
  H512     1.0000 0.62740  0.77520  0.50840  Biso   1.000  H
  H513     1.0000 0.57320  0.73200  0.55640  Biso   1.000  H
  H514     1.0000 0.60500  0.72240  0.50740  Biso   1.000  H
  H515     1.0000 0.61680  0.68420  0.55440  Biso   1.000  H
  H516     1.0000 0.65910  0.79810  0.54330  Biso   1.000  H
  H517     1.0000 0.70240  0.74980  0.54460  Biso   1.000  H
  H518     1.0000 0.68740  0.73200  0.62300  Biso   1.000  H
  H519     1.0000 0.68870  0.78450  0.59630  Biso   1.000  H
  H520     1.0000 0.63940  0.77560  0.62640  Biso   1.000  H
  H521     1.0000 0.57470  0.04170  0.83130  Biso   1.000  H
  H522     1.0000 0.50990  0.05490  0.73330  Biso   1.000  H
  H523     1.0000 0.46570  0.05030  0.81090  Biso   1.000  H
  H524     1.0000 0.67010  0.09330  0.72650  Biso   1.000  H
  H525     1.0000 0.62740  0.08900  0.77520  Biso   1.000  H
  H526     1.0000 0.57320  0.13840  0.73200  Biso   1.000  H
  H527     1.0000 0.60500  0.16520  0.72240  Biso   1.000  H
  H528     1.0000 0.61680  0.14460  0.68420  Biso   1.000  H
  H529     1.0000 0.65910  0.99950  0.79810  Biso   1.000  H
  H530     1.0000 0.70240  0.00320  0.74980  Biso   1.000  H
  H531     1.0000 0.68740  0.95760  0.73200  Biso   1.000  H
  H532     1.0000 0.68870  0.93050  0.78450  Biso   1.000  H
  H533     1.0000 0.63940  0.95860  0.77560  Biso   1.000  H
  H534     1.0000 0.83130  0.55230  0.57470  Biso   1.000  H
  H535     1.0000 0.73330  0.70190  0.50990  Biso   1.000  H
  H536     1.0000 0.81090  0.67310  0.46570  Biso   1.000  H
  H537     1.0000 0.72650  0.51010  0.67010  Biso   1.000  H
  H538     1.0000 0.77520  0.50840  0.62740  Biso   1.000  H
  H539     1.0000 0.73200  0.55640  0.57320  Biso   1.000  H
  H540     1.0000 0.72240  0.50740  0.60500  Biso   1.000  H
  H541     1.0000 0.68420  0.55440  0.61680  Biso   1.000  H
  H542     1.0000 0.79810  0.54330  0.65910  Biso   1.000  H
  H543     1.0000 0.74980  0.54460  0.70240  Biso   1.000  H
  H544     1.0000 0.73200  0.62300  0.68740  Biso   1.000  H
  H545     1.0000 0.78450  0.59630  0.68870  Biso   1.000  H
  H546     1.0000 0.77560  0.62640  0.63940  Biso   1.000  H
  H547     1.0000 0.04170  0.57470  0.55230  Biso   1.000  H
  H548     1.0000 0.05490  0.50990  0.70190  Biso   1.000  H
  H549     1.0000 0.05030  0.46570  0.67310  Biso   1.000  H
  H550     1.0000 0.09330  0.67010  0.51010  Biso   1.000  H
  H551     1.0000 0.08900  0.62740  0.50840  Biso   1.000  H
  H552     1.0000 0.13840  0.57320  0.55640  Biso   1.000  H
  H553     1.0000 0.16520  0.60500  0.50740  Biso   1.000  H
  H554     1.0000 0.14460  0.61680  0.55440  Biso   1.000  H
  H555     1.0000 0.99950  0.65910  0.54330  Biso   1.000  H
  H556     1.0000 0.00320  0.70240  0.54460  Biso   1.000  H
  H557     1.0000 0.95760  0.68740  0.62300  Biso   1.000  H
  H558     1.0000 0.93050  0.68870  0.59630  Biso   1.000  H
  H559     1.0000 0.95860  0.63940  0.62640  Biso   1.000  H
  H560     1.0000 0.55230  0.83130  0.04170  Biso   1.000  H
  H561     1.0000 0.70190  0.73330  0.05490  Biso   1.000  H
  H562     1.0000 0.67310  0.81090  0.05030  Biso   1.000  H
  H563     1.0000 0.51010  0.72650  0.09330  Biso   1.000  H
  H564     1.0000 0.50840  0.77520  0.08900  Biso   1.000  H
  H565     1.0000 0.55640  0.73200  0.13840  Biso   1.000  H
  H566     1.0000 0.50740  0.72240  0.16520  Biso   1.000  H
  H567     1.0000 0.55440  0.68420  0.14460  Biso   1.000  H
  H568     1.0000 0.54330  0.79810  0.99950  Biso   1.000  H
  H569     1.0000 0.54460  0.74980  0.00320  Biso   1.000  H
  H570     1.0000 0.62300  0.73200  0.95760  Biso   1.000  H
  H571     1.0000 0.59630  0.78450  0.93050  Biso   1.000  H
  H572     1.0000 0.62640  0.77560  0.95860  Biso   1.000  H
  H573     1.0000 0.83130  0.04170  0.55230  Biso   1.000  H
  H574     1.0000 0.73330  0.05490  0.70190  Biso   1.000  H
  H575     1.0000 0.81090  0.05030  0.67310  Biso   1.000  H
  H576     1.0000 0.72650  0.09330  0.51010  Biso   1.000  H
  H577     1.0000 0.77520  0.08900  0.50840  Biso   1.000  H
  H578     1.0000 0.73200  0.13840  0.55640  Biso   1.000  H
  H579     1.0000 0.72240  0.16520  0.50740  Biso   1.000  H
  H580     1.0000 0.68420  0.14460  0.55440  Biso   1.000  H
  H581     1.0000 0.79810  0.99950  0.54330  Biso   1.000  H
  H582     1.0000 0.74980  0.00320  0.54460  Biso   1.000  H
  H583     1.0000 0.73200  0.95760  0.62300  Biso   1.000  H
  H584     1.0000 0.78450  0.93050  0.59630  Biso   1.000  H
  H585     1.0000 0.77560  0.95860  0.62640  Biso   1.000  H
  H586     1.0000 0.57470  0.55230  0.04170  Biso   1.000  H
  H587     1.0000 0.50990  0.70190  0.05490  Biso   1.000  H
  H588     1.0000 0.46570  0.67310  0.05030  Biso   1.000  H
  H589     1.0000 0.67010  0.51010  0.09330  Biso   1.000  H
  H590     1.0000 0.62740  0.50840  0.08900  Biso   1.000  H
  H591     1.0000 0.57320  0.55640  0.13840  Biso   1.000  H
  H592     1.0000 0.60500  0.50740  0.16520  Biso   1.000  H
  H593     1.0000 0.61680  0.55440  0.14460  Biso   1.000  H
  H594     1.0000 0.65910  0.54330  0.99950  Biso   1.000  H
  H595     1.0000 0.70240  0.54460  0.00320  Biso   1.000  H
  H596     1.0000 0.68740  0.62300  0.95760  Biso   1.000  H
  H597     1.0000 0.68870  0.59630  0.93050  Biso   1.000  H
  H598     1.0000 0.63940  0.62640  0.95860  Biso   1.000  H
  H599     1.0000 0.55230  0.57470  0.83130  Biso   1.000  H
  H600     1.0000 0.70190  0.50990  0.73330  Biso   1.000  H
  H601     1.0000 0.67310  0.46570  0.81090  Biso   1.000  H
  H602     1.0000 0.51010  0.67010  0.72650  Biso   1.000  H
  H603     1.0000 0.50840  0.62740  0.77520  Biso   1.000  H
  H604     1.0000 0.55640  0.57320  0.73200  Biso   1.000  H
  H605     1.0000 0.50740  0.60500  0.72240  Biso   1.000  H
  H606     1.0000 0.55440  0.61680  0.68420  Biso   1.000  H
  H607     1.0000 0.54330  0.65910  0.79810  Biso   1.000  H
  H608     1.0000 0.54460  0.70240  0.74980  Biso   1.000  H
  H609     1.0000 0.62300  0.68740  0.73200  Biso   1.000  H
  H610     1.0000 0.59630  0.68870  0.78450  Biso   1.000  H
  H611     1.0000 0.62640  0.63940  0.77560  Biso   1.000  H
  H612     1.0000 0.04170  0.83130  0.57470  Biso   1.000  H
  H613     1.0000 0.05490  0.73330  0.50990  Biso   1.000  H
  H614     1.0000 0.05030  0.81090  0.46570  Biso   1.000  H
  H615     1.0000 0.09330  0.72650  0.67010  Biso   1.000  H
  H616     1.0000 0.08900  0.77520  0.62740  Biso   1.000  H
  H617     1.0000 0.13840  0.73200  0.57320  Biso   1.000  H
  H618     1.0000 0.16520  0.72240  0.60500  Biso   1.000  H
  H619     1.0000 0.14460  0.68420  0.61680  Biso   1.000  H
  H620     1.0000 0.99950  0.79810  0.65910  Biso   1.000  H
  H621     1.0000 0.00320  0.74980  0.70240  Biso   1.000  H
  H622     1.0000 0.95760  0.73200  0.68740  Biso   1.000  H
  H623     1.0000 0.93050  0.78450  0.68870  Biso   1.000  H
  H624     1.0000 0.95860  0.77560  0.63940  Biso   1.000  H
  C1       1.0000 0.53963  0.09419  0.98723  Biso   1.000  C
  C2       1.0000 0.54508  0.11060  0.01554  Biso   1.000  C
  C3       1.0000 0.54449  0.08245  0.06161  Biso   1.000  C
  C4       1.0000 0.54816  0.09956  0.08814  Biso   1.000  C
  C5       1.0000 0.55158  0.14448  0.06964  Biso   1.000  C
  C6       1.0000 0.55234  0.17160  0.02338  Biso   1.000  C
  C7       1.0000 0.54939  0.15431  0.99721  Biso   1.000  C
  C8       1.0000 0.54904  0.07348  0.13768  Biso   1.000  C
  C9       1.0000 0.55242  0.10962  0.14714  Biso   1.000  C
  C10      1.0000 0.55323  0.15155  0.10743  Biso   1.000  C
  C11      1.0000 0.59238  0.02810  0.13762  Biso   1.000  C
  C12      1.0000 0.63942  0.03738  0.10524  Biso   1.000  C
  C13      1.0000 0.50206  0.06306  0.16996  Biso   1.000  C
  C14      1.0000 0.45836  0.10598  0.17144  Biso   1.000  C
  C15      1.0000 0.09419  0.53963  0.37895  Biso   1.000  C
  C16      1.0000 0.11060  0.54508  0.32878  Biso   1.000  C
  C17      1.0000 0.08245  0.54449  0.31145  Biso   1.000  C
  C18      1.0000 0.09956  0.54816  0.26414  Biso   1.000  C
  C19      1.0000 0.14448  0.55158  0.23430  Biso   1.000  C
  C20      1.0000 0.17160  0.55234  0.25268  Biso   1.000  C
  C21      1.0000 0.15431  0.54939  0.29909  Biso   1.000  C
  C22      1.0000 0.07348  0.54904  0.23980  Biso   1.000  C
  C23      1.0000 0.10962  0.55242  0.19082  Biso   1.000  C
  C24      1.0000 0.15155  0.55323  0.18779  Biso   1.000  C
  C25      1.0000 0.02810  0.59238  0.24190  Biso   1.000  C
  C26      1.0000 0.03738  0.63942  0.21796  Biso   1.000  C
  C27      1.0000 0.06306  0.50206  0.26492  Biso   1.000  C
  C28      1.0000 0.10598  0.45836  0.26422  Biso   1.000  C
  C29      1.0000 0.98723  0.37895  0.53963  Biso   1.000  C
  C30      1.0000 0.01554  0.32878  0.54508  Biso   1.000  C
  C31      1.0000 0.06161  0.31145  0.54449  Biso   1.000  C
  C32      1.0000 0.08814  0.26414  0.54816  Biso   1.000  C
  C33      1.0000 0.06964  0.23430  0.55158  Biso   1.000  C
  C34      1.0000 0.02338  0.25268  0.55234  Biso   1.000  C
  C35      1.0000 0.99721  0.29909  0.54939  Biso   1.000  C
  C36      1.0000 0.13768  0.23980  0.54904  Biso   1.000  C
  C37      1.0000 0.14714  0.19082  0.55242  Biso   1.000  C
  C38      1.0000 0.10743  0.18779  0.55323  Biso   1.000  C
  C39      1.0000 0.13762  0.24190  0.59238  Biso   1.000  C
  C40      1.0000 0.10524  0.21796  0.63942  Biso   1.000  C
  C41      1.0000 0.16996  0.26492  0.50206  Biso   1.000  C
  C42      1.0000 0.17144  0.26422  0.45836  Biso   1.000  C
  C43      1.0000 0.37895  0.98723  0.09419  Biso   1.000  C
  C44      1.0000 0.32878  0.01554  0.11060  Biso   1.000  C
  C45      1.0000 0.31145  0.06161  0.08245  Biso   1.000  C
  C46      1.0000 0.26414  0.08814  0.09956  Biso   1.000  C
  C47      1.0000 0.23430  0.06964  0.14448  Biso   1.000  C
  C48      1.0000 0.25268  0.02338  0.17160  Biso   1.000  C
  C49      1.0000 0.29909  0.99721  0.15431  Biso   1.000  C
  C50      1.0000 0.23980  0.13768  0.07348  Biso   1.000  C
  C51      1.0000 0.19082  0.14714  0.10962  Biso   1.000  C
  C52      1.0000 0.18779  0.10743  0.15155  Biso   1.000  C
  C53      1.0000 0.24190  0.13762  0.02810  Biso   1.000  C
  C54      1.0000 0.21796  0.10524  0.03738  Biso   1.000  C
  C55      1.0000 0.26492  0.16996  0.06306  Biso   1.000  C
  C56      1.0000 0.26422  0.17144  0.10598  Biso   1.000  C
  C57      1.0000 0.53963  0.98723  0.37895  Biso   1.000  C
  C58      1.0000 0.54508  0.01554  0.32878  Biso   1.000  C
  C59      1.0000 0.54449  0.06161  0.31145  Biso   1.000  C
  C60      1.0000 0.54816  0.08814  0.26414  Biso   1.000  C
  C61      1.0000 0.55158  0.06964  0.23430  Biso   1.000  C
  C62      1.0000 0.55234  0.02338  0.25268  Biso   1.000  C
  C63      1.0000 0.54939  0.99721  0.29909  Biso   1.000  C
  C64      1.0000 0.54904  0.13768  0.23980  Biso   1.000  C
  C65      1.0000 0.55242  0.14714  0.19082  Biso   1.000  C
  C66      1.0000 0.55323  0.10743  0.18779  Biso   1.000  C
  C67      1.0000 0.59238  0.13762  0.24190  Biso   1.000  C
  C68      1.0000 0.63942  0.10524  0.21796  Biso   1.000  C
  C69      1.0000 0.50206  0.16996  0.26492  Biso   1.000  C
  C70      1.0000 0.45836  0.17144  0.26422  Biso   1.000  C
  C71      1.0000 0.09419  0.37895  0.98723  Biso   1.000  C
  C72      1.0000 0.11060  0.32878  0.01554  Biso   1.000  C
  C73      1.0000 0.08245  0.31145  0.06161  Biso   1.000  C
  C74      1.0000 0.09956  0.26414  0.08814  Biso   1.000  C
  C75      1.0000 0.14448  0.23430  0.06964  Biso   1.000  C
  C76      1.0000 0.17160  0.25268  0.02338  Biso   1.000  C
  C77      1.0000 0.15431  0.29909  0.99721  Biso   1.000  C
  C78      1.0000 0.07348  0.23980  0.13768  Biso   1.000  C
  C79      1.0000 0.10962  0.19082  0.14714  Biso   1.000  C
  C80      1.0000 0.15155  0.18779  0.10743  Biso   1.000  C
  C81      1.0000 0.02810  0.24190  0.13762  Biso   1.000  C
  C82      1.0000 0.03738  0.21796  0.10524  Biso   1.000  C
  C83      1.0000 0.06306  0.26492  0.16996  Biso   1.000  C
  C84      1.0000 0.10598  0.26422  0.17144  Biso   1.000  C
  C85      1.0000 0.98723  0.53963  0.09419  Biso   1.000  C
  C86      1.0000 0.01554  0.54508  0.11060  Biso   1.000  C
  C87      1.0000 0.06161  0.54449  0.08245  Biso   1.000  C
  C88      1.0000 0.08814  0.54816  0.09956  Biso   1.000  C
  C89      1.0000 0.06964  0.55158  0.14448  Biso   1.000  C
  C90      1.0000 0.02338  0.55234  0.17160  Biso   1.000  C
  C91      1.0000 0.99721  0.54939  0.15431  Biso   1.000  C
  C92      1.0000 0.13768  0.54904  0.07348  Biso   1.000  C
  C93      1.0000 0.14714  0.55242  0.10962  Biso   1.000  C
  C94      1.0000 0.10743  0.55323  0.15155  Biso   1.000  C
  C95      1.0000 0.13762  0.59238  0.02810  Biso   1.000  C
  C96      1.0000 0.10524  0.63942  0.03738  Biso   1.000  C
  C97      1.0000 0.16996  0.50206  0.06306  Biso   1.000  C
  C98      1.0000 0.17144  0.45836  0.10598  Biso   1.000  C
  C99      1.0000 0.37895  0.09419  0.53963  Biso   1.000  C
  C100     1.0000 0.32878  0.11060  0.54508  Biso   1.000  C
  C101     1.0000 0.31145  0.08245  0.54449  Biso   1.000  C
  C102     1.0000 0.26414  0.09956  0.54816  Biso   1.000  C
  C103     1.0000 0.23430  0.14448  0.55158  Biso   1.000  C
  C104     1.0000 0.25268  0.17160  0.55234  Biso   1.000  C
  C105     1.0000 0.29909  0.15431  0.54939  Biso   1.000  C
  C106     1.0000 0.23980  0.07348  0.54904  Biso   1.000  C
  C107     1.0000 0.19082  0.10962  0.55242  Biso   1.000  C
  C108     1.0000 0.18779  0.15155  0.55323  Biso   1.000  C
  C109     1.0000 0.24190  0.02810  0.59238  Biso   1.000  C
  C110     1.0000 0.21796  0.03738  0.63942  Biso   1.000  C
  C111     1.0000 0.26492  0.06306  0.50206  Biso   1.000  C
  C112     1.0000 0.26422  0.10598  0.45836  Biso   1.000  C
  C113     1.0000 0.53963  0.37895  0.09419  Biso   1.000  C
  C114     1.0000 0.54508  0.32878  0.11060  Biso   1.000  C
  C115     1.0000 0.54449  0.31145  0.08245  Biso   1.000  C
  C116     1.0000 0.54816  0.26414  0.09956  Biso   1.000  C
  C117     1.0000 0.55158  0.23430  0.14448  Biso   1.000  C
  C118     1.0000 0.55234  0.25268  0.17160  Biso   1.000  C
  C119     1.0000 0.54939  0.29909  0.15431  Biso   1.000  C
  C120     1.0000 0.54904  0.23980  0.07348  Biso   1.000  C
  C121     1.0000 0.55242  0.19082  0.10962  Biso   1.000  C
  C122     1.0000 0.55323  0.18779  0.15155  Biso   1.000  C
  C123     1.0000 0.59238  0.24190  0.02810  Biso   1.000  C
  C124     1.0000 0.63942  0.21796  0.03738  Biso   1.000  C
  C125     1.0000 0.50206  0.26492  0.06306  Biso   1.000  C
  C126     1.0000 0.45836  0.26422  0.10598  Biso   1.000  C
  C127     1.0000 0.09419  0.98723  0.53963  Biso   1.000  C
  C128     1.0000 0.11060  0.01554  0.54508  Biso   1.000  C
  C129     1.0000 0.08245  0.06161  0.54449  Biso   1.000  C
  C130     1.0000 0.09956  0.08814  0.54816  Biso   1.000  C
  C131     1.0000 0.14448  0.06964  0.55158  Biso   1.000  C
  C132     1.0000 0.17160  0.02338  0.55234  Biso   1.000  C
  C133     1.0000 0.15431  0.99721  0.54939  Biso   1.000  C
  C134     1.0000 0.07348  0.13768  0.54904  Biso   1.000  C
  C135     1.0000 0.10962  0.14714  0.55242  Biso   1.000  C
  C136     1.0000 0.15155  0.10743  0.55323  Biso   1.000  C
  C137     1.0000 0.02810  0.13762  0.59238  Biso   1.000  C
  C138     1.0000 0.03738  0.10524  0.63942  Biso   1.000  C
  C139     1.0000 0.06306  0.16996  0.50206  Biso   1.000  C
  C140     1.0000 0.10598  0.17144  0.45836  Biso   1.000  C
  C141     1.0000 0.98723  0.09419  0.37895  Biso   1.000  C
  C142     1.0000 0.01554  0.11060  0.32878  Biso   1.000  C
  C143     1.0000 0.06161  0.08245  0.31145  Biso   1.000  C
  C144     1.0000 0.08814  0.09956  0.26414  Biso   1.000  C
  C145     1.0000 0.06964  0.14448  0.23430  Biso   1.000  C
  C146     1.0000 0.02338  0.17160  0.25268  Biso   1.000  C
  C147     1.0000 0.99721  0.15431  0.29909  Biso   1.000  C
  C148     1.0000 0.13768  0.07348  0.23980  Biso   1.000  C
  C149     1.0000 0.14714  0.10962  0.19082  Biso   1.000  C
  C150     1.0000 0.10743  0.15155  0.18779  Biso   1.000  C
  C151     1.0000 0.13762  0.02810  0.24190  Biso   1.000  C
  C152     1.0000 0.10524  0.03738  0.21796  Biso   1.000  C
  C153     1.0000 0.16996  0.06306  0.26492  Biso   1.000  C
  C154     1.0000 0.17144  0.10598  0.26422  Biso   1.000  C
  C155     1.0000 0.37895  0.53963  0.98723  Biso   1.000  C
  C156     1.0000 0.32878  0.54508  0.01554  Biso   1.000  C
  C157     1.0000 0.31145  0.54449  0.06161  Biso   1.000  C
  C158     1.0000 0.26414  0.54816  0.08814  Biso   1.000  C
  C159     1.0000 0.23430  0.55158  0.06964  Biso   1.000  C
  C160     1.0000 0.25268  0.55234  0.02338  Biso   1.000  C
  C161     1.0000 0.29909  0.54939  0.99721  Biso   1.000  C
  C162     1.0000 0.23980  0.54904  0.13768  Biso   1.000  C
  C163     1.0000 0.19082  0.55242  0.14714  Biso   1.000  C
  C164     1.0000 0.18779  0.55323  0.10743  Biso   1.000  C
  C165     1.0000 0.24190  0.59238  0.13762  Biso   1.000  C
  C166     1.0000 0.21796  0.63942  0.10524  Biso   1.000  C
  C167     1.0000 0.26492  0.50206  0.16996  Biso   1.000  C
  C168     1.0000 0.26422  0.45836  0.17144  Biso   1.000  C
  C169     1.0000 0.40581  0.96037  0.51277  Biso   1.000  C
  C170     1.0000 0.38940  0.95492  0.48446  Biso   1.000  C
  C171     1.0000 0.41755  0.95551  0.43839  Biso   1.000  C
  C172     1.0000 0.40044  0.95184  0.41186  Biso   1.000  C
  C173     1.0000 0.35552  0.94842  0.43036  Biso   1.000  C
  C174     1.0000 0.32840  0.94766  0.47662  Biso   1.000  C
  C175     1.0000 0.34569  0.95061  0.50279  Biso   1.000  C
  C176     1.0000 0.42652  0.95096  0.36232  Biso   1.000  C
  C177     1.0000 0.39038  0.94758  0.35286  Biso   1.000  C
  C178     1.0000 0.34845  0.94677  0.39257  Biso   1.000  C
  C179     1.0000 0.47190  0.90762  0.36238  Biso   1.000  C
  C180     1.0000 0.46262  0.86058  0.39476  Biso   1.000  C
  C181     1.0000 0.43694  0.99794  0.33004  Biso   1.000  C
  C182     1.0000 0.39402  0.04164  0.32856  Biso   1.000  C
  C183     1.0000 0.96037  0.40581  0.12105  Biso   1.000  C
  C184     1.0000 0.95492  0.38940  0.17122  Biso   1.000  C
  C185     1.0000 0.95551  0.41755  0.18855  Biso   1.000  C
  C186     1.0000 0.95184  0.40044  0.23586  Biso   1.000  C
  C187     1.0000 0.94842  0.35552  0.26570  Biso   1.000  C
  C188     1.0000 0.94766  0.32840  0.24732  Biso   1.000  C
  C189     1.0000 0.95061  0.34569  0.20091  Biso   1.000  C
  C190     1.0000 0.95096  0.42652  0.26020  Biso   1.000  C
  C191     1.0000 0.94758  0.39038  0.30918  Biso   1.000  C
  C192     1.0000 0.94677  0.34845  0.31221  Biso   1.000  C
  C193     1.0000 0.90762  0.47190  0.25810  Biso   1.000  C
  C194     1.0000 0.86058  0.46262  0.28204  Biso   1.000  C
  C195     1.0000 0.99794  0.43694  0.23508  Biso   1.000  C
  C196     1.0000 0.04164  0.39402  0.23578  Biso   1.000  C
  C197     1.0000 0.12105  0.51277  0.96037  Biso   1.000  C
  C198     1.0000 0.17122  0.48446  0.95492  Biso   1.000  C
  C199     1.0000 0.18855  0.43839  0.95551  Biso   1.000  C
  C200     1.0000 0.23586  0.41186  0.95184  Biso   1.000  C
  C201     1.0000 0.26570  0.43036  0.94842  Biso   1.000  C
  C202     1.0000 0.24732  0.47662  0.94766  Biso   1.000  C
  C203     1.0000 0.20091  0.50279  0.95061  Biso   1.000  C
  C204     1.0000 0.26020  0.36232  0.95096  Biso   1.000  C
  C205     1.0000 0.30918  0.35286  0.94758  Biso   1.000  C
  C206     1.0000 0.31221  0.39257  0.94677  Biso   1.000  C
  C207     1.0000 0.25810  0.36238  0.90762  Biso   1.000  C
  C208     1.0000 0.28204  0.39476  0.86058  Biso   1.000  C
  C209     1.0000 0.23508  0.33004  0.99794  Biso   1.000  C
  C210     1.0000 0.23578  0.32856  0.04164  Biso   1.000  C
  C211     1.0000 0.51277  0.12105  0.40581  Biso   1.000  C
  C212     1.0000 0.48446  0.17122  0.38940  Biso   1.000  C
  C213     1.0000 0.43839  0.18855  0.41755  Biso   1.000  C
  C214     1.0000 0.41186  0.23586  0.40044  Biso   1.000  C
  C215     1.0000 0.43036  0.26570  0.35552  Biso   1.000  C
  C216     1.0000 0.47662  0.24732  0.32840  Biso   1.000  C
  C217     1.0000 0.50279  0.20091  0.34569  Biso   1.000  C
  C218     1.0000 0.36232  0.26020  0.42652  Biso   1.000  C
  C219     1.0000 0.35286  0.30918  0.39038  Biso   1.000  C
  C220     1.0000 0.39257  0.31221  0.34845  Biso   1.000  C
  C221     1.0000 0.36238  0.25810  0.47190  Biso   1.000  C
  C222     1.0000 0.39476  0.28204  0.46262  Biso   1.000  C
  C223     1.0000 0.33004  0.23508  0.43694  Biso   1.000  C
  C224     1.0000 0.32856  0.23578  0.39402  Biso   1.000  C
  C225     1.0000 0.51277  0.96037  0.12105  Biso   1.000  C
  C226     1.0000 0.48446  0.95492  0.17122  Biso   1.000  C
  C227     1.0000 0.43839  0.95551  0.18855  Biso   1.000  C
  C228     1.0000 0.41186  0.95184  0.23586  Biso   1.000  C
  C229     1.0000 0.43036  0.94842  0.26570  Biso   1.000  C
  C230     1.0000 0.47662  0.94766  0.24732  Biso   1.000  C
  C231     1.0000 0.50279  0.95061  0.20091  Biso   1.000  C
  C232     1.0000 0.36232  0.95096  0.26020  Biso   1.000  C
  C233     1.0000 0.35286  0.94758  0.30918  Biso   1.000  C
  C234     1.0000 0.39257  0.94677  0.31221  Biso   1.000  C
  C235     1.0000 0.36238  0.90762  0.25810  Biso   1.000  C
  C236     1.0000 0.39476  0.86058  0.28204  Biso   1.000  C
  C237     1.0000 0.33004  0.99794  0.23508  Biso   1.000  C
  C238     1.0000 0.32856  0.04164  0.23578  Biso   1.000  C
  C239     1.0000 0.12105  0.40581  0.51277  Biso   1.000  C
  C240     1.0000 0.17122  0.38940  0.48446  Biso   1.000  C
  C241     1.0000 0.18855  0.41755  0.43839  Biso   1.000  C
  C242     1.0000 0.23586  0.40044  0.41186  Biso   1.000  C
  C243     1.0000 0.26570  0.35552  0.43036  Biso   1.000  C
  C244     1.0000 0.24732  0.32840  0.47662  Biso   1.000  C
  C245     1.0000 0.20091  0.34569  0.50279  Biso   1.000  C
  C246     1.0000 0.26020  0.42652  0.36232  Biso   1.000  C
  C247     1.0000 0.30918  0.39038  0.35286  Biso   1.000  C
  C248     1.0000 0.31221  0.34845  0.39257  Biso   1.000  C
  C249     1.0000 0.25810  0.47190  0.36238  Biso   1.000  C
  C250     1.0000 0.28204  0.46262  0.39476  Biso   1.000  C
  C251     1.0000 0.23508  0.43694  0.33004  Biso   1.000  C
  C252     1.0000 0.23578  0.39402  0.32856  Biso   1.000  C
  C253     1.0000 0.96037  0.51277  0.40581  Biso   1.000  C
  C254     1.0000 0.95492  0.48446  0.38940  Biso   1.000  C
  C255     1.0000 0.95551  0.43839  0.41755  Biso   1.000  C
  C256     1.0000 0.95184  0.41186  0.40044  Biso   1.000  C
  C257     1.0000 0.94842  0.43036  0.35552  Biso   1.000  C
  C258     1.0000 0.94766  0.47662  0.32840  Biso   1.000  C
  C259     1.0000 0.95061  0.50279  0.34569  Biso   1.000  C
  C260     1.0000 0.95096  0.36232  0.42652  Biso   1.000  C
  C261     1.0000 0.94758  0.35286  0.39038  Biso   1.000  C
  C262     1.0000 0.94677  0.39257  0.34845  Biso   1.000  C
  C263     1.0000 0.90762  0.36238  0.47190  Biso   1.000  C
  C264     1.0000 0.86058  0.39476  0.46262  Biso   1.000  C
  C265     1.0000 0.99794  0.33004  0.43694  Biso   1.000  C
  C266     1.0000 0.04164  0.32856  0.39402  Biso   1.000  C
  C267     1.0000 0.40581  0.12105  0.96037  Biso   1.000  C
  C268     1.0000 0.38940  0.17122  0.95492  Biso   1.000  C
  C269     1.0000 0.41755  0.18855  0.95551  Biso   1.000  C
  C270     1.0000 0.40044  0.23586  0.95184  Biso   1.000  C
  C271     1.0000 0.35552  0.26570  0.94842  Biso   1.000  C
  C272     1.0000 0.32840  0.24732  0.94766  Biso   1.000  C
  C273     1.0000 0.34569  0.20091  0.95061  Biso   1.000  C
  C274     1.0000 0.42652  0.26020  0.95096  Biso   1.000  C
  C275     1.0000 0.39038  0.30918  0.94758  Biso   1.000  C
  C276     1.0000 0.34845  0.31221  0.94677  Biso   1.000  C
  C277     1.0000 0.47190  0.25810  0.90762  Biso   1.000  C
  C278     1.0000 0.46262  0.28204  0.86058  Biso   1.000  C
  C279     1.0000 0.43694  0.23508  0.99794  Biso   1.000  C
  C280     1.0000 0.39402  0.23578  0.04164  Biso   1.000  C
  C281     1.0000 0.12105  0.96037  0.40581  Biso   1.000  C
  C282     1.0000 0.17122  0.95492  0.38940  Biso   1.000  C
  C283     1.0000 0.18855  0.95551  0.41755  Biso   1.000  C
  C284     1.0000 0.23586  0.95184  0.40044  Biso   1.000  C
  C285     1.0000 0.26570  0.94842  0.35552  Biso   1.000  C
  C286     1.0000 0.24732  0.94766  0.32840  Biso   1.000  C
  C287     1.0000 0.20091  0.95061  0.34569  Biso   1.000  C
  C288     1.0000 0.26020  0.95096  0.42652  Biso   1.000  C
  C289     1.0000 0.30918  0.94758  0.39038  Biso   1.000  C
  C290     1.0000 0.31221  0.94677  0.34845  Biso   1.000  C
  C291     1.0000 0.25810  0.90762  0.47190  Biso   1.000  C
  C292     1.0000 0.28204  0.86058  0.46262  Biso   1.000  C
  C293     1.0000 0.23508  0.99794  0.43694  Biso   1.000  C
  C294     1.0000 0.23578  0.04164  0.39402  Biso   1.000  C
  C295     1.0000 0.51277  0.40581  0.96037  Biso   1.000  C
  C296     1.0000 0.48446  0.38940  0.95492  Biso   1.000  C
  C297     1.0000 0.43839  0.41755  0.95551  Biso   1.000  C
  C298     1.0000 0.41186  0.40044  0.95184  Biso   1.000  C
  C299     1.0000 0.43036  0.35552  0.94842  Biso   1.000  C
  C300     1.0000 0.47662  0.32840  0.94766  Biso   1.000  C
  C301     1.0000 0.50279  0.34569  0.95061  Biso   1.000  C
  C302     1.0000 0.36232  0.42652  0.95096  Biso   1.000  C
  C303     1.0000 0.35286  0.39038  0.94758  Biso   1.000  C
  C304     1.0000 0.39257  0.34845  0.94677  Biso   1.000  C
  C305     1.0000 0.36238  0.47190  0.90762  Biso   1.000  C
  C306     1.0000 0.39476  0.46262  0.86058  Biso   1.000  C
  C307     1.0000 0.33004  0.43694  0.99794  Biso   1.000  C
  C308     1.0000 0.32856  0.39402  0.04164  Biso   1.000  C
  C309     1.0000 0.40581  0.51277  0.12105  Biso   1.000  C
  C310     1.0000 0.38940  0.48446  0.17122  Biso   1.000  C
  C311     1.0000 0.41755  0.43839  0.18855  Biso   1.000  C
  C312     1.0000 0.40044  0.41186  0.23586  Biso   1.000  C
  C313     1.0000 0.35552  0.43036  0.26570  Biso   1.000  C
  C314     1.0000 0.32840  0.47662  0.24732  Biso   1.000  C
  C315     1.0000 0.34569  0.50279  0.20091  Biso   1.000  C
  C316     1.0000 0.42652  0.36232  0.26020  Biso   1.000  C
  C317     1.0000 0.39038  0.35286  0.30918  Biso   1.000  C
  C318     1.0000 0.34845  0.39257  0.31221  Biso   1.000  C
  C319     1.0000 0.47190  0.36238  0.25810  Biso   1.000  C
  C320     1.0000 0.46262  0.39476  0.28204  Biso   1.000  C
  C321     1.0000 0.43694  0.33004  0.23508  Biso   1.000  C
  C322     1.0000 0.39402  0.32856  0.23578  Biso   1.000  C
  C323     1.0000 0.96037  0.12105  0.51277  Biso   1.000  C
  C324     1.0000 0.95492  0.17122  0.48446  Biso   1.000  C
  C325     1.0000 0.95551  0.18855  0.43839  Biso   1.000  C
  C326     1.0000 0.95184  0.23586  0.41186  Biso   1.000  C
  C327     1.0000 0.94842  0.26570  0.43036  Biso   1.000  C
  C328     1.0000 0.94766  0.24732  0.47662  Biso   1.000  C
  C329     1.0000 0.95061  0.20091  0.50279  Biso   1.000  C
  C330     1.0000 0.95096  0.26020  0.36232  Biso   1.000  C
  C331     1.0000 0.94758  0.30918  0.35286  Biso   1.000  C
  C332     1.0000 0.94677  0.31221  0.39257  Biso   1.000  C
  C333     1.0000 0.90762  0.25810  0.36238  Biso   1.000  C
  C334     1.0000 0.86058  0.28204  0.39476  Biso   1.000  C
  C335     1.0000 0.99794  0.23508  0.33004  Biso   1.000  C
  C336     1.0000 0.04164  0.23578  0.32856  Biso   1.000  C
  C337     1.0000 0.46037  0.90581  0.01277  Biso   1.000  C
  C338     1.0000 0.45492  0.88940  0.98446  Biso   1.000  C
  C339     1.0000 0.45551  0.91755  0.93839  Biso   1.000  C
  C340     1.0000 0.45184  0.90044  0.91186  Biso   1.000  C
  C341     1.0000 0.44842  0.85552  0.93036  Biso   1.000  C
  C342     1.0000 0.44766  0.82840  0.97662  Biso   1.000  C
  C343     1.0000 0.45061  0.84569  0.00279  Biso   1.000  C
  C344     1.0000 0.45096  0.92652  0.86232  Biso   1.000  C
  C345     1.0000 0.44758  0.89038  0.85286  Biso   1.000  C
  C346     1.0000 0.44677  0.84845  0.89257  Biso   1.000  C
  C347     1.0000 0.40762  0.97190  0.86238  Biso   1.000  C
  C348     1.0000 0.36058  0.96262  0.89476  Biso   1.000  C
  C349     1.0000 0.49794  0.93694  0.83004  Biso   1.000  C
  C350     1.0000 0.54164  0.89402  0.82856  Biso   1.000  C
  C351     1.0000 0.90581  0.46037  0.62105  Biso   1.000  C
  C352     1.0000 0.88940  0.45492  0.67122  Biso   1.000  C
  C353     1.0000 0.91755  0.45551  0.68855  Biso   1.000  C
  C354     1.0000 0.90044  0.45184  0.73586  Biso   1.000  C
  C355     1.0000 0.85552  0.44842  0.76570  Biso   1.000  C
  C356     1.0000 0.82840  0.44766  0.74732  Biso   1.000  C
  C357     1.0000 0.84569  0.45061  0.70091  Biso   1.000  C
  C358     1.0000 0.92652  0.45096  0.76020  Biso   1.000  C
  C359     1.0000 0.89038  0.44758  0.80918  Biso   1.000  C
  C360     1.0000 0.84845  0.44677  0.81221  Biso   1.000  C
  C361     1.0000 0.97190  0.40762  0.75810  Biso   1.000  C
  C362     1.0000 0.96262  0.36058  0.78204  Biso   1.000  C
  C363     1.0000 0.93694  0.49794  0.73508  Biso   1.000  C
  C364     1.0000 0.89402  0.54164  0.73578  Biso   1.000  C
  C365     1.0000 0.01277  0.62105  0.46037  Biso   1.000  C
  C366     1.0000 0.98446  0.67122  0.45492  Biso   1.000  C
  C367     1.0000 0.93839  0.68855  0.45551  Biso   1.000  C
  C368     1.0000 0.91186  0.73586  0.45184  Biso   1.000  C
  C369     1.0000 0.93036  0.76570  0.44842  Biso   1.000  C
  C370     1.0000 0.97662  0.74732  0.44766  Biso   1.000  C
  C371     1.0000 0.00279  0.70091  0.45061  Biso   1.000  C
  C372     1.0000 0.86232  0.76020  0.45096  Biso   1.000  C
  C373     1.0000 0.85286  0.80918  0.44758  Biso   1.000  C
  C374     1.0000 0.89257  0.81221  0.44677  Biso   1.000  C
  C375     1.0000 0.86238  0.75810  0.40762  Biso   1.000  C
  C376     1.0000 0.89476  0.78204  0.36058  Biso   1.000  C
  C377     1.0000 0.83004  0.73508  0.49794  Biso   1.000  C
  C378     1.0000 0.82856  0.73578  0.54164  Biso   1.000  C
  C379     1.0000 0.62105  0.01277  0.90581  Biso   1.000  C
  C380     1.0000 0.67122  0.98446  0.88940  Biso   1.000  C
  C381     1.0000 0.68855  0.93839  0.91755  Biso   1.000  C
  C382     1.0000 0.73586  0.91186  0.90044  Biso   1.000  C
  C383     1.0000 0.76570  0.93036  0.85552  Biso   1.000  C
  C384     1.0000 0.74732  0.97662  0.82840  Biso   1.000  C
  C385     1.0000 0.70091  0.00279  0.84569  Biso   1.000  C
  C386     1.0000 0.76020  0.86232  0.92652  Biso   1.000  C
  C387     1.0000 0.80918  0.85286  0.89038  Biso   1.000  C
  C388     1.0000 0.81221  0.89257  0.84845  Biso   1.000  C
  C389     1.0000 0.75810  0.86238  0.97190  Biso   1.000  C
  C390     1.0000 0.78204  0.89476  0.96262  Biso   1.000  C
  C391     1.0000 0.73508  0.83004  0.93694  Biso   1.000  C
  C392     1.0000 0.73578  0.82856  0.89402  Biso   1.000  C
  C393     1.0000 0.46037  0.01277  0.62105  Biso   1.000  C
  C394     1.0000 0.45492  0.98446  0.67122  Biso   1.000  C
  C395     1.0000 0.45551  0.93839  0.68855  Biso   1.000  C
  C396     1.0000 0.45184  0.91186  0.73586  Biso   1.000  C
  C397     1.0000 0.44842  0.93036  0.76570  Biso   1.000  C
  C398     1.0000 0.44766  0.97662  0.74732  Biso   1.000  C
  C399     1.0000 0.45061  0.00279  0.70091  Biso   1.000  C
  C400     1.0000 0.45096  0.86232  0.76020  Biso   1.000  C
  C401     1.0000 0.44758  0.85286  0.80918  Biso   1.000  C
  C402     1.0000 0.44677  0.89257  0.81221  Biso   1.000  C
  C403     1.0000 0.40762  0.86238  0.75810  Biso   1.000  C
  C404     1.0000 0.36058  0.89476  0.78204  Biso   1.000  C
  C405     1.0000 0.49794  0.83004  0.73508  Biso   1.000  C
  C406     1.0000 0.54164  0.82856  0.73578  Biso   1.000  C
  C407     1.0000 0.90581  0.62105  0.01277  Biso   1.000  C
  C408     1.0000 0.88940  0.67122  0.98446  Biso   1.000  C
  C409     1.0000 0.91755  0.68855  0.93839  Biso   1.000  C
  C410     1.0000 0.90044  0.73586  0.91186  Biso   1.000  C
  C411     1.0000 0.85552  0.76570  0.93036  Biso   1.000  C
  C412     1.0000 0.82840  0.74732  0.97662  Biso   1.000  C
  C413     1.0000 0.84569  0.70091  0.00279  Biso   1.000  C
  C414     1.0000 0.92652  0.76020  0.86232  Biso   1.000  C
  C415     1.0000 0.89038  0.80918  0.85286  Biso   1.000  C
  C416     1.0000 0.84845  0.81221  0.89257  Biso   1.000  C
  C417     1.0000 0.97190  0.75810  0.86238  Biso   1.000  C
  C418     1.0000 0.96262  0.78204  0.89476  Biso   1.000  C
  C419     1.0000 0.93694  0.73508  0.83004  Biso   1.000  C
  C420     1.0000 0.89402  0.73578  0.82856  Biso   1.000  C
  C421     1.0000 0.01277  0.46037  0.90581  Biso   1.000  C
  C422     1.0000 0.98446  0.45492  0.88940  Biso   1.000  C
  C423     1.0000 0.93839  0.45551  0.91755  Biso   1.000  C
  C424     1.0000 0.91186  0.45184  0.90044  Biso   1.000  C
  C425     1.0000 0.93036  0.44842  0.85552  Biso   1.000  C
  C426     1.0000 0.97662  0.44766  0.82840  Biso   1.000  C
  C427     1.0000 0.00279  0.45061  0.84569  Biso   1.000  C
  C428     1.0000 0.86232  0.45096  0.92652  Biso   1.000  C
  C429     1.0000 0.85286  0.44758  0.89038  Biso   1.000  C
  C430     1.0000 0.89257  0.44677  0.84845  Biso   1.000  C
  C431     1.0000 0.86238  0.40762  0.97190  Biso   1.000  C
  C432     1.0000 0.89476  0.36058  0.96262  Biso   1.000  C
  C433     1.0000 0.83004  0.49794  0.93694  Biso   1.000  C
  C434     1.0000 0.82856  0.54164  0.89402  Biso   1.000  C
  C435     1.0000 0.62105  0.90581  0.46037  Biso   1.000  C
  C436     1.0000 0.67122  0.88940  0.45492  Biso   1.000  C
  C437     1.0000 0.68855  0.91755  0.45551  Biso   1.000  C
  C438     1.0000 0.73586  0.90044  0.45184  Biso   1.000  C
  C439     1.0000 0.76570  0.85552  0.44842  Biso   1.000  C
  C440     1.0000 0.74732  0.82840  0.44766  Biso   1.000  C
  C441     1.0000 0.70091  0.84569  0.45061  Biso   1.000  C
  C442     1.0000 0.76020  0.92652  0.45096  Biso   1.000  C
  C443     1.0000 0.80918  0.89038  0.44758  Biso   1.000  C
  C444     1.0000 0.81221  0.84845  0.44677  Biso   1.000  C
  C445     1.0000 0.75810  0.97190  0.40762  Biso   1.000  C
  C446     1.0000 0.78204  0.96262  0.36058  Biso   1.000  C
  C447     1.0000 0.73508  0.93694  0.49794  Biso   1.000  C
  C448     1.0000 0.73578  0.89402  0.54164  Biso   1.000  C
  C449     1.0000 0.46037  0.62105  0.90581  Biso   1.000  C
  C450     1.0000 0.45492  0.67122  0.88940  Biso   1.000  C
  C451     1.0000 0.45551  0.68855  0.91755  Biso   1.000  C
  C452     1.0000 0.45184  0.73586  0.90044  Biso   1.000  C
  C453     1.0000 0.44842  0.76570  0.85552  Biso   1.000  C
  C454     1.0000 0.44766  0.74732  0.82840  Biso   1.000  C
  C455     1.0000 0.45061  0.70091  0.84569  Biso   1.000  C
  C456     1.0000 0.45096  0.76020  0.92652  Biso   1.000  C
  C457     1.0000 0.44758  0.80918  0.89038  Biso   1.000  C
  C458     1.0000 0.44677  0.81221  0.84845  Biso   1.000  C
  C459     1.0000 0.40762  0.75810  0.97190  Biso   1.000  C
  C460     1.0000 0.36058  0.78204  0.96262  Biso   1.000  C
  C461     1.0000 0.49794  0.73508  0.93694  Biso   1.000  C
  C462     1.0000 0.54164  0.73578  0.89402  Biso   1.000  C
  C463     1.0000 0.90581  0.01277  0.46037  Biso   1.000  C
  C464     1.0000 0.88940  0.98446  0.45492  Biso   1.000  C
  C465     1.0000 0.91755  0.93839  0.45551  Biso   1.000  C
  C466     1.0000 0.90044  0.91186  0.45184  Biso   1.000  C
  C467     1.0000 0.85552  0.93036  0.44842  Biso   1.000  C
  C468     1.0000 0.82840  0.97662  0.44766  Biso   1.000  C
  C469     1.0000 0.84569  0.00279  0.45061  Biso   1.000  C
  C470     1.0000 0.92652  0.86232  0.45096  Biso   1.000  C
  C471     1.0000 0.89038  0.85286  0.44758  Biso   1.000  C
  C472     1.0000 0.84845  0.89257  0.44677  Biso   1.000  C
  C473     1.0000 0.97190  0.86238  0.40762  Biso   1.000  C
  C474     1.0000 0.96262  0.89476  0.36058  Biso   1.000  C
  C475     1.0000 0.93694  0.83004  0.49794  Biso   1.000  C
  C476     1.0000 0.89402  0.82856  0.54164  Biso   1.000  C
  C477     1.0000 0.01277  0.90581  0.62105  Biso   1.000  C
  C478     1.0000 0.98446  0.88940  0.67122  Biso   1.000  C
  C479     1.0000 0.93839  0.91755  0.68855  Biso   1.000  C
  C480     1.0000 0.91186  0.90044  0.73586  Biso   1.000  C
  C481     1.0000 0.93036  0.85552  0.76570  Biso   1.000  C
  C482     1.0000 0.97662  0.82840  0.74732  Biso   1.000  C
  C483     1.0000 0.00279  0.84569  0.70091  Biso   1.000  C
  C484     1.0000 0.86232  0.92652  0.76020  Biso   1.000  C
  C485     1.0000 0.85286  0.89038  0.80918  Biso   1.000  C
  C486     1.0000 0.89257  0.84845  0.81221  Biso   1.000  C
  C487     1.0000 0.86238  0.97190  0.75810  Biso   1.000  C
  C488     1.0000 0.89476  0.96262  0.78204  Biso   1.000  C
  C489     1.0000 0.83004  0.93694  0.73508  Biso   1.000  C
  C490     1.0000 0.82856  0.89402  0.73578  Biso   1.000  C
  C491     1.0000 0.62105  0.46037  0.01277  Biso   1.000  C
  C492     1.0000 0.67122  0.45492  0.98446  Biso   1.000  C
  C493     1.0000 0.68855  0.45551  0.93839  Biso   1.000  C
  C494     1.0000 0.73586  0.45184  0.91186  Biso   1.000  C
  C495     1.0000 0.76570  0.44842  0.93036  Biso   1.000  C
  C496     1.0000 0.74732  0.44766  0.97662  Biso   1.000  C
  C497     1.0000 0.70091  0.45061  0.00279  Biso   1.000  C
  C498     1.0000 0.76020  0.45096  0.86232  Biso   1.000  C
  C499     1.0000 0.80918  0.44758  0.85286  Biso   1.000  C
  C500     1.0000 0.81221  0.44677  0.89257  Biso   1.000  C
  C501     1.0000 0.75810  0.40762  0.86238  Biso   1.000  C
  C502     1.0000 0.78204  0.36058  0.89476  Biso   1.000  C
  C503     1.0000 0.73508  0.49794  0.83004  Biso   1.000  C
  C504     1.0000 0.73578  0.54164  0.82856  Biso   1.000  C
  C505     1.0000 0.59419  0.03963  0.48723  Biso   1.000  C
  C506     1.0000 0.61060  0.04508  0.51554  Biso   1.000  C
  C507     1.0000 0.58245  0.04449  0.56161  Biso   1.000  C
  C508     1.0000 0.59956  0.04816  0.58814  Biso   1.000  C
  C509     1.0000 0.64448  0.05158  0.56964  Biso   1.000  C
  C510     1.0000 0.67160  0.05234  0.52338  Biso   1.000  C
  C511     1.0000 0.65431  0.04939  0.49721  Biso   1.000  C
  C512     1.0000 0.57348  0.04904  0.63768  Biso   1.000  C
  C513     1.0000 0.60962  0.05242  0.64714  Biso   1.000  C
  C514     1.0000 0.65155  0.05323  0.60743  Biso   1.000  C
  C515     1.0000 0.52810  0.09238  0.63762  Biso   1.000  C
  C516     1.0000 0.53738  0.13942  0.60524  Biso   1.000  C
  C517     1.0000 0.56306  0.00206  0.66996  Biso   1.000  C
  C518     1.0000 0.60598  0.95836  0.67144  Biso   1.000  C
  C519     1.0000 0.03963  0.59419  0.87895  Biso   1.000  C
  C520     1.0000 0.04508  0.61060  0.82878  Biso   1.000  C
  C521     1.0000 0.04449  0.58245  0.81145  Biso   1.000  C
  C522     1.0000 0.04816  0.59956  0.76414  Biso   1.000  C
  C523     1.0000 0.05158  0.64448  0.73430  Biso   1.000  C
  C524     1.0000 0.05234  0.67160  0.75268  Biso   1.000  C
  C525     1.0000 0.04939  0.65431  0.79909  Biso   1.000  C
  C526     1.0000 0.04904  0.57348  0.73980  Biso   1.000  C
  C527     1.0000 0.05242  0.60962  0.69082  Biso   1.000  C
  C528     1.0000 0.05323  0.65155  0.68779  Biso   1.000  C
  C529     1.0000 0.09238  0.52810  0.74190  Biso   1.000  C
  C530     1.0000 0.13942  0.53738  0.71796  Biso   1.000  C
  C531     1.0000 0.00206  0.56306  0.76492  Biso   1.000  C
  C532     1.0000 0.95836  0.60598  0.76422  Biso   1.000  C
  C533     1.0000 0.87895  0.48723  0.03963  Biso   1.000  C
  C534     1.0000 0.82878  0.51554  0.04508  Biso   1.000  C
  C535     1.0000 0.81145  0.56161  0.04449  Biso   1.000  C
  C536     1.0000 0.76414  0.58814  0.04816  Biso   1.000  C
  C537     1.0000 0.73430  0.56964  0.05158  Biso   1.000  C
  C538     1.0000 0.75268  0.52338  0.05234  Biso   1.000  C
  C539     1.0000 0.79909  0.49721  0.04939  Biso   1.000  C
  C540     1.0000 0.73980  0.63768  0.04904  Biso   1.000  C
  C541     1.0000 0.69082  0.64714  0.05242  Biso   1.000  C
  C542     1.0000 0.68779  0.60743  0.05323  Biso   1.000  C
  C543     1.0000 0.74190  0.63762  0.09238  Biso   1.000  C
  C544     1.0000 0.71796  0.60524  0.13942  Biso   1.000  C
  C545     1.0000 0.76492  0.66996  0.00206  Biso   1.000  C
  C546     1.0000 0.76422  0.67144  0.95836  Biso   1.000  C
  C547     1.0000 0.48723  0.87895  0.59419  Biso   1.000  C
  C548     1.0000 0.51554  0.82878  0.61060  Biso   1.000  C
  C549     1.0000 0.56161  0.81145  0.58245  Biso   1.000  C
  C550     1.0000 0.58814  0.76414  0.59956  Biso   1.000  C
  C551     1.0000 0.56964  0.73430  0.64448  Biso   1.000  C
  C552     1.0000 0.52338  0.75268  0.67160  Biso   1.000  C
  C553     1.0000 0.49721  0.79909  0.65431  Biso   1.000  C
  C554     1.0000 0.63768  0.73980  0.57348  Biso   1.000  C
  C555     1.0000 0.64714  0.69082  0.60962  Biso   1.000  C
  C556     1.0000 0.60743  0.68779  0.65155  Biso   1.000  C
  C557     1.0000 0.63762  0.74190  0.52810  Biso   1.000  C
  C558     1.0000 0.60524  0.71796  0.53738  Biso   1.000  C
  C559     1.0000 0.66996  0.76492  0.56306  Biso   1.000  C
  C560     1.0000 0.67144  0.76422  0.60598  Biso   1.000  C
  C561     1.0000 0.48723  0.03963  0.87895  Biso   1.000  C
  C562     1.0000 0.51554  0.04508  0.82878  Biso   1.000  C
  C563     1.0000 0.56161  0.04449  0.81145  Biso   1.000  C
  C564     1.0000 0.58814  0.04816  0.76414  Biso   1.000  C
  C565     1.0000 0.56964  0.05158  0.73430  Biso   1.000  C
  C566     1.0000 0.52338  0.05234  0.75268  Biso   1.000  C
  C567     1.0000 0.49721  0.04939  0.79909  Biso   1.000  C
  C568     1.0000 0.63768  0.04904  0.73980  Biso   1.000  C
  C569     1.0000 0.64714  0.05242  0.69082  Biso   1.000  C
  C570     1.0000 0.60743  0.05323  0.68779  Biso   1.000  C
  C571     1.0000 0.63762  0.09238  0.74190  Biso   1.000  C
  C572     1.0000 0.60524  0.13942  0.71796  Biso   1.000  C
  C573     1.0000 0.66996  0.00206  0.76492  Biso   1.000  C
  C574     1.0000 0.67144  0.95836  0.76422  Biso   1.000  C
  C575     1.0000 0.87895  0.59419  0.48723  Biso   1.000  C
  C576     1.0000 0.82878  0.61060  0.51554  Biso   1.000  C
  C577     1.0000 0.81145  0.58245  0.56161  Biso   1.000  C
  C578     1.0000 0.76414  0.59956  0.58814  Biso   1.000  C
  C579     1.0000 0.73430  0.64448  0.56964  Biso   1.000  C
  C580     1.0000 0.75268  0.67160  0.52338  Biso   1.000  C
  C581     1.0000 0.79909  0.65431  0.49721  Biso   1.000  C
  C582     1.0000 0.73980  0.57348  0.63768  Biso   1.000  C
  C583     1.0000 0.69082  0.60962  0.64714  Biso   1.000  C
  C584     1.0000 0.68779  0.65155  0.60743  Biso   1.000  C
  C585     1.0000 0.74190  0.52810  0.63762  Biso   1.000  C
  C586     1.0000 0.71796  0.53738  0.60524  Biso   1.000  C
  C587     1.0000 0.76492  0.56306  0.66996  Biso   1.000  C
  C588     1.0000 0.76422  0.60598  0.67144  Biso   1.000  C
  C589     1.0000 0.03963  0.48723  0.59419  Biso   1.000  C
  C590     1.0000 0.04508  0.51554  0.61060  Biso   1.000  C
  C591     1.0000 0.04449  0.56161  0.58245  Biso   1.000  C
  C592     1.0000 0.04816  0.58814  0.59956  Biso   1.000  C
  C593     1.0000 0.05158  0.56964  0.64448  Biso   1.000  C
  C594     1.0000 0.05234  0.52338  0.67160  Biso   1.000  C
  C595     1.0000 0.04939  0.49721  0.65431  Biso   1.000  C
  C596     1.0000 0.04904  0.63768  0.57348  Biso   1.000  C
  C597     1.0000 0.05242  0.64714  0.60962  Biso   1.000  C
  C598     1.0000 0.05323  0.60743  0.65155  Biso   1.000  C
  C599     1.0000 0.09238  0.63762  0.52810  Biso   1.000  C
  C600     1.0000 0.13942  0.60524  0.53738  Biso   1.000  C
  C601     1.0000 0.00206  0.66996  0.56306  Biso   1.000  C
  C602     1.0000 0.95836  0.67144  0.60598  Biso   1.000  C
  C603     1.0000 0.59419  0.87895  0.03963  Biso   1.000  C
  C604     1.0000 0.61060  0.82878  0.04508  Biso   1.000  C
  C605     1.0000 0.58245  0.81145  0.04449  Biso   1.000  C
  C606     1.0000 0.59956  0.76414  0.04816  Biso   1.000  C
  C607     1.0000 0.64448  0.73430  0.05158  Biso   1.000  C
  C608     1.0000 0.67160  0.75268  0.05234  Biso   1.000  C
  C609     1.0000 0.65431  0.79909  0.04939  Biso   1.000  C
  C610     1.0000 0.57348  0.73980  0.04904  Biso   1.000  C
  C611     1.0000 0.60962  0.69082  0.05242  Biso   1.000  C
  C612     1.0000 0.65155  0.68779  0.05323  Biso   1.000  C
  C613     1.0000 0.52810  0.74190  0.09238  Biso   1.000  C
  C614     1.0000 0.53738  0.71796  0.13942  Biso   1.000  C
  C615     1.0000 0.56306  0.76492  0.00206  Biso   1.000  C
  C616     1.0000 0.60598  0.76422  0.95836  Biso   1.000  C
  C617     1.0000 0.87895  0.03963  0.59419  Biso   1.000  C
  C618     1.0000 0.82878  0.04508  0.61060  Biso   1.000  C
  C619     1.0000 0.81145  0.04449  0.58245  Biso   1.000  C
  C620     1.0000 0.76414  0.04816  0.59956  Biso   1.000  C
  C621     1.0000 0.73430  0.05158  0.64448  Biso   1.000  C
  C622     1.0000 0.75268  0.05234  0.67160  Biso   1.000  C
  C623     1.0000 0.79909  0.04939  0.65431  Biso   1.000  C
  C624     1.0000 0.73980  0.04904  0.57348  Biso   1.000  C
  C625     1.0000 0.69082  0.05242  0.60962  Biso   1.000  C
  C626     1.0000 0.68779  0.05323  0.65155  Biso   1.000  C
  C627     1.0000 0.74190  0.09238  0.52810  Biso   1.000  C
  C628     1.0000 0.71796  0.13942  0.53738  Biso   1.000  C
  C629     1.0000 0.76492  0.00206  0.56306  Biso   1.000  C
  C630     1.0000 0.76422  0.95836  0.60598  Biso   1.000  C
  C631     1.0000 0.48723  0.59419  0.03963  Biso   1.000  C
  C632     1.0000 0.51554  0.61060  0.04508  Biso   1.000  C
  C633     1.0000 0.56161  0.58245  0.04449  Biso   1.000  C
  C634     1.0000 0.58814  0.59956  0.04816  Biso   1.000  C
  C635     1.0000 0.56964  0.64448  0.05158  Biso   1.000  C
  C636     1.0000 0.52338  0.67160  0.05234  Biso   1.000  C
  C637     1.0000 0.49721  0.65431  0.04939  Biso   1.000  C
  C638     1.0000 0.63768  0.57348  0.04904  Biso   1.000  C
  C639     1.0000 0.64714  0.60962  0.05242  Biso   1.000  C
  C640     1.0000 0.60743  0.65155  0.05323  Biso   1.000  C
  C641     1.0000 0.63762  0.52810  0.09238  Biso   1.000  C
  C642     1.0000 0.60524  0.53738  0.13942  Biso   1.000  C
  C643     1.0000 0.66996  0.56306  0.00206  Biso   1.000  C
  C644     1.0000 0.67144  0.60598  0.95836  Biso   1.000  C
  C645     1.0000 0.59419  0.48723  0.87895  Biso   1.000  C
  C646     1.0000 0.61060  0.51554  0.82878  Biso   1.000  C
  C647     1.0000 0.58245  0.56161  0.81145  Biso   1.000  C
  C648     1.0000 0.59956  0.58814  0.76414  Biso   1.000  C
  C649     1.0000 0.64448  0.56964  0.73430  Biso   1.000  C
  C650     1.0000 0.67160  0.52338  0.75268  Biso   1.000  C
  C651     1.0000 0.65431  0.49721  0.79909  Biso   1.000  C
  C652     1.0000 0.57348  0.63768  0.73980  Biso   1.000  C
  C653     1.0000 0.60962  0.64714  0.69082  Biso   1.000  C
  C654     1.0000 0.65155  0.60743  0.68779  Biso   1.000  C
  C655     1.0000 0.52810  0.63762  0.74190  Biso   1.000  C
  C656     1.0000 0.53738  0.60524  0.71796  Biso   1.000  C
  C657     1.0000 0.56306  0.66996  0.76492  Biso   1.000  C
  C658     1.0000 0.60598  0.67144  0.76422  Biso   1.000  C
  C659     1.0000 0.03963  0.87895  0.48723  Biso   1.000  C
  C660     1.0000 0.04508  0.82878  0.51554  Biso   1.000  C
  C661     1.0000 0.04449  0.81145  0.56161  Biso   1.000  C
  C662     1.0000 0.04816  0.76414  0.58814  Biso   1.000  C
  C663     1.0000 0.05158  0.73430  0.56964  Biso   1.000  C
  C664     1.0000 0.05234  0.75268  0.52338  Biso   1.000  C
  C665     1.0000 0.04939  0.79909  0.49721  Biso   1.000  C
  C666     1.0000 0.04904  0.73980  0.63768  Biso   1.000  C
  C667     1.0000 0.05242  0.69082  0.64714  Biso   1.000  C
  C668     1.0000 0.05323  0.68779  0.60743  Biso   1.000  C
  C669     1.0000 0.09238  0.74190  0.63762  Biso   1.000  C
  C670     1.0000 0.13942  0.71796  0.60524  Biso   1.000  C
  C671     1.0000 0.00206  0.76492  0.66996  Biso   1.000  C
  C672     1.0000 0.95836  0.76422  0.67144  Biso   1.000  C
  C673     1.0000 0.48010  0.13870  0.86130  Biso   1.000  C
  C674     1.0000 0.13870  0.48010  0.51990  Biso   1.000  C
  C675     1.0000 0.86130  0.51990  0.48010  Biso   1.000  C
  C676     1.0000 0.51990  0.86130  0.13870  Biso   1.000  C
  C677     1.0000 0.48010  0.86130  0.51990  Biso   1.000  C
  C678     1.0000 0.13870  0.51990  0.86130  Biso   1.000  C
  C679     1.0000 0.86130  0.48010  0.13870  Biso   1.000  C
  C680     1.0000 0.51990  0.13870  0.48010  Biso   1.000  C
  C681     1.0000 0.48010  0.51990  0.13870  Biso   1.000  C
  C682     1.0000 0.13870  0.86130  0.48010  Biso   1.000  C
  C683     1.0000 0.86130  0.13870  0.51990  Biso   1.000  C
  C684     1.0000 0.51990  0.48010  0.86130  Biso   1.000  C
  C685     1.0000 0.36130  0.01990  0.63870  Biso   1.000  C
  C686     1.0000 0.01990  0.36130  0.98010  Biso   1.000  C
  C687     1.0000 0.98010  0.63870  0.01990  Biso   1.000  C
  C688     1.0000 0.63870  0.98010  0.36130  Biso   1.000  C
  C689     1.0000 0.63870  0.01990  0.98010  Biso   1.000  C
  C690     1.0000 0.98010  0.36130  0.63870  Biso   1.000  C
  C691     1.0000 0.01990  0.63870  0.36130  Biso   1.000  C
  C692     1.0000 0.36130  0.98010  0.01990  Biso   1.000  C
  C693     1.0000 0.98010  0.01990  0.36130  Biso   1.000  C
  C694     1.0000 0.63870  0.36130  0.01990  Biso   1.000  C
  C695     1.0000 0.36130  0.63870  0.98010  Biso   1.000  C
  C696     1.0000 0.01990  0.98010  0.63870  Biso   1.000  C
  O1       1.0000 0.53444  0.05306  0.00670  Biso   1.000  O
  O2       1.0000 0.53558  0.11916  0.94852  Biso   1.000  O
  O3       1.0000 0.05306  0.53444  0.40580  Biso   1.000  O
  O4       1.0000 0.11916  0.53558  0.39674  Biso   1.000  O
  O5       1.0000 0.00670  0.40580  0.53444  Biso   1.000  O
  O6       1.0000 0.94852  0.39674  0.53558  Biso   1.000  O
  O7       1.0000 0.40580  0.00670  0.05306  Biso   1.000  O
  O8       1.0000 0.39674  0.94852  0.11916  Biso   1.000  O
  O9       1.0000 0.53444  0.00670  0.40580  Biso   1.000  O
  O10      1.0000 0.53558  0.94852  0.39674  Biso   1.000  O
  O11      1.0000 0.05306  0.40580  0.00670  Biso   1.000  O
  O12      1.0000 0.11916  0.39674  0.94852  Biso   1.000  O
  O13      1.0000 0.00670  0.53444  0.05306  Biso   1.000  O
  O14      1.0000 0.94852  0.53558  0.11916  Biso   1.000  O
  O15      1.0000 0.40580  0.05306  0.53444  Biso   1.000  O
  O16      1.0000 0.39674  0.11916  0.53558  Biso   1.000  O
  O17      1.0000 0.53444  0.40580  0.05306  Biso   1.000  O
  O18      1.0000 0.53558  0.39674  0.11916  Biso   1.000  O
  O19      1.0000 0.05306  0.00670  0.53444  Biso   1.000  O
  O20      1.0000 0.11916  0.94852  0.53558  Biso   1.000  O
  O21      1.0000 0.00670  0.05306  0.40580  Biso   1.000  O
  O22      1.0000 0.94852  0.11916  0.39674  Biso   1.000  O
  O23      1.0000 0.40580  0.53444  0.00670  Biso   1.000  O
  O24      1.0000 0.39674  0.53558  0.94852  Biso   1.000  O
  O25      1.0000 0.44694  0.96556  0.49330  Biso   1.000  O
  O26      1.0000 0.38084  0.96442  0.55148  Biso   1.000  O
  O27      1.0000 0.96556  0.44694  0.09420  Biso   1.000  O
  O28      1.0000 0.96442  0.38084  0.10326  Biso   1.000  O
  O29      1.0000 0.09420  0.49330  0.96556  Biso   1.000  O
  O30      1.0000 0.10326  0.55148  0.96442  Biso   1.000  O
  O31      1.0000 0.49330  0.09420  0.44694  Biso   1.000  O
  O32      1.0000 0.55148  0.10326  0.38084  Biso   1.000  O
  O33      1.0000 0.49330  0.96556  0.09420  Biso   1.000  O
  O34      1.0000 0.55148  0.96442  0.10326  Biso   1.000  O
  O35      1.0000 0.09420  0.44694  0.49330  Biso   1.000  O
  O36      1.0000 0.10326  0.38084  0.55148  Biso   1.000  O
  O37      1.0000 0.96556  0.49330  0.44694  Biso   1.000  O
  O38      1.0000 0.96442  0.55148  0.38084  Biso   1.000  O
  O39      1.0000 0.44694  0.09420  0.96556  Biso   1.000  O
  O40      1.0000 0.38084  0.10326  0.96442  Biso   1.000  O
  O41      1.0000 0.09420  0.96556  0.44694  Biso   1.000  O
  O42      1.0000 0.10326  0.96442  0.38084  Biso   1.000  O
  O43      1.0000 0.49330  0.44694  0.96556  Biso   1.000  O
  O44      1.0000 0.55148  0.38084  0.96442  Biso   1.000  O
  O45      1.0000 0.44694  0.49330  0.09420  Biso   1.000  O
  O46      1.0000 0.38084  0.55148  0.10326  Biso   1.000  O
  O47      1.0000 0.96556  0.09420  0.49330  Biso   1.000  O
  O48      1.0000 0.96442  0.10326  0.55148  Biso   1.000  O
  O49      1.0000 0.46556  0.94694  0.99330  Biso   1.000  O
  O50      1.0000 0.46442  0.88084  0.05148  Biso   1.000  O
  O51      1.0000 0.94694  0.46556  0.59420  Biso   1.000  O
  O52      1.0000 0.88084  0.46442  0.60326  Biso   1.000  O
  O53      1.0000 0.99330  0.59420  0.46556  Biso   1.000  O
  O54      1.0000 0.05148  0.60326  0.46442  Biso   1.000  O
  O55      1.0000 0.59420  0.99330  0.94694  Biso   1.000  O
  O56      1.0000 0.60326  0.05148  0.88084  Biso   1.000  O
  O57      1.0000 0.46556  0.99330  0.59420  Biso   1.000  O
  O58      1.0000 0.46442  0.05148  0.60326  Biso   1.000  O
  O59      1.0000 0.94694  0.59420  0.99330  Biso   1.000  O
  O60      1.0000 0.88084  0.60326  0.05148  Biso   1.000  O
  O61      1.0000 0.99330  0.46556  0.94694  Biso   1.000  O
  O62      1.0000 0.05148  0.46442  0.88084  Biso   1.000  O
  O63      1.0000 0.59420  0.94694  0.46556  Biso   1.000  O
  O64      1.0000 0.60326  0.88084  0.46442  Biso   1.000  O
  O65      1.0000 0.46556  0.59420  0.94694  Biso   1.000  O
  O66      1.0000 0.46442  0.60326  0.88084  Biso   1.000  O
  O67      1.0000 0.94694  0.99330  0.46556  Biso   1.000  O
  O68      1.0000 0.88084  0.05148  0.46442  Biso   1.000  O
  O69      1.0000 0.99330  0.94694  0.59420  Biso   1.000  O
  O70      1.0000 0.05148  0.88084  0.60326  Biso   1.000  O
  O71      1.0000 0.59420  0.46556  0.99330  Biso   1.000  O
  O72      1.0000 0.60326  0.46442  0.05148  Biso   1.000  O
  O73      1.0000 0.55306  0.03444  0.50670  Biso   1.000  O
  O74      1.0000 0.61916  0.03558  0.44852  Biso   1.000  O
  O75      1.0000 0.03444  0.55306  0.90580  Biso   1.000  O
  O76      1.0000 0.03558  0.61916  0.89674  Biso   1.000  O
  O77      1.0000 0.90580  0.50670  0.03444  Biso   1.000  O
  O78      1.0000 0.89674  0.44852  0.03558  Biso   1.000  O
  O79      1.0000 0.50670  0.90580  0.55306  Biso   1.000  O
  O80      1.0000 0.44852  0.89674  0.61916  Biso   1.000  O
  O81      1.0000 0.50670  0.03444  0.90580  Biso   1.000  O
  O82      1.0000 0.44852  0.03558  0.89674  Biso   1.000  O
  O83      1.0000 0.90580  0.55306  0.50670  Biso   1.000  O
  O84      1.0000 0.89674  0.61916  0.44852  Biso   1.000  O
  O85      1.0000 0.03444  0.50670  0.55306  Biso   1.000  O
  O86      1.0000 0.03558  0.44852  0.61916  Biso   1.000  O
  O87      1.0000 0.55306  0.90580  0.03444  Biso   1.000  O
  O88      1.0000 0.61916  0.89674  0.03558  Biso   1.000  O
  O89      1.0000 0.90580  0.03444  0.55306  Biso   1.000  O
  O90      1.0000 0.89674  0.03558  0.61916  Biso   1.000  O
  O91      1.0000 0.50670  0.55306  0.03444  Biso   1.000  O
  O92      1.0000 0.44852  0.61916  0.03558  Biso   1.000  O
  O93      1.0000 0.55306  0.50670  0.90580  Biso   1.000  O
  O94      1.0000 0.61916  0.44852  0.89674  Biso   1.000  O
  O95      1.0000 0.03444  0.90580  0.50670  Biso   1.000  O
  O96      1.0000 0.03558  0.89674  0.44852  Biso   1.000  O
  O97      1.0000 0.51900  0.12900  0.87100  Biso   1.000  O
  O98      1.0000 0.12900  0.51900  0.48100  Biso   1.000  O
  O99      1.0000 0.87100  0.48100  0.51900  Biso   1.000  O
  O100     1.0000 0.48100  0.87100  0.12900  Biso   1.000  O
  O101     1.0000 0.51900  0.87100  0.48100  Biso   1.000  O
  O102     1.0000 0.12900  0.48100  0.87100  Biso   1.000  O
  O103     1.0000 0.87100  0.51900  0.12900  Biso   1.000  O
  O104     1.0000 0.48100  0.12900  0.51900  Biso   1.000  O
  O105     1.0000 0.51900  0.48100  0.12900  Biso   1.000  O
  O106     1.0000 0.12900  0.87100  0.51900  Biso   1.000  O
  O107     1.0000 0.87100  0.12900  0.48100  Biso   1.000  O
  O108     1.0000 0.48100  0.51900  0.87100  Biso   1.000  O
  O109     1.0000 0.37100  0.98100  0.62900  Biso   1.000  O
  O110     1.0000 0.98100  0.37100  0.01900  Biso   1.000  O
  O111     1.0000 0.01900  0.62900  0.98100  Biso   1.000  O
  O112     1.0000 0.62900  0.01900  0.37100  Biso   1.000  O
  O113     1.0000 0.62900  0.98100  0.01900  Biso   1.000  O
  O114     1.0000 0.01900  0.37100  0.62900  Biso   1.000  O
  O115     1.0000 0.98100  0.62900  0.37100  Biso   1.000  O
  O116     1.0000 0.37100  0.01900  0.98100  Biso   1.000  O
  O117     1.0000 0.01900  0.98100  0.37100  Biso   1.000  O
  O118     1.0000 0.62900  0.37100  0.98100  Biso   1.000  O
  O119     1.0000 0.37100  0.62900  0.01900  Biso   1.000  O
  O120     1.0000 0.98100  0.01900  0.62900  Biso   1.000  O
  O121     1.0000 0.50000  0.00000  0.00000  Biso   1.000  O
  O122     1.0000 0.00000  0.50000  0.50000  Biso   1.000  O
  O123     1.0000 0.50000  0.00000  0.50000  Biso   1.000  O
  O124     1.0000 0.00000  0.50000  0.00000  Biso   1.000  O
  O125     1.0000 0.50000  0.50000  0.00000  Biso   1.000  O
  O126     1.0000 0.00000  0.00000  0.50000  Biso   1.000  O
