data_image0
_cell_length_a       40.575
_cell_length_b       14.3747
_cell_length_c       20.156
_cell_angle_alpha    90
_cell_angle_beta     108.058
_cell_angle_gamma    90

_symmetry_space_group_name_H-M    "P 1"
_symmetry_int_tables_number       1

loop_
  _symmetry_equiv_pos_as_xyz
  'x, y, z'

loop_
  _atom_site_label
  _atom_site_occupancy
  _atom_site_fract_x
  _atom_site_fract_y
  _atom_site_fract_z
  _atom_site_thermal_displace_type
  _atom_site_B_iso_or_equiv
  _atom_site_type_symbol
  Co1      1.0000 0.41648  0.46531  0.87910  Biso   1.000  Co
  Co2      1.0000 0.77885  0.65438  0.67145  Biso   1.000  Co
  O1       1.0000 0.38255  0.48350  0.78449  Biso   1.000  O
  O2       1.0000 0.43091  0.46354  0.75886  Biso   1.000  O
  O3       1.0000 0.38213  0.53207  0.43176  Biso   1.000  O
  O4       1.0000 0.43225  0.53168  0.51508  Biso   1.000  O
  O5       1.0000 0.78021  0.62450  0.57840  Biso   1.000  O
  O6       1.0000 0.77232  0.48060  0.60537  Biso   1.000  O
  O7       1.0000 0.71436  0.71193  0.33700  Biso   1.000  O
  O8       1.0000 0.72585  0.63070  0.25371  Biso   1.000  O
  N1       1.0000 0.44475  0.58368  0.89491  Biso   1.000  N
  N2       1.0000 0.48144  0.69210  0.88771  Biso   1.000  N
  N3       1.0000 0.56826  0.33133  0.61268  Biso   1.000  N
  N4       1.0000 0.56875  0.18807  0.64961  Biso   1.000  N
  N5       1.0000 0.73044  0.64757  0.67788  Biso   1.000  N
  N6       1.0000 0.68500  0.67974  0.71086  Biso   1.000  N
  N7       1.0000 0.69121  0.91260  0.24384  Biso   1.000  N
  N8       1.0000 0.66241  0.94224  0.13429  Biso   1.000  N
  C1       1.0000 0.39991  0.48370  0.74132  Biso   1.000  C
  C2       1.0000 0.38072  0.51020  0.66713  Biso   1.000  C
  C3       1.0000 0.39815  0.50930  0.61756  Biso   1.000  C
  H1       1.0000 0.42140  0.49210  0.63040  Biso   1.000  H
  C4       1.0000 0.38097  0.53404  0.54906  Biso   1.000  C
  C5       1.0000 0.40026  0.53260  0.49644  Biso   1.000  C
  C6       1.0000 0.34661  0.56000  0.53037  Biso   1.000  C
  H2       1.0000 0.33500  0.57610  0.48430  Biso   1.000  H
  C7       1.0000 0.32928  0.56230  0.57955  Biso   1.000  C
  H3       1.0000 0.30620  0.58110  0.56690  Biso   1.000  H
  C8       1.0000 0.34642  0.53650  0.64808  Biso   1.000  C
  H4       1.0000 0.33470  0.53700  0.68110  Biso   1.000  H
  C9       1.0000 0.46748  0.60980  0.86448  Biso   1.000  C
  H5       1.0000 0.47320  0.57500  0.83070  Biso   1.000  H
  C10      1.0000 0.46550  0.72260  0.93509  Biso   1.000  C
  H6       1.0000 0.46950  0.77840  0.95960  Biso   1.000  H
  C11      1.0000 0.44329  0.65600  0.93870  Biso   1.000  C
  H7       1.0000 0.42890  0.65800  0.96670  Biso   1.000  H
  C12      1.0000 0.50894  0.73790  0.86977  Biso   1.000  C
  C13      1.0000 0.53226  0.68650  0.84815  Biso   1.000  C
  H8       1.0000 0.52950  0.62240  0.84260  Biso   1.000  H
  C14      1.0000 0.56000  0.73080  0.83458  Biso   1.000  C
  H9       1.0000 0.57570  0.69590  0.81980  Biso   1.000  H
  C15      1.0000 0.56451  0.82600  0.84269  Biso   1.000  C
  C16      1.0000 0.54026  0.87660  0.86419  Biso   1.000  C
  H10      1.0000 0.54290  0.94070  0.86990  Biso   1.000  H
  C17      1.0000 0.51247  0.83330  0.87708  Biso   1.000  C
  H11      1.0000 0.49630  0.86800  0.89060  Biso   1.000  H
  C18      1.0000 0.59736  0.87776  0.83989  Biso   1.000  C
  C19      1.0000 0.57477  0.27610  0.66747  Biso   1.000  C
  H12      1.0000 0.58270  0.29690  0.71340  Biso   1.000  H
  C20      1.0000 0.55835  0.18370  0.57793  Biso   1.000  C
  H13      1.0000 0.55280  0.13070  0.55030  Biso   1.000  H
  C21      1.0000 0.55782  0.27310  0.55616  Biso   1.000  C
  H14      1.0000 0.55140  0.29200  0.50980  Biso   1.000  H
  C22      1.0000 0.57511  0.11110  0.69766  Biso   1.000  C
  C23      1.0000 0.60682  0.10480  0.74854  Biso   1.000  C
  H15      1.0000 0.62370  0.14980  0.75160  Biso   1.000  H
  C24      1.0000 0.61346  0.03100  0.79527  Biso   1.000  C
  H16      1.0000 0.63510  0.02610  0.82900  Biso   1.000  H
  C25      1.0000 0.58821  0.96406  0.79238  Biso   1.000  C
  C26      1.0000 0.55691  0.97190  0.74080  Biso   1.000  C
  H17      1.0000 0.53980  0.92750  0.73780  Biso   1.000  H
  C27      1.0000 0.55015  0.04500  0.69278  Biso   1.000  C
  H18      1.0000 0.52890  0.04880  0.65790  Biso   1.000  H
  C28      1.0000 0.71683  0.70600  0.71262  Biso   1.000  C
  H19      1.0000 0.72800  0.75890  0.73550  Biso   1.000  H
  C29      1.0000 0.70549  0.57950  0.65293  Biso   1.000  C
  H20      1.0000 0.70780  0.52830  0.62640  Biso   1.000  H
  C30      1.0000 0.67755  0.59860  0.67279  Biso   1.000  C
  H21      1.0000 0.65720  0.56400  0.66280  Biso   1.000  H
  C31      1.0000 0.66307  0.72718  0.74395  Biso   1.000  C
  C32      1.0000 0.67757  0.76850  0.80816  Biso   1.000  C
  H22      1.0000 0.70130  0.76490  0.83030  Biso   1.000  H
  C33      1.0000 0.65650  0.81520  0.83934  Biso   1.000  C
  H23      1.0000 0.66640  0.84410  0.88220  Biso   1.000  H
  C34      1.0000 0.62089  0.81980  0.80813  Biso   1.000  C
  C35      1.0000 0.60718  0.77820  0.74295  Biso   1.000  C
  H24      1.0000 0.58340  0.78130  0.72060  Biso   1.000  H
  C36      1.0000 0.62800  0.73260  0.71086  Biso   1.000  C
  H25      1.0000 0.61840  0.70570  0.66720  Biso   1.000  H
  C37      1.0000 0.67619  0.87600  0.18182  Biso   1.000  C
  H26      1.0000 0.67530  0.81260  0.17220  Biso   1.000  H
  C38      1.0000 0.68704  0.00700  0.23535  Biso   1.000  C
  H27      1.0000 0.69520  0.05090  0.27050  Biso   1.000  H
  C39      1.0000 0.66931  0.02640  0.16832  Biso   1.000  C
  H28      1.0000 0.66300  0.08500  0.14900  Biso   1.000  H
  C40      1.0000 0.64569  0.92800  0.06084  Biso   1.000  C
  C41      1.0000 0.64419  0.83930  0.03342  Biso   1.000  C
  H29      1.0000 0.65320  0.78890  0.06230  Biso   1.000  H
  C42      1.0000 0.62922  0.82680  0.96287  Biso   1.000  C
  H30      1.0000 0.62820  0.76700  0.94470  Biso   1.000  H
  C43      1.0000 0.61565  0.89990  0.91763  Biso   1.000  C
  C44      1.0000 0.61695  0.98690  0.94700  Biso   1.000  C
  H31      1.0000 0.60780  0.03750  0.91840  Biso   1.000  H
  C45      1.0000 0.63167  0.00090  0.01849  Biso   1.000  C
  H32      1.0000 0.63190  0.06010  0.03730  Biso   1.000  H
  C46      1.0000 0.77372  0.53940  0.56259  Biso   1.000  C
  C47      1.0000 0.76524  0.51540  0.48697  Biso   1.000  C
  C48      1.0000 0.75182  0.58510  0.43743  Biso   1.000  C
  H33      1.0000 0.74970  0.64540  0.45230  Biso   1.000  H
  C49      1.0000 0.74166  0.56580  0.36663  Biso   1.000  C
  C50      1.0000 0.72675  0.64080  0.31490  Biso   1.000  C
  C51      1.0000 0.74642  0.47670  0.34624  Biso   1.000  C
  H34      1.0000 0.74080  0.46380  0.29880  Biso   1.000  H
  C52      1.0000 0.75894  0.40740  0.39230  Biso   1.000  C
  H35      1.0000 0.76150  0.34790  0.37660  Biso   1.000  H
  C53      1.0000 0.76816  0.42610  0.46470  Biso   1.000  C
  H36      1.0000 0.77610  0.37850  0.49690  Biso   1.000  H
  Co3      1.0000 0.91648  0.96531  0.87910  Biso   1.000  Co
  Co4      1.0000 0.27885  0.15438  0.67145  Biso   1.000  Co
  O9       1.0000 0.88255  0.98350  0.78449  Biso   1.000  O
  O10      1.0000 0.93091  0.96354  0.75886  Biso   1.000  O
  O11      1.0000 0.88213  0.03207  0.43176  Biso   1.000  O
  O12      1.0000 0.93225  0.03168  0.51508  Biso   1.000  O
  O13      1.0000 0.28021  0.12450  0.57840  Biso   1.000  O
  O14      1.0000 0.27232  0.98060  0.60537  Biso   1.000  O
  O15      1.0000 0.21436  0.21193  0.33700  Biso   1.000  O
  O16      1.0000 0.22585  0.13070  0.25371  Biso   1.000  O
  N9       1.0000 0.94475  0.08368  0.89491  Biso   1.000  N
  N10      1.0000 0.98144  0.19210  0.88771  Biso   1.000  N
  N11      1.0000 0.06826  0.83133  0.61268  Biso   1.000  N
  N12      1.0000 0.06875  0.68807  0.64961  Biso   1.000  N
  N13      1.0000 0.23044  0.14757  0.67788  Biso   1.000  N
  N14      1.0000 0.18500  0.17974  0.71086  Biso   1.000  N
  N15      1.0000 0.19121  0.41260  0.24384  Biso   1.000  N
  N16      1.0000 0.16241  0.44224  0.13429  Biso   1.000  N
  C54      1.0000 0.89991  0.98370  0.74132  Biso   1.000  C
  C55      1.0000 0.88072  0.01020  0.66713  Biso   1.000  C
  C56      1.0000 0.89815  0.00930  0.61756  Biso   1.000  C
  H37      1.0000 0.92140  0.99210  0.63040  Biso   1.000  H
  C57      1.0000 0.88097  0.03404  0.54906  Biso   1.000  C
  C58      1.0000 0.90026  0.03260  0.49644  Biso   1.000  C
  C59      1.0000 0.84661  0.06000  0.53037  Biso   1.000  C
  H38      1.0000 0.83500  0.07610  0.48430  Biso   1.000  H
  C60      1.0000 0.82928  0.06230  0.57955  Biso   1.000  C
  H39      1.0000 0.80620  0.08110  0.56690  Biso   1.000  H
  C61      1.0000 0.84642  0.03650  0.64808  Biso   1.000  C
  H40      1.0000 0.83470  0.03700  0.68110  Biso   1.000  H
  C62      1.0000 0.96748  0.10980  0.86448  Biso   1.000  C
  H41      1.0000 0.97320  0.07500  0.83070  Biso   1.000  H
  C63      1.0000 0.96550  0.22260  0.93509  Biso   1.000  C
  H42      1.0000 0.96950  0.27840  0.95960  Biso   1.000  H
  C64      1.0000 0.94329  0.15600  0.93870  Biso   1.000  C
  H43      1.0000 0.92890  0.15800  0.96670  Biso   1.000  H
  C65      1.0000 0.00894  0.23790  0.86977  Biso   1.000  C
  C66      1.0000 0.03226  0.18650  0.84815  Biso   1.000  C
  H44      1.0000 0.02950  0.12240  0.84260  Biso   1.000  H
  C67      1.0000 0.06000  0.23080  0.83458  Biso   1.000  C
  H45      1.0000 0.07570  0.19590  0.81980  Biso   1.000  H
  C68      1.0000 0.06451  0.32600  0.84269  Biso   1.000  C
  C69      1.0000 0.04026  0.37660  0.86419  Biso   1.000  C
  H46      1.0000 0.04290  0.44070  0.86990  Biso   1.000  H
  C70      1.0000 0.01247  0.33330  0.87708  Biso   1.000  C
  H47      1.0000 0.99630  0.36800  0.89060  Biso   1.000  H
  C71      1.0000 0.09736  0.37776  0.83989  Biso   1.000  C
  C72      1.0000 0.07477  0.77610  0.66747  Biso   1.000  C
  H48      1.0000 0.08270  0.79690  0.71340  Biso   1.000  H
  C73      1.0000 0.05835  0.68370  0.57793  Biso   1.000  C
  H49      1.0000 0.05280  0.63070  0.55030  Biso   1.000  H
  C74      1.0000 0.05782  0.77310  0.55616  Biso   1.000  C
  H50      1.0000 0.05140  0.79200  0.50980  Biso   1.000  H
  C75      1.0000 0.07511  0.61110  0.69766  Biso   1.000  C
  C76      1.0000 0.10682  0.60480  0.74854  Biso   1.000  C
  H51      1.0000 0.12370  0.64980  0.75160  Biso   1.000  H
  C77      1.0000 0.11346  0.53100  0.79527  Biso   1.000  C
  H52      1.0000 0.13510  0.52610  0.82900  Biso   1.000  H
  C78      1.0000 0.08821  0.46406  0.79238  Biso   1.000  C
  C79      1.0000 0.05691  0.47190  0.74080  Biso   1.000  C
  H53      1.0000 0.03980  0.42750  0.73780  Biso   1.000  H
  C80      1.0000 0.05015  0.54500  0.69278  Biso   1.000  C
  H54      1.0000 0.02890  0.54880  0.65790  Biso   1.000  H
  C81      1.0000 0.21683  0.20600  0.71262  Biso   1.000  C
  H55      1.0000 0.22800  0.25890  0.73550  Biso   1.000  H
  C82      1.0000 0.20549  0.07950  0.65293  Biso   1.000  C
  H56      1.0000 0.20780  0.02830  0.62640  Biso   1.000  H
  C83      1.0000 0.17755  0.09860  0.67279  Biso   1.000  C
  H57      1.0000 0.15720  0.06400  0.66280  Biso   1.000  H
  C84      1.0000 0.16307  0.22718  0.74395  Biso   1.000  C
  C85      1.0000 0.17757  0.26850  0.80816  Biso   1.000  C
  H58      1.0000 0.20130  0.26490  0.83030  Biso   1.000  H
  C86      1.0000 0.15650  0.31520  0.83934  Biso   1.000  C
  H59      1.0000 0.16640  0.34410  0.88220  Biso   1.000  H
  C87      1.0000 0.12089  0.31980  0.80813  Biso   1.000  C
  C88      1.0000 0.10718  0.27820  0.74295  Biso   1.000  C
  H60      1.0000 0.08340  0.28130  0.72060  Biso   1.000  H
  C89      1.0000 0.12800  0.23260  0.71086  Biso   1.000  C
  H61      1.0000 0.11840  0.20570  0.66720  Biso   1.000  H
  C90      1.0000 0.17619  0.37600  0.18182  Biso   1.000  C
  H62      1.0000 0.17530  0.31260  0.17220  Biso   1.000  H
  C91      1.0000 0.18704  0.50700  0.23535  Biso   1.000  C
  H63      1.0000 0.19520  0.55090  0.27050  Biso   1.000  H
  C92      1.0000 0.16931  0.52640  0.16832  Biso   1.000  C
  H64      1.0000 0.16300  0.58500  0.14900  Biso   1.000  H
  C93      1.0000 0.14569  0.42800  0.06084  Biso   1.000  C
  C94      1.0000 0.14419  0.33930  0.03342  Biso   1.000  C
  H65      1.0000 0.15320  0.28890  0.06230  Biso   1.000  H
  C95      1.0000 0.12922  0.32680  0.96287  Biso   1.000  C
  H66      1.0000 0.12820  0.26700  0.94470  Biso   1.000  H
  C96      1.0000 0.11565  0.39990  0.91763  Biso   1.000  C
  C97      1.0000 0.11695  0.48690  0.94700  Biso   1.000  C
  H67      1.0000 0.10780  0.53750  0.91840  Biso   1.000  H
  C98      1.0000 0.13167  0.50090  0.01849  Biso   1.000  C
  H68      1.0000 0.13190  0.56010  0.03730  Biso   1.000  H
  C99      1.0000 0.27372  0.03940  0.56259  Biso   1.000  C
  C100     1.0000 0.26524  0.01540  0.48697  Biso   1.000  C
  C101     1.0000 0.25182  0.08510  0.43743  Biso   1.000  C
  H69      1.0000 0.24970  0.14540  0.45230  Biso   1.000  H
  C102     1.0000 0.24166  0.06580  0.36663  Biso   1.000  C
  C103     1.0000 0.22675  0.14080  0.31490  Biso   1.000  C
  C104     1.0000 0.24642  0.97670  0.34624  Biso   1.000  C
  H70      1.0000 0.24080  0.96380  0.29880  Biso   1.000  H
  C105     1.0000 0.25894  0.90740  0.39230  Biso   1.000  C
  H71      1.0000 0.26150  0.84790  0.37660  Biso   1.000  H
  C106     1.0000 0.26816  0.92610  0.46470  Biso   1.000  C
  H72      1.0000 0.27610  0.87850  0.49690  Biso   1.000  H
  Co5      1.0000 0.58352  0.46531  0.62090  Biso   1.000  Co
  Co6      1.0000 0.22115  0.65438  0.82855  Biso   1.000  Co
  O17      1.0000 0.61745  0.48350  0.71551  Biso   1.000  O
  O18      1.0000 0.56909  0.46354  0.74114  Biso   1.000  O
  O19      1.0000 0.61787  0.53207  0.06824  Biso   1.000  O
  O20      1.0000 0.56775  0.53168  0.98492  Biso   1.000  O
  O21      1.0000 0.21979  0.62450  0.92160  Biso   1.000  O
  O22      1.0000 0.22768  0.48060  0.89463  Biso   1.000  O
  O23      1.0000 0.28564  0.71193  0.16300  Biso   1.000  O
  O24      1.0000 0.27415  0.63070  0.24629  Biso   1.000  O
  N17      1.0000 0.55525  0.58368  0.60509  Biso   1.000  N
  N18      1.0000 0.51856  0.69210  0.61229  Biso   1.000  N
  N19      1.0000 0.43174  0.33133  0.88732  Biso   1.000  N
  N20      1.0000 0.43125  0.18807  0.85039  Biso   1.000  N
  N21      1.0000 0.26956  0.64757  0.82212  Biso   1.000  N
  N22      1.0000 0.31500  0.67974  0.78914  Biso   1.000  N
  N23      1.0000 0.30879  0.91260  0.25616  Biso   1.000  N
  N24      1.0000 0.33759  0.94224  0.36571  Biso   1.000  N
  C107     1.0000 0.60009  0.48370  0.75868  Biso   1.000  C
  C108     1.0000 0.61928  0.51020  0.83287  Biso   1.000  C
  C109     1.0000 0.60185  0.50930  0.88244  Biso   1.000  C
  H73      1.0000 0.57860  0.49210  0.86960  Biso   1.000  H
  C110     1.0000 0.61903  0.53404  0.95094  Biso   1.000  C
  C111     1.0000 0.59974  0.53260  0.00356  Biso   1.000  C
  C112     1.0000 0.65339  0.56000  0.96963  Biso   1.000  C
  H74      1.0000 0.66500  0.57610  0.01570  Biso   1.000  H
  C113     1.0000 0.67072  0.56230  0.92045  Biso   1.000  C
  H75      1.0000 0.69380  0.58110  0.93310  Biso   1.000  H
  C114     1.0000 0.65358  0.53650  0.85192  Biso   1.000  C
  H76      1.0000 0.66530  0.53700  0.81890  Biso   1.000  H
  C115     1.0000 0.53252  0.60980  0.63552  Biso   1.000  C
  H77      1.0000 0.52680  0.57500  0.66930  Biso   1.000  H
  C116     1.0000 0.53450  0.72260  0.56491  Biso   1.000  C
  H78      1.0000 0.53050  0.77840  0.54040  Biso   1.000  H
  C117     1.0000 0.55671  0.65600  0.56130  Biso   1.000  C
  H79      1.0000 0.57110  0.65800  0.53330  Biso   1.000  H
  C118     1.0000 0.49106  0.73790  0.63023  Biso   1.000  C
  C119     1.0000 0.46774  0.68650  0.65185  Biso   1.000  C
  H80      1.0000 0.47050  0.62240  0.65740  Biso   1.000  H
  C120     1.0000 0.44000  0.73080  0.66542  Biso   1.000  C
  H81      1.0000 0.42430  0.69590  0.68020  Biso   1.000  H
  C121     1.0000 0.43549  0.82600  0.65731  Biso   1.000  C
  C122     1.0000 0.45974  0.87660  0.63581  Biso   1.000  C
  H82      1.0000 0.45710  0.94070  0.63010  Biso   1.000  H
  C123     1.0000 0.48753  0.83330  0.62292  Biso   1.000  C
  H83      1.0000 0.50370  0.86800  0.60940  Biso   1.000  H
  C124     1.0000 0.40264  0.87776  0.66011  Biso   1.000  C
  C125     1.0000 0.42523  0.27610  0.83253  Biso   1.000  C
  H84      1.0000 0.41730  0.29690  0.78660  Biso   1.000  H
  C126     1.0000 0.44165  0.18370  0.92207  Biso   1.000  C
  H85      1.0000 0.44720  0.13070  0.94970  Biso   1.000  H
  C127     1.0000 0.44218  0.27310  0.94384  Biso   1.000  C
  H86      1.0000 0.44860  0.29200  0.99020  Biso   1.000  H
  C128     1.0000 0.42489  0.11110  0.80234  Biso   1.000  C
  C129     1.0000 0.39318  0.10480  0.75146  Biso   1.000  C
  H87      1.0000 0.37630  0.14980  0.74840  Biso   1.000  H
  C130     1.0000 0.38654  0.03100  0.70473  Biso   1.000  C
  H88      1.0000 0.36490  0.02610  0.67100  Biso   1.000  H
  C131     1.0000 0.41179  0.96406  0.70762  Biso   1.000  C
  C132     1.0000 0.44309  0.97190  0.75920  Biso   1.000  C
  H89      1.0000 0.46020  0.92750  0.76220  Biso   1.000  H
  C133     1.0000 0.44985  0.04500  0.80722  Biso   1.000  C
  H90      1.0000 0.47110  0.04880  0.84210  Biso   1.000  H
  C134     1.0000 0.28317  0.70600  0.78738  Biso   1.000  C
  H91      1.0000 0.27200  0.75890  0.76450  Biso   1.000  H
  C135     1.0000 0.29451  0.57950  0.84707  Biso   1.000  C
  H92      1.0000 0.29220  0.52830  0.87360  Biso   1.000  H
  C136     1.0000 0.32245  0.59860  0.82721  Biso   1.000  C
  H93      1.0000 0.34280  0.56400  0.83720  Biso   1.000  H
  C137     1.0000 0.33693  0.72718  0.75605  Biso   1.000  C
  C138     1.0000 0.32243  0.76850  0.69184  Biso   1.000  C
  H94      1.0000 0.29870  0.76490  0.66970  Biso   1.000  H
  C139     1.0000 0.34350  0.81520  0.66066  Biso   1.000  C
  H95      1.0000 0.33360  0.84410  0.61780  Biso   1.000  H
  C140     1.0000 0.37911  0.81980  0.69187  Biso   1.000  C
  C141     1.0000 0.39282  0.77820  0.75705  Biso   1.000  C
  H96      1.0000 0.41660  0.78130  0.77940  Biso   1.000  H
  C142     1.0000 0.37200  0.73260  0.78914  Biso   1.000  C
  H97      1.0000 0.38160  0.70570  0.83280  Biso   1.000  H
  C143     1.0000 0.32381  0.87600  0.31818  Biso   1.000  C
  H98      1.0000 0.32470  0.81260  0.32780  Biso   1.000  H
  C144     1.0000 0.31296  0.00700  0.26465  Biso   1.000  C
  H99      1.0000 0.30480  0.05090  0.22950  Biso   1.000  H
  C145     1.0000 0.33069  0.02640  0.33168  Biso   1.000  C
  H100     1.0000 0.33700  0.08500  0.35100  Biso   1.000  H
  C146     1.0000 0.35431  0.92800  0.43916  Biso   1.000  C
  C147     1.0000 0.35581  0.83930  0.46658  Biso   1.000  C
  H101     1.0000 0.34680  0.78890  0.43770  Biso   1.000  H
  C148     1.0000 0.37078  0.82680  0.53713  Biso   1.000  C
  H102     1.0000 0.37180  0.76700  0.55530  Biso   1.000  H
  C149     1.0000 0.38435  0.89990  0.58237  Biso   1.000  C
  C150     1.0000 0.38305  0.98690  0.55300  Biso   1.000  C
  H103     1.0000 0.39220  0.03750  0.58160  Biso   1.000  H
  C151     1.0000 0.36833  0.00090  0.48151  Biso   1.000  C
  H104     1.0000 0.36810  0.06010  0.46270  Biso   1.000  H
  C152     1.0000 0.22628  0.53940  0.93741  Biso   1.000  C
  C153     1.0000 0.23476  0.51540  0.01303  Biso   1.000  C
  C154     1.0000 0.24818  0.58510  0.06257  Biso   1.000  C
  H105     1.0000 0.25030  0.64540  0.04770  Biso   1.000  H
  C155     1.0000 0.25834  0.56580  0.13337  Biso   1.000  C
  C156     1.0000 0.27325  0.64080  0.18510  Biso   1.000  C
  C157     1.0000 0.25358  0.47670  0.15376  Biso   1.000  C
  H106     1.0000 0.25920  0.46380  0.20120  Biso   1.000  H
  C158     1.0000 0.24106  0.40740  0.10770  Biso   1.000  C
  H107     1.0000 0.23850  0.34790  0.12340  Biso   1.000  H
  C159     1.0000 0.23184  0.42610  0.03530  Biso   1.000  C
  H108     1.0000 0.22390  0.37850  0.00310  Biso   1.000  H
  Co7      1.0000 0.08352  0.96531  0.62090  Biso   1.000  Co
  Co8      1.0000 0.72115  0.15438  0.82855  Biso   1.000  Co
  O25      1.0000 0.11745  0.98350  0.71551  Biso   1.000  O
  O26      1.0000 0.06909  0.96354  0.74114  Biso   1.000  O
  O27      1.0000 0.11787  0.03207  0.06824  Biso   1.000  O
  O28      1.0000 0.06775  0.03168  0.98492  Biso   1.000  O
  O29      1.0000 0.71979  0.12450  0.92160  Biso   1.000  O
  O30      1.0000 0.72768  0.98060  0.89463  Biso   1.000  O
  O31      1.0000 0.78564  0.21193  0.16300  Biso   1.000  O
  O32      1.0000 0.77415  0.13070  0.24629  Biso   1.000  O
  N25      1.0000 0.05525  0.08368  0.60509  Biso   1.000  N
  N26      1.0000 0.01856  0.19210  0.61229  Biso   1.000  N
  N27      1.0000 0.93174  0.83133  0.88732  Biso   1.000  N
  N28      1.0000 0.93125  0.68807  0.85039  Biso   1.000  N
  N29      1.0000 0.76956  0.14757  0.82212  Biso   1.000  N
  N30      1.0000 0.81500  0.17974  0.78914  Biso   1.000  N
  N31      1.0000 0.80879  0.41260  0.25616  Biso   1.000  N
  N32      1.0000 0.83759  0.44224  0.36571  Biso   1.000  N
  C160     1.0000 0.10009  0.98370  0.75868  Biso   1.000  C
  C161     1.0000 0.11928  0.01020  0.83287  Biso   1.000  C
  C162     1.0000 0.10185  0.00930  0.88244  Biso   1.000  C
  H109     1.0000 0.07860  0.99210  0.86960  Biso   1.000  H
  C163     1.0000 0.11903  0.03404  0.95094  Biso   1.000  C
  C164     1.0000 0.09974  0.03260  0.00356  Biso   1.000  C
  C165     1.0000 0.15339  0.06000  0.96963  Biso   1.000  C
  H110     1.0000 0.16500  0.07610  0.01570  Biso   1.000  H
  C166     1.0000 0.17072  0.06230  0.92045  Biso   1.000  C
  H111     1.0000 0.19380  0.08110  0.93310  Biso   1.000  H
  C167     1.0000 0.15358  0.03650  0.85192  Biso   1.000  C
  H112     1.0000 0.16530  0.03700  0.81890  Biso   1.000  H
  C168     1.0000 0.03252  0.10980  0.63552  Biso   1.000  C
  H113     1.0000 0.02680  0.07500  0.66930  Biso   1.000  H
  C169     1.0000 0.03450  0.22260  0.56491  Biso   1.000  C
  H114     1.0000 0.03050  0.27840  0.54040  Biso   1.000  H
  C170     1.0000 0.05671  0.15600  0.56130  Biso   1.000  C
  H115     1.0000 0.07110  0.15800  0.53330  Biso   1.000  H
  C171     1.0000 0.99106  0.23790  0.63023  Biso   1.000  C
  C172     1.0000 0.96774  0.18650  0.65185  Biso   1.000  C
  H116     1.0000 0.97050  0.12240  0.65740  Biso   1.000  H
  C173     1.0000 0.94000  0.23080  0.66542  Biso   1.000  C
  H117     1.0000 0.92430  0.19590  0.68020  Biso   1.000  H
  C174     1.0000 0.93549  0.32600  0.65731  Biso   1.000  C
  C175     1.0000 0.95974  0.37660  0.63581  Biso   1.000  C
  H118     1.0000 0.95710  0.44070  0.63010  Biso   1.000  H
  C176     1.0000 0.98753  0.33330  0.62292  Biso   1.000  C
  H119     1.0000 0.00370  0.36800  0.60940  Biso   1.000  H
  C177     1.0000 0.90264  0.37776  0.66011  Biso   1.000  C
  C178     1.0000 0.92523  0.77610  0.83253  Biso   1.000  C
  H120     1.0000 0.91730  0.79690  0.78660  Biso   1.000  H
  C179     1.0000 0.94165  0.68370  0.92207  Biso   1.000  C
  H121     1.0000 0.94720  0.63070  0.94970  Biso   1.000  H
  C180     1.0000 0.94218  0.77310  0.94384  Biso   1.000  C
  H122     1.0000 0.94860  0.79200  0.99020  Biso   1.000  H
  C181     1.0000 0.92489  0.61110  0.80234  Biso   1.000  C
  C182     1.0000 0.89318  0.60480  0.75146  Biso   1.000  C
  H123     1.0000 0.87630  0.64980  0.74840  Biso   1.000  H
  C183     1.0000 0.88654  0.53100  0.70473  Biso   1.000  C
  H124     1.0000 0.86490  0.52610  0.67100  Biso   1.000  H
  C184     1.0000 0.91179  0.46406  0.70762  Biso   1.000  C
  C185     1.0000 0.94309  0.47190  0.75920  Biso   1.000  C
  H125     1.0000 0.96020  0.42750  0.76220  Biso   1.000  H
  C186     1.0000 0.94985  0.54500  0.80722  Biso   1.000  C
  H126     1.0000 0.97110  0.54880  0.84210  Biso   1.000  H
  C187     1.0000 0.78317  0.20600  0.78738  Biso   1.000  C
  H127     1.0000 0.77200  0.25890  0.76450  Biso   1.000  H
  C188     1.0000 0.79451  0.07950  0.84707  Biso   1.000  C
  H128     1.0000 0.79220  0.02830  0.87360  Biso   1.000  H
  C189     1.0000 0.82245  0.09860  0.82721  Biso   1.000  C
  H129     1.0000 0.84280  0.06400  0.83720  Biso   1.000  H
  C190     1.0000 0.83693  0.22718  0.75605  Biso   1.000  C
  C191     1.0000 0.82243  0.26850  0.69184  Biso   1.000  C
  H130     1.0000 0.79870  0.26490  0.66970  Biso   1.000  H
  C192     1.0000 0.84350  0.31520  0.66066  Biso   1.000  C
  H131     1.0000 0.83360  0.34410  0.61780  Biso   1.000  H
  C193     1.0000 0.87911  0.31980  0.69187  Biso   1.000  C
  C194     1.0000 0.89282  0.27820  0.75705  Biso   1.000  C
  H132     1.0000 0.91660  0.28130  0.77940  Biso   1.000  H
  C195     1.0000 0.87200  0.23260  0.78914  Biso   1.000  C
  H133     1.0000 0.88160  0.20570  0.83280  Biso   1.000  H
  C196     1.0000 0.82381  0.37600  0.31818  Biso   1.000  C
  H134     1.0000 0.82470  0.31260  0.32780  Biso   1.000  H
  C197     1.0000 0.81296  0.50700  0.26465  Biso   1.000  C
  H135     1.0000 0.80480  0.55090  0.22950  Biso   1.000  H
  C198     1.0000 0.83069  0.52640  0.33168  Biso   1.000  C
  H136     1.0000 0.83700  0.58500  0.35100  Biso   1.000  H
  C199     1.0000 0.85431  0.42800  0.43916  Biso   1.000  C
  C200     1.0000 0.85581  0.33930  0.46658  Biso   1.000  C
  H137     1.0000 0.84680  0.28890  0.43770  Biso   1.000  H
  C201     1.0000 0.87078  0.32680  0.53713  Biso   1.000  C
  H138     1.0000 0.87180  0.26700  0.55530  Biso   1.000  H
  C202     1.0000 0.88435  0.39990  0.58237  Biso   1.000  C
  C203     1.0000 0.88305  0.48690  0.55300  Biso   1.000  C
  H139     1.0000 0.89220  0.53750  0.58160  Biso   1.000  H
  C204     1.0000 0.86833  0.50090  0.48151  Biso   1.000  C
  H140     1.0000 0.86810  0.56010  0.46270  Biso   1.000  H
  C205     1.0000 0.72628  0.03940  0.93741  Biso   1.000  C
  C206     1.0000 0.73476  0.01540  0.01303  Biso   1.000  C
  C207     1.0000 0.74818  0.08510  0.06257  Biso   1.000  C
  H141     1.0000 0.75030  0.14540  0.04770  Biso   1.000  H
  C208     1.0000 0.75834  0.06580  0.13337  Biso   1.000  C
  C209     1.0000 0.77325  0.14080  0.18510  Biso   1.000  C
  C210     1.0000 0.75358  0.97670  0.15376  Biso   1.000  C
  H142     1.0000 0.75920  0.96380  0.20120  Biso   1.000  H
  C211     1.0000 0.74106  0.90740  0.10770  Biso   1.000  C
  H143     1.0000 0.73850  0.84790  0.12340  Biso   1.000  H
  C212     1.0000 0.73184  0.92610  0.03530  Biso   1.000  C
  H144     1.0000 0.72390  0.87850  0.00310  Biso   1.000  H
  Co9      1.0000 0.58352  0.53469  0.12090  Biso   1.000  Co
  Co10     1.0000 0.22115  0.34562  0.32855  Biso   1.000  Co
  O33      1.0000 0.61745  0.51650  0.21551  Biso   1.000  O
  O34      1.0000 0.56909  0.53646  0.24114  Biso   1.000  O
  O35      1.0000 0.61787  0.46793  0.56824  Biso   1.000  O
  O36      1.0000 0.56775  0.46832  0.48492  Biso   1.000  O
  O37      1.0000 0.21979  0.37550  0.42160  Biso   1.000  O
  O38      1.0000 0.22768  0.51940  0.39463  Biso   1.000  O
  O39      1.0000 0.28564  0.28807  0.66300  Biso   1.000  O
  O40      1.0000 0.27415  0.36930  0.74629  Biso   1.000  O
  N33      1.0000 0.55525  0.41632  0.10509  Biso   1.000  N
  N34      1.0000 0.51856  0.30790  0.11229  Biso   1.000  N
  N35      1.0000 0.43174  0.66867  0.38732  Biso   1.000  N
  N36      1.0000 0.43125  0.81193  0.35039  Biso   1.000  N
  N37      1.0000 0.26956  0.35243  0.32212  Biso   1.000  N
  N38      1.0000 0.31500  0.32026  0.28914  Biso   1.000  N
  N39      1.0000 0.30879  0.08740  0.75616  Biso   1.000  N
  N40      1.0000 0.33759  0.05776  0.86571  Biso   1.000  N
  C213     1.0000 0.60009  0.51630  0.25868  Biso   1.000  C
  C214     1.0000 0.61928  0.48980  0.33287  Biso   1.000  C
  C215     1.0000 0.60185  0.49070  0.38244  Biso   1.000  C
  H145     1.0000 0.57860  0.50790  0.36960  Biso   1.000  H
  C216     1.0000 0.61903  0.46596  0.45094  Biso   1.000  C
  C217     1.0000 0.59974  0.46740  0.50356  Biso   1.000  C
  C218     1.0000 0.65339  0.44000  0.46963  Biso   1.000  C
  H146     1.0000 0.66500  0.42390  0.51570  Biso   1.000  H
  C219     1.0000 0.67072  0.43770  0.42045  Biso   1.000  C
  H147     1.0000 0.69380  0.41890  0.43310  Biso   1.000  H
  C220     1.0000 0.65358  0.46350  0.35192  Biso   1.000  C
  H148     1.0000 0.66530  0.46300  0.31890  Biso   1.000  H
  C221     1.0000 0.53252  0.39020  0.13552  Biso   1.000  C
  H149     1.0000 0.52680  0.42500  0.16930  Biso   1.000  H
  C222     1.0000 0.53450  0.27740  0.06491  Biso   1.000  C
  H150     1.0000 0.53050  0.22160  0.04040  Biso   1.000  H
  C223     1.0000 0.55671  0.34400  0.06130  Biso   1.000  C
  H151     1.0000 0.57110  0.34200  0.03330  Biso   1.000  H
  C224     1.0000 0.49106  0.26210  0.13023  Biso   1.000  C
  C225     1.0000 0.46774  0.31350  0.15185  Biso   1.000  C
  H152     1.0000 0.47050  0.37760  0.15740  Biso   1.000  H
  C226     1.0000 0.44000  0.26920  0.16542  Biso   1.000  C
  H153     1.0000 0.42430  0.30410  0.18020  Biso   1.000  H
  C227     1.0000 0.43549  0.17400  0.15731  Biso   1.000  C
  C228     1.0000 0.45974  0.12340  0.13581  Biso   1.000  C
  H154     1.0000 0.45710  0.05930  0.13010  Biso   1.000  H
  C229     1.0000 0.48753  0.16670  0.12292  Biso   1.000  C
  H155     1.0000 0.50370  0.13200  0.10940  Biso   1.000  H
  C230     1.0000 0.40264  0.12224  0.16011  Biso   1.000  C
  C231     1.0000 0.42523  0.72390  0.33253  Biso   1.000  C
  H156     1.0000 0.41730  0.70310  0.28660  Biso   1.000  H
  C232     1.0000 0.44165  0.81630  0.42207  Biso   1.000  C
  H157     1.0000 0.44720  0.86930  0.44970  Biso   1.000  H
  C233     1.0000 0.44218  0.72690  0.44384  Biso   1.000  C
  H158     1.0000 0.44860  0.70800  0.49020  Biso   1.000  H
  C234     1.0000 0.42489  0.88890  0.30234  Biso   1.000  C
  C235     1.0000 0.39318  0.89520  0.25146  Biso   1.000  C
  H159     1.0000 0.37630  0.85020  0.24840  Biso   1.000  H
  C236     1.0000 0.38654  0.96900  0.20473  Biso   1.000  C
  H160     1.0000 0.36490  0.97390  0.17100  Biso   1.000  H
  C237     1.0000 0.41179  0.03594  0.20762  Biso   1.000  C
  C238     1.0000 0.44309  0.02810  0.25920  Biso   1.000  C
  H161     1.0000 0.46020  0.07250  0.26220  Biso   1.000  H
  C239     1.0000 0.44985  0.95500  0.30722  Biso   1.000  C
  H162     1.0000 0.47110  0.95120  0.34210  Biso   1.000  H
  C240     1.0000 0.28317  0.29400  0.28738  Biso   1.000  C
  H163     1.0000 0.27200  0.24110  0.26450  Biso   1.000  H
  C241     1.0000 0.29451  0.42050  0.34707  Biso   1.000  C
  H164     1.0000 0.29220  0.47170  0.37360  Biso   1.000  H
  C242     1.0000 0.32245  0.40140  0.32721  Biso   1.000  C
  H165     1.0000 0.34280  0.43600  0.33720  Biso   1.000  H
  C243     1.0000 0.33693  0.27282  0.25605  Biso   1.000  C
  C244     1.0000 0.32243  0.23150  0.19184  Biso   1.000  C
  H166     1.0000 0.29870  0.23510  0.16970  Biso   1.000  H
  C245     1.0000 0.34350  0.18480  0.16066  Biso   1.000  C
  H167     1.0000 0.33360  0.15590  0.11780  Biso   1.000  H
  C246     1.0000 0.37911  0.18020  0.19187  Biso   1.000  C
  C247     1.0000 0.39282  0.22180  0.25705  Biso   1.000  C
  H168     1.0000 0.41660  0.21870  0.27940  Biso   1.000  H
  C248     1.0000 0.37200  0.26740  0.28914  Biso   1.000  C
  H169     1.0000 0.38160  0.29430  0.33280  Biso   1.000  H
  C249     1.0000 0.32381  0.12400  0.81818  Biso   1.000  C
  H170     1.0000 0.32470  0.18740  0.82780  Biso   1.000  H
  C250     1.0000 0.31296  0.99300  0.76465  Biso   1.000  C
  H171     1.0000 0.30480  0.94910  0.72950  Biso   1.000  H
  C251     1.0000 0.33069  0.97360  0.83168  Biso   1.000  C
  H172     1.0000 0.33700  0.91500  0.85100  Biso   1.000  H
  C252     1.0000 0.35431  0.07200  0.93916  Biso   1.000  C
  C253     1.0000 0.35581  0.16070  0.96658  Biso   1.000  C
  H173     1.0000 0.34680  0.21110  0.93770  Biso   1.000  H
  C254     1.0000 0.37078  0.17320  0.03713  Biso   1.000  C
  H174     1.0000 0.37180  0.23300  0.05530  Biso   1.000  H
  C255     1.0000 0.38435  0.10010  0.08237  Biso   1.000  C
  C256     1.0000 0.38305  0.01310  0.05300  Biso   1.000  C
  H175     1.0000 0.39220  0.96250  0.08160  Biso   1.000  H
  C257     1.0000 0.36833  0.99910  0.98151  Biso   1.000  C
  H176     1.0000 0.36810  0.93990  0.96270  Biso   1.000  H
  C258     1.0000 0.22628  0.46060  0.43741  Biso   1.000  C
  C259     1.0000 0.23476  0.48460  0.51303  Biso   1.000  C
  C260     1.0000 0.24818  0.41490  0.56257  Biso   1.000  C
  H177     1.0000 0.25030  0.35460  0.54770  Biso   1.000  H
  C261     1.0000 0.25834  0.43420  0.63337  Biso   1.000  C
  C262     1.0000 0.27325  0.35920  0.68510  Biso   1.000  C
  C263     1.0000 0.25358  0.52330  0.65376  Biso   1.000  C
  H178     1.0000 0.25920  0.53620  0.70120  Biso   1.000  H
  C264     1.0000 0.24106  0.59260  0.60770  Biso   1.000  C
  H179     1.0000 0.23850  0.65210  0.62340  Biso   1.000  H
  C265     1.0000 0.23184  0.57390  0.53530  Biso   1.000  C
  H180     1.0000 0.22390  0.62150  0.50310  Biso   1.000  H
  Co11     1.0000 0.08352  0.03469  0.12090  Biso   1.000  Co
  Co12     1.0000 0.72115  0.84562  0.32855  Biso   1.000  Co
  O41      1.0000 0.11745  0.01650  0.21551  Biso   1.000  O
  O42      1.0000 0.06909  0.03646  0.24114  Biso   1.000  O
  O43      1.0000 0.11787  0.96793  0.56824  Biso   1.000  O
  O44      1.0000 0.06775  0.96832  0.48492  Biso   1.000  O
  O45      1.0000 0.71979  0.87550  0.42160  Biso   1.000  O
  O46      1.0000 0.72768  0.01940  0.39463  Biso   1.000  O
  O47      1.0000 0.78564  0.78807  0.66300  Biso   1.000  O
  O48      1.0000 0.77415  0.86930  0.74629  Biso   1.000  O
  N41      1.0000 0.05525  0.91632  0.10509  Biso   1.000  N
  N42      1.0000 0.01856  0.80790  0.11229  Biso   1.000  N
  N43      1.0000 0.93174  0.16867  0.38732  Biso   1.000  N
  N44      1.0000 0.93125  0.31193  0.35039  Biso   1.000  N
  N45      1.0000 0.76956  0.85243  0.32212  Biso   1.000  N
  N46      1.0000 0.81500  0.82026  0.28914  Biso   1.000  N
  N47      1.0000 0.80879  0.58740  0.75616  Biso   1.000  N
  N48      1.0000 0.83759  0.55776  0.86571  Biso   1.000  N
  C266     1.0000 0.10009  0.01630  0.25868  Biso   1.000  C
  C267     1.0000 0.11928  0.98980  0.33287  Biso   1.000  C
  C268     1.0000 0.10185  0.99070  0.38244  Biso   1.000  C
  H181     1.0000 0.07860  0.00790  0.36960  Biso   1.000  H
  C269     1.0000 0.11903  0.96596  0.45094  Biso   1.000  C
  C270     1.0000 0.09974  0.96740  0.50356  Biso   1.000  C
  C271     1.0000 0.15339  0.94000  0.46963  Biso   1.000  C
  H182     1.0000 0.16500  0.92390  0.51570  Biso   1.000  H
  C272     1.0000 0.17072  0.93770  0.42045  Biso   1.000  C
  H183     1.0000 0.19380  0.91890  0.43310  Biso   1.000  H
  C273     1.0000 0.15358  0.96350  0.35192  Biso   1.000  C
  H184     1.0000 0.16530  0.96300  0.31890  Biso   1.000  H
  C274     1.0000 0.03252  0.89020  0.13552  Biso   1.000  C
  H185     1.0000 0.02680  0.92500  0.16930  Biso   1.000  H
  C275     1.0000 0.03450  0.77740  0.06491  Biso   1.000  C
  H186     1.0000 0.03050  0.72160  0.04040  Biso   1.000  H
  C276     1.0000 0.05671  0.84400  0.06130  Biso   1.000  C
  H187     1.0000 0.07110  0.84200  0.03330  Biso   1.000  H
  C277     1.0000 0.99106  0.76210  0.13023  Biso   1.000  C
  C278     1.0000 0.96774  0.81350  0.15185  Biso   1.000  C
  H188     1.0000 0.97050  0.87760  0.15740  Biso   1.000  H
  C279     1.0000 0.94000  0.76920  0.16542  Biso   1.000  C
  H189     1.0000 0.92430  0.80410  0.18020  Biso   1.000  H
  C280     1.0000 0.93549  0.67400  0.15731  Biso   1.000  C
  C281     1.0000 0.95974  0.62340  0.13581  Biso   1.000  C
  H190     1.0000 0.95710  0.55930  0.13010  Biso   1.000  H
  C282     1.0000 0.98753  0.66670  0.12292  Biso   1.000  C
  H191     1.0000 0.00370  0.63200  0.10940  Biso   1.000  H
  C283     1.0000 0.90264  0.62224  0.16011  Biso   1.000  C
  C284     1.0000 0.92523  0.22390  0.33253  Biso   1.000  C
  H192     1.0000 0.91730  0.20310  0.28660  Biso   1.000  H
  C285     1.0000 0.94165  0.31630  0.42207  Biso   1.000  C
  H193     1.0000 0.94720  0.36930  0.44970  Biso   1.000  H
  C286     1.0000 0.94218  0.22690  0.44384  Biso   1.000  C
  H194     1.0000 0.94860  0.20800  0.49020  Biso   1.000  H
  C287     1.0000 0.92489  0.38890  0.30234  Biso   1.000  C
  C288     1.0000 0.89318  0.39520  0.25146  Biso   1.000  C
  H195     1.0000 0.87630  0.35020  0.24840  Biso   1.000  H
  C289     1.0000 0.88654  0.46900  0.20473  Biso   1.000  C
  H196     1.0000 0.86490  0.47390  0.17100  Biso   1.000  H
  C290     1.0000 0.91179  0.53594  0.20762  Biso   1.000  C
  C291     1.0000 0.94309  0.52810  0.25920  Biso   1.000  C
  H197     1.0000 0.96020  0.57250  0.26220  Biso   1.000  H
  C292     1.0000 0.94985  0.45500  0.30722  Biso   1.000  C
  H198     1.0000 0.97110  0.45120  0.34210  Biso   1.000  H
  C293     1.0000 0.78317  0.79400  0.28738  Biso   1.000  C
  H199     1.0000 0.77200  0.74110  0.26450  Biso   1.000  H
  C294     1.0000 0.79451  0.92050  0.34707  Biso   1.000  C
  H200     1.0000 0.79220  0.97170  0.37360  Biso   1.000  H
  C295     1.0000 0.82245  0.90140  0.32721  Biso   1.000  C
  H201     1.0000 0.84280  0.93600  0.33720  Biso   1.000  H
  C296     1.0000 0.83693  0.77282  0.25605  Biso   1.000  C
  C297     1.0000 0.82243  0.73150  0.19184  Biso   1.000  C
  H202     1.0000 0.79870  0.73510  0.16970  Biso   1.000  H
  C298     1.0000 0.84350  0.68480  0.16066  Biso   1.000  C
  H203     1.0000 0.83360  0.65590  0.11780  Biso   1.000  H
  C299     1.0000 0.87911  0.68020  0.19187  Biso   1.000  C
  C300     1.0000 0.89282  0.72180  0.25705  Biso   1.000  C
  H204     1.0000 0.91660  0.71870  0.27940  Biso   1.000  H
  C301     1.0000 0.87200  0.76740  0.28914  Biso   1.000  C
  H205     1.0000 0.88160  0.79430  0.33280  Biso   1.000  H
  C302     1.0000 0.82381  0.62400  0.81818  Biso   1.000  C
  H206     1.0000 0.82470  0.68740  0.82780  Biso   1.000  H
  C303     1.0000 0.81296  0.49300  0.76465  Biso   1.000  C
  H207     1.0000 0.80480  0.44910  0.72950  Biso   1.000  H
  C304     1.0000 0.83069  0.47360  0.83168  Biso   1.000  C
  H208     1.0000 0.83700  0.41500  0.85100  Biso   1.000  H
  C305     1.0000 0.85431  0.57200  0.93916  Biso   1.000  C
  C306     1.0000 0.85581  0.66070  0.96658  Biso   1.000  C
  H209     1.0000 0.84680  0.71110  0.93770  Biso   1.000  H
  C307     1.0000 0.87078  0.67320  0.03713  Biso   1.000  C
  H210     1.0000 0.87180  0.73300  0.05530  Biso   1.000  H
  C308     1.0000 0.88435  0.60010  0.08237  Biso   1.000  C
  C309     1.0000 0.88305  0.51310  0.05300  Biso   1.000  C
  H211     1.0000 0.89220  0.46250  0.08160  Biso   1.000  H
  C310     1.0000 0.86833  0.49910  0.98151  Biso   1.000  C
  H212     1.0000 0.86810  0.43990  0.96270  Biso   1.000  H
  C311     1.0000 0.72628  0.96060  0.43741  Biso   1.000  C
  C312     1.0000 0.73476  0.98460  0.51303  Biso   1.000  C
  C313     1.0000 0.74818  0.91490  0.56257  Biso   1.000  C
  H213     1.0000 0.75030  0.85460  0.54770  Biso   1.000  H
  C314     1.0000 0.75834  0.93420  0.63337  Biso   1.000  C
  C315     1.0000 0.77325  0.85920  0.68510  Biso   1.000  C
  C316     1.0000 0.75358  0.02330  0.65376  Biso   1.000  C
  H214     1.0000 0.75920  0.03620  0.70120  Biso   1.000  H
  C317     1.0000 0.74106  0.09260  0.60770  Biso   1.000  C
  H215     1.0000 0.73850  0.15210  0.62340  Biso   1.000  H
  C318     1.0000 0.73184  0.07390  0.53530  Biso   1.000  C
  H216     1.0000 0.72390  0.12150  0.50310  Biso   1.000  H
  Co13     1.0000 0.41648  0.53469  0.37910  Biso   1.000  Co
  Co14     1.0000 0.77885  0.34562  0.17145  Biso   1.000  Co
  O49      1.0000 0.38255  0.51650  0.28449  Biso   1.000  O
  O50      1.0000 0.43091  0.53646  0.25886  Biso   1.000  O
  O51      1.0000 0.38213  0.46793  0.93176  Biso   1.000  O
  O52      1.0000 0.43225  0.46832  0.01508  Biso   1.000  O
  O53      1.0000 0.78021  0.37550  0.07840  Biso   1.000  O
  O54      1.0000 0.77232  0.51940  0.10537  Biso   1.000  O
  O55      1.0000 0.71436  0.28807  0.83700  Biso   1.000  O
  O56      1.0000 0.72585  0.36930  0.75371  Biso   1.000  O
  N49      1.0000 0.44475  0.41632  0.39491  Biso   1.000  N
  N50      1.0000 0.48144  0.30790  0.38771  Biso   1.000  N
  N51      1.0000 0.56826  0.66867  0.11268  Biso   1.000  N
  N52      1.0000 0.56875  0.81193  0.14961  Biso   1.000  N
  N53      1.0000 0.73044  0.35243  0.17788  Biso   1.000  N
  N54      1.0000 0.68500  0.32026  0.21086  Biso   1.000  N
  N55      1.0000 0.69121  0.08740  0.74384  Biso   1.000  N
  N56      1.0000 0.66241  0.05776  0.63429  Biso   1.000  N
  C319     1.0000 0.39991  0.51630  0.24132  Biso   1.000  C
  C320     1.0000 0.38072  0.48980  0.16713  Biso   1.000  C
  C321     1.0000 0.39815  0.49070  0.11756  Biso   1.000  C
  H217     1.0000 0.42140  0.50790  0.13040  Biso   1.000  H
  C322     1.0000 0.38097  0.46596  0.04906  Biso   1.000  C
  C323     1.0000 0.40026  0.46740  0.99644  Biso   1.000  C
  C324     1.0000 0.34661  0.44000  0.03037  Biso   1.000  C
  H218     1.0000 0.33500  0.42390  0.98430  Biso   1.000  H
  C325     1.0000 0.32928  0.43770  0.07955  Biso   1.000  C
  H219     1.0000 0.30620  0.41890  0.06690  Biso   1.000  H
  C326     1.0000 0.34642  0.46350  0.14808  Biso   1.000  C
  H220     1.0000 0.33470  0.46300  0.18110  Biso   1.000  H
  C327     1.0000 0.46748  0.39020  0.36448  Biso   1.000  C
  H221     1.0000 0.47320  0.42500  0.33070  Biso   1.000  H
  C328     1.0000 0.46550  0.27740  0.43509  Biso   1.000  C
  H222     1.0000 0.46950  0.22160  0.45960  Biso   1.000  H
  C329     1.0000 0.44329  0.34400  0.43870  Biso   1.000  C
  H223     1.0000 0.42890  0.34200  0.46670  Biso   1.000  H
  C330     1.0000 0.50894  0.26210  0.36977  Biso   1.000  C
  C331     1.0000 0.53226  0.31350  0.34815  Biso   1.000  C
  H224     1.0000 0.52950  0.37760  0.34260  Biso   1.000  H
  C332     1.0000 0.56000  0.26920  0.33458  Biso   1.000  C
  H225     1.0000 0.57570  0.30410  0.31980  Biso   1.000  H
  C333     1.0000 0.56451  0.17400  0.34269  Biso   1.000  C
  C334     1.0000 0.54026  0.12340  0.36419  Biso   1.000  C
  H226     1.0000 0.54290  0.05930  0.36990  Biso   1.000  H
  C335     1.0000 0.51247  0.16670  0.37708  Biso   1.000  C
  H227     1.0000 0.49630  0.13200  0.39060  Biso   1.000  H
  C336     1.0000 0.59736  0.12224  0.33989  Biso   1.000  C
  C337     1.0000 0.57477  0.72390  0.16747  Biso   1.000  C
  H228     1.0000 0.58270  0.70310  0.21340  Biso   1.000  H
  C338     1.0000 0.55835  0.81630  0.07793  Biso   1.000  C
  H229     1.0000 0.55280  0.86930  0.05030  Biso   1.000  H
  C339     1.0000 0.55782  0.72690  0.05616  Biso   1.000  C
  H230     1.0000 0.55140  0.70800  0.00980  Biso   1.000  H
  C340     1.0000 0.57511  0.88890  0.19766  Biso   1.000  C
  C341     1.0000 0.60682  0.89520  0.24854  Biso   1.000  C
  H231     1.0000 0.62370  0.85020  0.25160  Biso   1.000  H
  C342     1.0000 0.61346  0.96900  0.29527  Biso   1.000  C
  H232     1.0000 0.63510  0.97390  0.32900  Biso   1.000  H
  C343     1.0000 0.58821  0.03594  0.29238  Biso   1.000  C
  C344     1.0000 0.55691  0.02810  0.24080  Biso   1.000  C
  H233     1.0000 0.53980  0.07250  0.23780  Biso   1.000  H
  C345     1.0000 0.55015  0.95500  0.19278  Biso   1.000  C
  H234     1.0000 0.52890  0.95120  0.15790  Biso   1.000  H
  C346     1.0000 0.71683  0.29400  0.21262  Biso   1.000  C
  H235     1.0000 0.72800  0.24110  0.23550  Biso   1.000  H
  C347     1.0000 0.70549  0.42050  0.15293  Biso   1.000  C
  H236     1.0000 0.70780  0.47170  0.12640  Biso   1.000  H
  C348     1.0000 0.67755  0.40140  0.17279  Biso   1.000  C
  H237     1.0000 0.65720  0.43600  0.16280  Biso   1.000  H
  C349     1.0000 0.66307  0.27282  0.24395  Biso   1.000  C
  C350     1.0000 0.67757  0.23150  0.30816  Biso   1.000  C
  H238     1.0000 0.70130  0.23510  0.33030  Biso   1.000  H
  C351     1.0000 0.65650  0.18480  0.33934  Biso   1.000  C
  H239     1.0000 0.66640  0.15590  0.38220  Biso   1.000  H
  C352     1.0000 0.62089  0.18020  0.30813  Biso   1.000  C
  C353     1.0000 0.60718  0.22180  0.24295  Biso   1.000  C
  H240     1.0000 0.58340  0.21870  0.22060  Biso   1.000  H
  C354     1.0000 0.62800  0.26740  0.21086  Biso   1.000  C
  H241     1.0000 0.61840  0.29430  0.16720  Biso   1.000  H
  C355     1.0000 0.67619  0.12400  0.68182  Biso   1.000  C
  H242     1.0000 0.67530  0.18740  0.67220  Biso   1.000  H
  C356     1.0000 0.68704  0.99300  0.73535  Biso   1.000  C
  H243     1.0000 0.69520  0.94910  0.77050  Biso   1.000  H
  C357     1.0000 0.66931  0.97360  0.66832  Biso   1.000  C
  H244     1.0000 0.66300  0.91500  0.64900  Biso   1.000  H
  C358     1.0000 0.64569  0.07200  0.56084  Biso   1.000  C
  C359     1.0000 0.64419  0.16070  0.53342  Biso   1.000  C
  H245     1.0000 0.65320  0.21110  0.56230  Biso   1.000  H
  C360     1.0000 0.62922  0.17320  0.46287  Biso   1.000  C
  H246     1.0000 0.62820  0.23300  0.44470  Biso   1.000  H
  C361     1.0000 0.61565  0.10010  0.41763  Biso   1.000  C
  C362     1.0000 0.61695  0.01310  0.44700  Biso   1.000  C
  H247     1.0000 0.60780  0.96250  0.41840  Biso   1.000  H
  C363     1.0000 0.63167  0.99910  0.51849  Biso   1.000  C
  H248     1.0000 0.63190  0.93990  0.53730  Biso   1.000  H
  C364     1.0000 0.77372  0.46060  0.06259  Biso   1.000  C
  C365     1.0000 0.76524  0.48460  0.98697  Biso   1.000  C
  C366     1.0000 0.75182  0.41490  0.93743  Biso   1.000  C
  H249     1.0000 0.74970  0.35460  0.95230  Biso   1.000  H
  C367     1.0000 0.74166  0.43420  0.86663  Biso   1.000  C
  C368     1.0000 0.72675  0.35920  0.81490  Biso   1.000  C
  C369     1.0000 0.74642  0.52330  0.84624  Biso   1.000  C
  H250     1.0000 0.74080  0.53620  0.79880  Biso   1.000  H
  C370     1.0000 0.75894  0.59260  0.89230  Biso   1.000  C
  H251     1.0000 0.76150  0.65210  0.87660  Biso   1.000  H
  C371     1.0000 0.76816  0.57390  0.96470  Biso   1.000  C
  H252     1.0000 0.77610  0.62150  0.99690  Biso   1.000  H
  Co15     1.0000 0.91648  0.03469  0.37910  Biso   1.000  Co
  Co16     1.0000 0.27885  0.84562  0.17145  Biso   1.000  Co
  O57      1.0000 0.88255  0.01650  0.28449  Biso   1.000  O
  O58      1.0000 0.93091  0.03646  0.25886  Biso   1.000  O
  O59      1.0000 0.88213  0.96793  0.93176  Biso   1.000  O
  O60      1.0000 0.93225  0.96832  0.01508  Biso   1.000  O
  O61      1.0000 0.28021  0.87550  0.07840  Biso   1.000  O
  O62      1.0000 0.27232  0.01940  0.10537  Biso   1.000  O
  O63      1.0000 0.21436  0.78807  0.83700  Biso   1.000  O
  O64      1.0000 0.22585  0.86930  0.75371  Biso   1.000  O
  N57      1.0000 0.94475  0.91632  0.39491  Biso   1.000  N
  N58      1.0000 0.98144  0.80790  0.38771  Biso   1.000  N
  N59      1.0000 0.06826  0.16867  0.11268  Biso   1.000  N
  N60      1.0000 0.06875  0.31193  0.14961  Biso   1.000  N
  N61      1.0000 0.23044  0.85243  0.17788  Biso   1.000  N
  N62      1.0000 0.18500  0.82026  0.21086  Biso   1.000  N
  N63      1.0000 0.19121  0.58740  0.74384  Biso   1.000  N
  N64      1.0000 0.16241  0.55776  0.63429  Biso   1.000  N
  C372     1.0000 0.89991  0.01630  0.24132  Biso   1.000  C
  C373     1.0000 0.88072  0.98980  0.16713  Biso   1.000  C
  C374     1.0000 0.89815  0.99070  0.11756  Biso   1.000  C
  H253     1.0000 0.92140  0.00790  0.13040  Biso   1.000  H
  C375     1.0000 0.88097  0.96596  0.04906  Biso   1.000  C
  C376     1.0000 0.90026  0.96740  0.99644  Biso   1.000  C
  C377     1.0000 0.84661  0.94000  0.03037  Biso   1.000  C
  H254     1.0000 0.83500  0.92390  0.98430  Biso   1.000  H
  C378     1.0000 0.82928  0.93770  0.07955  Biso   1.000  C
  H255     1.0000 0.80620  0.91890  0.06690  Biso   1.000  H
  C379     1.0000 0.84642  0.96350  0.14808  Biso   1.000  C
  H256     1.0000 0.83470  0.96300  0.18110  Biso   1.000  H
  C380     1.0000 0.96748  0.89020  0.36448  Biso   1.000  C
  H257     1.0000 0.97320  0.92500  0.33070  Biso   1.000  H
  C381     1.0000 0.96550  0.77740  0.43509  Biso   1.000  C
  H258     1.0000 0.96950  0.72160  0.45960  Biso   1.000  H
  C382     1.0000 0.94329  0.84400  0.43870  Biso   1.000  C
  H259     1.0000 0.92890  0.84200  0.46670  Biso   1.000  H
  C383     1.0000 0.00894  0.76210  0.36977  Biso   1.000  C
  C384     1.0000 0.03226  0.81350  0.34815  Biso   1.000  C
  H260     1.0000 0.02950  0.87760  0.34260  Biso   1.000  H
  C385     1.0000 0.06000  0.76920  0.33458  Biso   1.000  C
  H261     1.0000 0.07570  0.80410  0.31980  Biso   1.000  H
  C386     1.0000 0.06451  0.67400  0.34269  Biso   1.000  C
  C387     1.0000 0.04026  0.62340  0.36419  Biso   1.000  C
  H262     1.0000 0.04290  0.55930  0.36990  Biso   1.000  H
  C388     1.0000 0.01247  0.66670  0.37708  Biso   1.000  C
  H263     1.0000 0.99630  0.63200  0.39060  Biso   1.000  H
  C389     1.0000 0.09736  0.62224  0.33989  Biso   1.000  C
  C390     1.0000 0.07477  0.22390  0.16747  Biso   1.000  C
  H264     1.0000 0.08270  0.20310  0.21340  Biso   1.000  H
  C391     1.0000 0.05835  0.31630  0.07793  Biso   1.000  C
  H265     1.0000 0.05280  0.36930  0.05030  Biso   1.000  H
  C392     1.0000 0.05782  0.22690  0.05616  Biso   1.000  C
  H266     1.0000 0.05140  0.20800  0.00980  Biso   1.000  H
  C393     1.0000 0.07511  0.38890  0.19766  Biso   1.000  C
  C394     1.0000 0.10682  0.39520  0.24854  Biso   1.000  C
  H267     1.0000 0.12370  0.35020  0.25160  Biso   1.000  H
  C395     1.0000 0.11346  0.46900  0.29527  Biso   1.000  C
  H268     1.0000 0.13510  0.47390  0.32900  Biso   1.000  H
  C396     1.0000 0.08821  0.53594  0.29238  Biso   1.000  C
  C397     1.0000 0.05691  0.52810  0.24080  Biso   1.000  C
  H269     1.0000 0.03980  0.57250  0.23780  Biso   1.000  H
  C398     1.0000 0.05015  0.45500  0.19278  Biso   1.000  C
  H270     1.0000 0.02890  0.45120  0.15790  Biso   1.000  H
  C399     1.0000 0.21683  0.79400  0.21262  Biso   1.000  C
  H271     1.0000 0.22800  0.74110  0.23550  Biso   1.000  H
  C400     1.0000 0.20549  0.92050  0.15293  Biso   1.000  C
  H272     1.0000 0.20780  0.97170  0.12640  Biso   1.000  H
  C401     1.0000 0.17755  0.90140  0.17279  Biso   1.000  C
  H273     1.0000 0.15720  0.93600  0.16280  Biso   1.000  H
  C402     1.0000 0.16307  0.77282  0.24395  Biso   1.000  C
  C403     1.0000 0.17757  0.73150  0.30816  Biso   1.000  C
  H274     1.0000 0.20130  0.73510  0.33030  Biso   1.000  H
  C404     1.0000 0.15650  0.68480  0.33934  Biso   1.000  C
  H275     1.0000 0.16640  0.65590  0.38220  Biso   1.000  H
  C405     1.0000 0.12089  0.68020  0.30813  Biso   1.000  C
  C406     1.0000 0.10718  0.72180  0.24295  Biso   1.000  C
  H276     1.0000 0.08340  0.71870  0.22060  Biso   1.000  H
  C407     1.0000 0.12800  0.76740  0.21086  Biso   1.000  C
  H277     1.0000 0.11840  0.79430  0.16720  Biso   1.000  H
  C408     1.0000 0.17619  0.62400  0.68182  Biso   1.000  C
  H278     1.0000 0.17530  0.68740  0.67220  Biso   1.000  H
  C409     1.0000 0.18704  0.49300  0.73535  Biso   1.000  C
  H279     1.0000 0.19520  0.44910  0.77050  Biso   1.000  H
  C410     1.0000 0.16931  0.47360  0.66832  Biso   1.000  C
  H280     1.0000 0.16300  0.41500  0.64900  Biso   1.000  H
  C411     1.0000 0.14569  0.57200  0.56084  Biso   1.000  C
  C412     1.0000 0.14419  0.66070  0.53342  Biso   1.000  C
  H281     1.0000 0.15320  0.71110  0.56230  Biso   1.000  H
  C413     1.0000 0.12922  0.67320  0.46287  Biso   1.000  C
  H282     1.0000 0.12820  0.73300  0.44470  Biso   1.000  H
  C414     1.0000 0.11565  0.60010  0.41763  Biso   1.000  C
  C415     1.0000 0.11695  0.51310  0.44700  Biso   1.000  C
  H283     1.0000 0.10780  0.46250  0.41840  Biso   1.000  H
  C416     1.0000 0.13167  0.49910  0.51849  Biso   1.000  C
  H284     1.0000 0.13190  0.43990  0.53730  Biso   1.000  H
  C417     1.0000 0.27372  0.96060  0.06259  Biso   1.000  C
  C418     1.0000 0.26524  0.98460  0.98697  Biso   1.000  C
  C419     1.0000 0.25182  0.91490  0.93743  Biso   1.000  C
  H285     1.0000 0.24970  0.85460  0.95230  Biso   1.000  H
  C420     1.0000 0.24166  0.93420  0.86663  Biso   1.000  C
  C421     1.0000 0.22675  0.85920  0.81490  Biso   1.000  C
  C422     1.0000 0.24642  0.02330  0.84624  Biso   1.000  C
  H286     1.0000 0.24080  0.03620  0.79880  Biso   1.000  H
  C423     1.0000 0.25894  0.09260  0.89230  Biso   1.000  C
  H287     1.0000 0.26150  0.15210  0.87660  Biso   1.000  H
  C424     1.0000 0.26816  0.07390  0.96470  Biso   1.000  C
  H288     1.0000 0.27610  0.12150  0.99690  Biso   1.000  H
