data_image0
_cell_length_a       12.0935
_cell_length_b       34.0051
_cell_length_c       31.9458
_cell_angle_alpha    90
_cell_angle_beta     93.564
_cell_angle_gamma    90

_symmetry_space_group_name_H-M    "P 1"
_symmetry_int_tables_number       1

loop_
  _symmetry_equiv_pos_as_xyz
  'x, y, z'

loop_
  _atom_site_label
  _atom_site_occupancy
  _atom_site_fract_x
  _atom_site_fract_y
  _atom_site_fract_z
  _atom_site_thermal_displace_type
  _atom_site_B_iso_or_equiv
  _atom_site_type_symbol
  Zn1      1.0000 0.82687  0.66579  0.54966  Biso   1.000  Zn
  Zn2      1.0000 0.42316  0.42325  0.65511  Biso   1.000  Zn
  O1       1.0000 0.89450  0.71426  0.57213  Biso   1.000  O
  O2       1.0000 0.04870  0.67889  0.58360  Biso   1.000  O
  O3       1.0000 0.02540  0.88041  0.64607  Biso   1.000  O
  O4       1.0000 0.86900  0.84973  0.62392  Biso   1.000  O
  O5       1.0000 0.80180  0.63346  0.59811  Biso   1.000  O
  O6       1.0000 0.73450  0.58760  0.55381  Biso   1.000  O
  O7       1.0000 0.55830  0.46919  0.61153  Biso   1.000  O
  O8       1.0000 0.49500  0.47292  0.67541  Biso   1.000  O
  N1       1.0000 0.89570  0.64844  0.49763  Biso   1.000  N
  N2       1.0000 0.04860  0.61685  0.38907  Biso   1.000  N
  N3       1.0000 0.16940  0.60725  0.31530  Biso   1.000  N
  N4       1.0000 0.34010  0.58867  0.20714  Biso   1.000  N
  N5       1.0000 0.67510  0.68773  0.53021  Biso   1.000  N
  N6       1.0000 0.35940  0.73475  0.50356  Biso   1.000  N
  N7       1.0000 0.30500  0.44073  0.61249  Biso   1.000  N
  N8       1.0000 0.04010  0.47020  0.52679  Biso   1.000  N
  C1       1.0000 0.84180  0.65057  0.45946  Biso   1.000  C
  H1       1.0000 0.76730  0.65960  0.45780  Biso   1.000  H
  C2       1.0000 0.88860  0.64034  0.42279  Biso   1.000  C
  H2       1.0000 0.84630  0.64220  0.39680  Biso   1.000  H
  C3       1.0000 0.99740  0.62730  0.42385  Biso   1.000  C
  C4       1.0000 0.05470  0.62480  0.46395  Biso   1.000  C
  H3       1.0000 0.12930  0.61590  0.46660  Biso   1.000  H
  C5       1.0000 0.00120  0.63533  0.49878  Biso   1.000  C
  H4       1.0000 0.04070  0.63330  0.52530  Biso   1.000  H
  C6       1.0000 0.16450  0.60345  0.39140  Biso   1.000  C
  H5       1.0000 0.21420  0.62640  0.39610  Biso   1.000  H
  H6       1.0000 0.17710  0.58540  0.41560  Biso   1.000  H
  C7       1.0000 0.19230  0.58308  0.35284  Biso   1.000  C
  H7       1.0000 0.27180  0.57600  0.35500  Biso   1.000  H
  H8       1.0000 0.14890  0.55840  0.35000  Biso   1.000  H
  C8       1.0000 0.08200  0.63560  0.31709  Biso   1.000  C
  H9       1.0000 0.04610  0.63930  0.28870  Biso   1.000  H
  H10      1.0000 0.11360  0.66120  0.32660  Biso   1.000  H
  C9       1.0000 0.99670  0.62263  0.34651  Biso   1.000  C
  H11      1.0000 0.93780  0.64280  0.34730  Biso   1.000  H
  H12      1.0000 0.96230  0.59770  0.33630  Biso   1.000  H
  C10      1.0000 0.22550  0.60159  0.28020  Biso   1.000  C
  C11      1.0000 0.21460  0.62681  0.24595  Biso   1.000  C
  H13      1.0000 0.16660  0.64890  0.24650  Biso   1.000  H
  C12      1.0000 0.27300  0.61991  0.21144  Biso   1.000  C
  H14      1.0000 0.26580  0.63830  0.18900  Biso   1.000  H
  C13      1.0000 0.34860  0.56456  0.24052  Biso   1.000  C
  H15      1.0000 0.39530  0.54220  0.23900  Biso   1.000  H
  C14      1.0000 0.29550  0.56983  0.27610  Biso   1.000  C
  H16      1.0000 0.30640  0.55160  0.29850  Biso   1.000  H
  C15      1.0000 0.58900  0.66504  0.51608  Biso   1.000  C
  H17      1.0000 0.60130  0.63760  0.51290  Biso   1.000  H
  C16      1.0000 0.48620  0.67933  0.50622  Biso   1.000  C
  H18      1.0000 0.42920  0.66200  0.49580  Biso   1.000  H
  C17      1.0000 0.46280  0.71966  0.51123  Biso   1.000  C
  C18      1.0000 0.55310  0.74265  0.52488  Biso   1.000  C
  H19      1.0000 0.54380  0.77020  0.52820  Biso   1.000  H
  C19      1.0000 0.65360  0.72640  0.53343  Biso   1.000  C
  H20      1.0000 0.71310  0.74330  0.54230  Biso   1.000  H
  C20      1.0000 0.33690  0.77565  0.51080  Biso   1.000  C
  H21      1.0000 0.37370  0.78270  0.53830  Biso   1.000  H
  H22      1.0000 0.37410  0.79090  0.48930  Biso   1.000  H
  C21      1.0000 0.26540  0.71180  0.48940  Biso   1.000  C
  H23      1.0000 0.27770  0.70400  0.46020  Biso   1.000  H
  H24      1.0000 0.26870  0.68730  0.50620  Biso   1.000  H
  C22      1.0000 0.99490  0.71008  0.58589  Biso   1.000  C
  C23      1.0000 0.04960  0.74572  0.60551  Biso   1.000  C
  C24      1.0000 0.15810  0.74398  0.62189  Biso   1.000  C
  H25      1.0000 0.19960  0.72040  0.62020  Biso   1.000  H
  C25      1.0000 0.20600  0.77769  0.64115  Biso   1.000  C
  H26      1.0000 0.28100  0.77720  0.65200  Biso   1.000  H
  C26      1.0000 0.14390  0.81120  0.64418  Biso   1.000  C
  H27      1.0000 0.17590  0.83350  0.65820  Biso   1.000  H
  C27      1.0000 0.03840  0.81334  0.62773  Biso   1.000  C
  C28      1.0000 0.99170  0.78059  0.60860  Biso   1.000  C
  H28      1.0000 0.91740  0.78190  0.59720  Biso   1.000  H
  C29      1.0000 0.97130  0.84993  0.63255  Biso   1.000  C
  C30      1.0000 0.75060  0.60096  0.58905  Biso   1.000  C
  C31      1.0000 0.70450  0.58067  0.62629  Biso   1.000  C
  C32      1.0000 0.70420  0.59851  0.66550  Biso   1.000  C
  H29      1.0000 0.73880  0.62340  0.67010  Biso   1.000  H
  C33      1.0000 0.65350  0.57995  0.69777  Biso   1.000  C
  H30      1.0000 0.65270  0.59240  0.72440  Biso   1.000  H
  C34      1.0000 0.60430  0.54378  0.69182  Biso   1.000  C
  H31      1.0000 0.56960  0.53140  0.71420  Biso   1.000  H
  C35      1.0000 0.60520  0.52521  0.65295  Biso   1.000  C
  C36      1.0000 0.65560  0.54382  0.62095  Biso   1.000  C
  H32      1.0000 0.65710  0.53110  0.59450  Biso   1.000  H
  C37      1.0000 0.54910  0.48673  0.64570  Biso   1.000  C
  C38      1.0000 0.21110  0.45761  0.62410  Biso   1.000  C
  H33      1.0000 0.20510  0.46230  0.65320  Biso   1.000  H
  C39      1.0000 0.12370  0.46853  0.59751  Biso   1.000  C
  H34      1.0000 0.05970  0.48010  0.60810  Biso   1.000  H
  C40      1.0000 0.12970  0.46246  0.55441  Biso   1.000  C
  C41      1.0000 0.22830  0.44628  0.54187  Biso   1.000  C
  H35      1.0000 0.23860  0.44270  0.51290  Biso   1.000  H
  C42      1.0000 0.31050  0.43552  0.57120  Biso   1.000  C
  H36      1.0000 0.37530  0.42360  0.56150  Biso   1.000  H
  C43      1.0000 0.04670  0.46751  0.48065  Biso   1.000  C
  H37      1.0000 0.11240  0.45190  0.47400  Biso   1.000  H
  H38      1.0000 0.97990  0.45420  0.46810  Biso   1.000  H
  C44      1.0000 0.94540  0.49360  0.53651  Biso   1.000  C
  H39      1.0000 0.87670  0.48080  0.52480  Biso   1.000  H
  H40      1.0000 0.94140  0.49530  0.56730  Biso   1.000  H
  Zn3      1.0000 0.32687  0.16579  0.54966  Biso   1.000  Zn
  Zn4      1.0000 0.92316  0.92325  0.65511  Biso   1.000  Zn
  O9       1.0000 0.39450  0.21426  0.57213  Biso   1.000  O
  O10      1.0000 0.54870  0.17889  0.58360  Biso   1.000  O
  O11      1.0000 0.52540  0.38041  0.64607  Biso   1.000  O
  O12      1.0000 0.36900  0.34973  0.62392  Biso   1.000  O
  O13      1.0000 0.30180  0.13346  0.59811  Biso   1.000  O
  O14      1.0000 0.23450  0.08760  0.55381  Biso   1.000  O
  O15      1.0000 0.05830  0.96919  0.61153  Biso   1.000  O
  O16      1.0000 0.99500  0.97292  0.67541  Biso   1.000  O
  N9       1.0000 0.39570  0.14844  0.49763  Biso   1.000  N
  N10      1.0000 0.54860  0.11685  0.38907  Biso   1.000  N
  N11      1.0000 0.66940  0.10725  0.31530  Biso   1.000  N
  N12      1.0000 0.84010  0.08867  0.20714  Biso   1.000  N
  N13      1.0000 0.17510  0.18773  0.53021  Biso   1.000  N
  N14      1.0000 0.85940  0.23475  0.50356  Biso   1.000  N
  N15      1.0000 0.80500  0.94073  0.61249  Biso   1.000  N
  N16      1.0000 0.54010  0.97020  0.52679  Biso   1.000  N
  C45      1.0000 0.34180  0.15057  0.45946  Biso   1.000  C
  H41      1.0000 0.26730  0.15960  0.45780  Biso   1.000  H
  C46      1.0000 0.38860  0.14034  0.42279  Biso   1.000  C
  H42      1.0000 0.34630  0.14220  0.39680  Biso   1.000  H
  C47      1.0000 0.49740  0.12730  0.42385  Biso   1.000  C
  C48      1.0000 0.55470  0.12480  0.46395  Biso   1.000  C
  H43      1.0000 0.62930  0.11590  0.46660  Biso   1.000  H
  C49      1.0000 0.50120  0.13533  0.49878  Biso   1.000  C
  H44      1.0000 0.54070  0.13330  0.52530  Biso   1.000  H
  C50      1.0000 0.66450  0.10345  0.39140  Biso   1.000  C
  H45      1.0000 0.71420  0.12640  0.39610  Biso   1.000  H
  H46      1.0000 0.67710  0.08540  0.41560  Biso   1.000  H
  C51      1.0000 0.69230  0.08308  0.35284  Biso   1.000  C
  H47      1.0000 0.77180  0.07600  0.35500  Biso   1.000  H
  H48      1.0000 0.64890  0.05840  0.35000  Biso   1.000  H
  C52      1.0000 0.58200  0.13560  0.31709  Biso   1.000  C
  H49      1.0000 0.54610  0.13930  0.28870  Biso   1.000  H
  H50      1.0000 0.61360  0.16120  0.32660  Biso   1.000  H
  C53      1.0000 0.49670  0.12263  0.34651  Biso   1.000  C
  H51      1.0000 0.43780  0.14280  0.34730  Biso   1.000  H
  H52      1.0000 0.46230  0.09770  0.33630  Biso   1.000  H
  C54      1.0000 0.72550  0.10159  0.28020  Biso   1.000  C
  C55      1.0000 0.71460  0.12681  0.24595  Biso   1.000  C
  H53      1.0000 0.66660  0.14890  0.24650  Biso   1.000  H
  C56      1.0000 0.77300  0.11991  0.21144  Biso   1.000  C
  H54      1.0000 0.76580  0.13830  0.18900  Biso   1.000  H
  C57      1.0000 0.84860  0.06456  0.24052  Biso   1.000  C
  H55      1.0000 0.89530  0.04220  0.23900  Biso   1.000  H
  C58      1.0000 0.79550  0.06983  0.27610  Biso   1.000  C
  H56      1.0000 0.80640  0.05160  0.29850  Biso   1.000  H
  C59      1.0000 0.08900  0.16504  0.51608  Biso   1.000  C
  H57      1.0000 0.10130  0.13760  0.51290  Biso   1.000  H
  C60      1.0000 0.98620  0.17933  0.50622  Biso   1.000  C
  H58      1.0000 0.92920  0.16200  0.49580  Biso   1.000  H
  C61      1.0000 0.96280  0.21966  0.51123  Biso   1.000  C
  C62      1.0000 0.05310  0.24265  0.52488  Biso   1.000  C
  H59      1.0000 0.04380  0.27020  0.52820  Biso   1.000  H
  C63      1.0000 0.15360  0.22640  0.53343  Biso   1.000  C
  H60      1.0000 0.21310  0.24330  0.54230  Biso   1.000  H
  C64      1.0000 0.83690  0.27565  0.51080  Biso   1.000  C
  H61      1.0000 0.87370  0.28270  0.53830  Biso   1.000  H
  H62      1.0000 0.87410  0.29090  0.48930  Biso   1.000  H
  C65      1.0000 0.76540  0.21180  0.48940  Biso   1.000  C
  H63      1.0000 0.77770  0.20400  0.46020  Biso   1.000  H
  H64      1.0000 0.76870  0.18730  0.50620  Biso   1.000  H
  C66      1.0000 0.49490  0.21008  0.58589  Biso   1.000  C
  C67      1.0000 0.54960  0.24572  0.60551  Biso   1.000  C
  C68      1.0000 0.65810  0.24398  0.62189  Biso   1.000  C
  H65      1.0000 0.69960  0.22040  0.62020  Biso   1.000  H
  C69      1.0000 0.70600  0.27769  0.64115  Biso   1.000  C
  H66      1.0000 0.78100  0.27720  0.65200  Biso   1.000  H
  C70      1.0000 0.64390  0.31120  0.64418  Biso   1.000  C
  H67      1.0000 0.67590  0.33350  0.65820  Biso   1.000  H
  C71      1.0000 0.53840  0.31334  0.62773  Biso   1.000  C
  C72      1.0000 0.49170  0.28059  0.60860  Biso   1.000  C
  H68      1.0000 0.41740  0.28190  0.59720  Biso   1.000  H
  C73      1.0000 0.47130  0.34993  0.63255  Biso   1.000  C
  C74      1.0000 0.25060  0.10096  0.58905  Biso   1.000  C
  C75      1.0000 0.20450  0.08067  0.62629  Biso   1.000  C
  C76      1.0000 0.20420  0.09851  0.66550  Biso   1.000  C
  H69      1.0000 0.23880  0.12340  0.67010  Biso   1.000  H
  C77      1.0000 0.15350  0.07995  0.69777  Biso   1.000  C
  H70      1.0000 0.15270  0.09240  0.72440  Biso   1.000  H
  C78      1.0000 0.10430  0.04378  0.69182  Biso   1.000  C
  H71      1.0000 0.06960  0.03140  0.71420  Biso   1.000  H
  C79      1.0000 0.10520  0.02521  0.65295  Biso   1.000  C
  C80      1.0000 0.15560  0.04382  0.62095  Biso   1.000  C
  H72      1.0000 0.15710  0.03110  0.59450  Biso   1.000  H
  C81      1.0000 0.04910  0.98673  0.64570  Biso   1.000  C
  C82      1.0000 0.71110  0.95761  0.62410  Biso   1.000  C
  H73      1.0000 0.70510  0.96230  0.65320  Biso   1.000  H
  C83      1.0000 0.62370  0.96853  0.59751  Biso   1.000  C
  H74      1.0000 0.55970  0.98010  0.60810  Biso   1.000  H
  C84      1.0000 0.62970  0.96246  0.55441  Biso   1.000  C
  C85      1.0000 0.72830  0.94628  0.54187  Biso   1.000  C
  H75      1.0000 0.73860  0.94270  0.51290  Biso   1.000  H
  C86      1.0000 0.81050  0.93552  0.57120  Biso   1.000  C
  H76      1.0000 0.87530  0.92360  0.56150  Biso   1.000  H
  C87      1.0000 0.54670  0.96751  0.48065  Biso   1.000  C
  H77      1.0000 0.61240  0.95190  0.47400  Biso   1.000  H
  H78      1.0000 0.47990  0.95420  0.46810  Biso   1.000  H
  C88      1.0000 0.44540  0.99360  0.53651  Biso   1.000  C
  H79      1.0000 0.37670  0.98080  0.52480  Biso   1.000  H
  H80      1.0000 0.44140  0.99530  0.56730  Biso   1.000  H
  Zn5      1.0000 0.17313  0.66579  0.95034  Biso   1.000  Zn
  Zn6      1.0000 0.57684  0.42325  0.84489  Biso   1.000  Zn
  O17      1.0000 0.10550  0.71426  0.92787  Biso   1.000  O
  O18      1.0000 0.95130  0.67889  0.91640  Biso   1.000  O
  O19      1.0000 0.97460  0.88041  0.85393  Biso   1.000  O
  O20      1.0000 0.13100  0.84973  0.87608  Biso   1.000  O
  O21      1.0000 0.19820  0.63346  0.90189  Biso   1.000  O
  O22      1.0000 0.26550  0.58760  0.94619  Biso   1.000  O
  O23      1.0000 0.44170  0.46919  0.88847  Biso   1.000  O
  O24      1.0000 0.50500  0.47292  0.82459  Biso   1.000  O
  N17      1.0000 0.10430  0.64844  0.00237  Biso   1.000  N
  N18      1.0000 0.95140  0.61685  0.11093  Biso   1.000  N
  N19      1.0000 0.83060  0.60725  0.18470  Biso   1.000  N
  N20      1.0000 0.65990  0.58867  0.29286  Biso   1.000  N
  N21      1.0000 0.32490  0.68773  0.96979  Biso   1.000  N
  N22      1.0000 0.64060  0.73475  0.99644  Biso   1.000  N
  N23      1.0000 0.69500  0.44073  0.88751  Biso   1.000  N
  N24      1.0000 0.95990  0.47020  0.97321  Biso   1.000  N
  C89      1.0000 0.15820  0.65057  0.04054  Biso   1.000  C
  H81      1.0000 0.23270  0.65960  0.04220  Biso   1.000  H
  C90      1.0000 0.11140  0.64034  0.07721  Biso   1.000  C
  H82      1.0000 0.15370  0.64220  0.10320  Biso   1.000  H
  C91      1.0000 0.00260  0.62730  0.07615  Biso   1.000  C
  C92      1.0000 0.94530  0.62480  0.03605  Biso   1.000  C
  H83      1.0000 0.87070  0.61590  0.03340  Biso   1.000  H
  C93      1.0000 0.99880  0.63533  0.00122  Biso   1.000  C
  H84      1.0000 0.95930  0.63330  0.97470  Biso   1.000  H
  C94      1.0000 0.83550  0.60345  0.10860  Biso   1.000  C
  H85      1.0000 0.78580  0.62640  0.10390  Biso   1.000  H
  H86      1.0000 0.82290  0.58540  0.08440  Biso   1.000  H
  C95      1.0000 0.80770  0.58308  0.14716  Biso   1.000  C
  H87      1.0000 0.72820  0.57600  0.14500  Biso   1.000  H
  H88      1.0000 0.85110  0.55840  0.15000  Biso   1.000  H
  C96      1.0000 0.91800  0.63560  0.18291  Biso   1.000  C
  H89      1.0000 0.95390  0.63930  0.21130  Biso   1.000  H
  H90      1.0000 0.88640  0.66120  0.17340  Biso   1.000  H
  C97      1.0000 0.00330  0.62263  0.15349  Biso   1.000  C
  H91      1.0000 0.06220  0.64280  0.15270  Biso   1.000  H
  H92      1.0000 0.03770  0.59770  0.16370  Biso   1.000  H
  C98      1.0000 0.77450  0.60159  0.21980  Biso   1.000  C
  C99      1.0000 0.78540  0.62681  0.25405  Biso   1.000  C
  H93      1.0000 0.83340  0.64890  0.25350  Biso   1.000  H
  C100     1.0000 0.72700  0.61991  0.28856  Biso   1.000  C
  H94      1.0000 0.73420  0.63830  0.31100  Biso   1.000  H
  C101     1.0000 0.65140  0.56456  0.25948  Biso   1.000  C
  H95      1.0000 0.60470  0.54220  0.26100  Biso   1.000  H
  C102     1.0000 0.70450  0.56983  0.22390  Biso   1.000  C
  H96      1.0000 0.69360  0.55160  0.20150  Biso   1.000  H
  C103     1.0000 0.41100  0.66504  0.98392  Biso   1.000  C
  H97      1.0000 0.39870  0.63760  0.98710  Biso   1.000  H
  C104     1.0000 0.51380  0.67933  0.99378  Biso   1.000  C
  H98      1.0000 0.57080  0.66200  0.00420  Biso   1.000  H
  C105     1.0000 0.53720  0.71966  0.98877  Biso   1.000  C
  C106     1.0000 0.44690  0.74265  0.97512  Biso   1.000  C
  H99      1.0000 0.45620  0.77020  0.97180  Biso   1.000  H
  C107     1.0000 0.34640  0.72640  0.96657  Biso   1.000  C
  H100     1.0000 0.28690  0.74330  0.95770  Biso   1.000  H
  C108     1.0000 0.66310  0.77565  0.98920  Biso   1.000  C
  H101     1.0000 0.62630  0.78270  0.96170  Biso   1.000  H
  H102     1.0000 0.62590  0.79090  0.01070  Biso   1.000  H
  C109     1.0000 0.73460  0.71180  0.01060  Biso   1.000  C
  H103     1.0000 0.72230  0.70400  0.03980  Biso   1.000  H
  H104     1.0000 0.73130  0.68730  0.99380  Biso   1.000  H
  C110     1.0000 0.00510  0.71008  0.91411  Biso   1.000  C
  C111     1.0000 0.95040  0.74572  0.89449  Biso   1.000  C
  C112     1.0000 0.84190  0.74398  0.87811  Biso   1.000  C
  H105     1.0000 0.80040  0.72040  0.87980  Biso   1.000  H
  C113     1.0000 0.79400  0.77769  0.85885  Biso   1.000  C
  H106     1.0000 0.71900  0.77720  0.84800  Biso   1.000  H
  C114     1.0000 0.85610  0.81120  0.85582  Biso   1.000  C
  H107     1.0000 0.82410  0.83350  0.84180  Biso   1.000  H
  C115     1.0000 0.96160  0.81334  0.87227  Biso   1.000  C
  C116     1.0000 0.00830  0.78059  0.89140  Biso   1.000  C
  H108     1.0000 0.08260  0.78190  0.90280  Biso   1.000  H
  C117     1.0000 0.02870  0.84993  0.86745  Biso   1.000  C
  C118     1.0000 0.24940  0.60096  0.91095  Biso   1.000  C
  C119     1.0000 0.29550  0.58067  0.87371  Biso   1.000  C
  C120     1.0000 0.29580  0.59851  0.83450  Biso   1.000  C
  H109     1.0000 0.26120  0.62340  0.82990  Biso   1.000  H
  C121     1.0000 0.34650  0.57995  0.80223  Biso   1.000  C
  H110     1.0000 0.34730  0.59240  0.77560  Biso   1.000  H
  C122     1.0000 0.39570  0.54378  0.80818  Biso   1.000  C
  H111     1.0000 0.43040  0.53140  0.78580  Biso   1.000  H
  C123     1.0000 0.39480  0.52521  0.84705  Biso   1.000  C
  C124     1.0000 0.34440  0.54382  0.87905  Biso   1.000  C
  H112     1.0000 0.34290  0.53110  0.90550  Biso   1.000  H
  C125     1.0000 0.45090  0.48673  0.85430  Biso   1.000  C
  C126     1.0000 0.78890  0.45761  0.87590  Biso   1.000  C
  H113     1.0000 0.79490  0.46230  0.84680  Biso   1.000  H
  C127     1.0000 0.87630  0.46853  0.90249  Biso   1.000  C
  H114     1.0000 0.94030  0.48010  0.89190  Biso   1.000  H
  C128     1.0000 0.87030  0.46246  0.94559  Biso   1.000  C
  C129     1.0000 0.77170  0.44628  0.95813  Biso   1.000  C
  H115     1.0000 0.76140  0.44270  0.98710  Biso   1.000  H
  C130     1.0000 0.68950  0.43552  0.92880  Biso   1.000  C
  H116     1.0000 0.62470  0.42360  0.93850  Biso   1.000  H
  C131     1.0000 0.95330  0.46751  0.01935  Biso   1.000  C
  H117     1.0000 0.88760  0.45190  0.02600  Biso   1.000  H
  H118     1.0000 0.02010  0.45420  0.03190  Biso   1.000  H
  C132     1.0000 0.05460  0.49360  0.96349  Biso   1.000  C
  H119     1.0000 0.12330  0.48080  0.97520  Biso   1.000  H
  H120     1.0000 0.05860  0.49530  0.93270  Biso   1.000  H
  Zn7      1.0000 0.67313  0.16579  0.95034  Biso   1.000  Zn
  Zn8      1.0000 0.07684  0.92325  0.84489  Biso   1.000  Zn
  O25      1.0000 0.60550  0.21426  0.92787  Biso   1.000  O
  O26      1.0000 0.45130  0.17889  0.91640  Biso   1.000  O
  O27      1.0000 0.47460  0.38041  0.85393  Biso   1.000  O
  O28      1.0000 0.63100  0.34973  0.87608  Biso   1.000  O
  O29      1.0000 0.69820  0.13346  0.90189  Biso   1.000  O
  O30      1.0000 0.76550  0.08760  0.94619  Biso   1.000  O
  O31      1.0000 0.94170  0.96919  0.88847  Biso   1.000  O
  O32      1.0000 0.00500  0.97292  0.82459  Biso   1.000  O
  N25      1.0000 0.60430  0.14844  0.00237  Biso   1.000  N
  N26      1.0000 0.45140  0.11685  0.11093  Biso   1.000  N
  N27      1.0000 0.33060  0.10725  0.18470  Biso   1.000  N
  N28      1.0000 0.15990  0.08867  0.29286  Biso   1.000  N
  N29      1.0000 0.82490  0.18773  0.96979  Biso   1.000  N
  N30      1.0000 0.14060  0.23475  0.99644  Biso   1.000  N
  N31      1.0000 0.19500  0.94073  0.88751  Biso   1.000  N
  N32      1.0000 0.45990  0.97020  0.97321  Biso   1.000  N
  C133     1.0000 0.65820  0.15057  0.04054  Biso   1.000  C
  H121     1.0000 0.73270  0.15960  0.04220  Biso   1.000  H
  C134     1.0000 0.61140  0.14034  0.07721  Biso   1.000  C
  H122     1.0000 0.65370  0.14220  0.10320  Biso   1.000  H
  C135     1.0000 0.50260  0.12730  0.07615  Biso   1.000  C
  C136     1.0000 0.44530  0.12480  0.03605  Biso   1.000  C
  H123     1.0000 0.37070  0.11590  0.03340  Biso   1.000  H
  C137     1.0000 0.49880  0.13533  0.00122  Biso   1.000  C
  H124     1.0000 0.45930  0.13330  0.97470  Biso   1.000  H
  C138     1.0000 0.33550  0.10345  0.10860  Biso   1.000  C
  H125     1.0000 0.28580  0.12640  0.10390  Biso   1.000  H
  H126     1.0000 0.32290  0.08540  0.08440  Biso   1.000  H
  C139     1.0000 0.30770  0.08308  0.14716  Biso   1.000  C
  H127     1.0000 0.22820  0.07600  0.14500  Biso   1.000  H
  H128     1.0000 0.35110  0.05840  0.15000  Biso   1.000  H
  C140     1.0000 0.41800  0.13560  0.18291  Biso   1.000  C
  H129     1.0000 0.45390  0.13930  0.21130  Biso   1.000  H
  H130     1.0000 0.38640  0.16120  0.17340  Biso   1.000  H
  C141     1.0000 0.50330  0.12263  0.15349  Biso   1.000  C
  H131     1.0000 0.56220  0.14280  0.15270  Biso   1.000  H
  H132     1.0000 0.53770  0.09770  0.16370  Biso   1.000  H
  C142     1.0000 0.27450  0.10159  0.21980  Biso   1.000  C
  C143     1.0000 0.28540  0.12681  0.25405  Biso   1.000  C
  H133     1.0000 0.33340  0.14890  0.25350  Biso   1.000  H
  C144     1.0000 0.22700  0.11991  0.28856  Biso   1.000  C
  H134     1.0000 0.23420  0.13830  0.31100  Biso   1.000  H
  C145     1.0000 0.15140  0.06456  0.25948  Biso   1.000  C
  H135     1.0000 0.10470  0.04220  0.26100  Biso   1.000  H
  C146     1.0000 0.20450  0.06983  0.22390  Biso   1.000  C
  H136     1.0000 0.19360  0.05160  0.20150  Biso   1.000  H
  C147     1.0000 0.91100  0.16504  0.98392  Biso   1.000  C
  H137     1.0000 0.89870  0.13760  0.98710  Biso   1.000  H
  C148     1.0000 0.01380  0.17933  0.99378  Biso   1.000  C
  H138     1.0000 0.07080  0.16200  0.00420  Biso   1.000  H
  C149     1.0000 0.03720  0.21966  0.98877  Biso   1.000  C
  C150     1.0000 0.94690  0.24265  0.97512  Biso   1.000  C
  H139     1.0000 0.95620  0.27020  0.97180  Biso   1.000  H
  C151     1.0000 0.84640  0.22640  0.96657  Biso   1.000  C
  H140     1.0000 0.78690  0.24330  0.95770  Biso   1.000  H
  C152     1.0000 0.16310  0.27565  0.98920  Biso   1.000  C
  H141     1.0000 0.12630  0.28270  0.96170  Biso   1.000  H
  H142     1.0000 0.12590  0.29090  0.01070  Biso   1.000  H
  C153     1.0000 0.23460  0.21180  0.01060  Biso   1.000  C
  H143     1.0000 0.22230  0.20400  0.03980  Biso   1.000  H
  H144     1.0000 0.23130  0.18730  0.99380  Biso   1.000  H
  C154     1.0000 0.50510  0.21008  0.91411  Biso   1.000  C
  C155     1.0000 0.45040  0.24572  0.89449  Biso   1.000  C
  C156     1.0000 0.34190  0.24398  0.87811  Biso   1.000  C
  H145     1.0000 0.30040  0.22040  0.87980  Biso   1.000  H
  C157     1.0000 0.29400  0.27769  0.85885  Biso   1.000  C
  H146     1.0000 0.21900  0.27720  0.84800  Biso   1.000  H
  C158     1.0000 0.35610  0.31120  0.85582  Biso   1.000  C
  H147     1.0000 0.32410  0.33350  0.84180  Biso   1.000  H
  C159     1.0000 0.46160  0.31334  0.87227  Biso   1.000  C
  C160     1.0000 0.50830  0.28059  0.89140  Biso   1.000  C
  H148     1.0000 0.58260  0.28190  0.90280  Biso   1.000  H
  C161     1.0000 0.52870  0.34993  0.86745  Biso   1.000  C
  C162     1.0000 0.74940  0.10096  0.91095  Biso   1.000  C
  C163     1.0000 0.79550  0.08067  0.87371  Biso   1.000  C
  C164     1.0000 0.79580  0.09851  0.83450  Biso   1.000  C
  H149     1.0000 0.76120  0.12340  0.82990  Biso   1.000  H
  C165     1.0000 0.84650  0.07995  0.80223  Biso   1.000  C
  H150     1.0000 0.84730  0.09240  0.77560  Biso   1.000  H
  C166     1.0000 0.89570  0.04378  0.80818  Biso   1.000  C
  H151     1.0000 0.93040  0.03140  0.78580  Biso   1.000  H
  C167     1.0000 0.89480  0.02521  0.84705  Biso   1.000  C
  C168     1.0000 0.84440  0.04382  0.87905  Biso   1.000  C
  H152     1.0000 0.84290  0.03110  0.90550  Biso   1.000  H
  C169     1.0000 0.95090  0.98673  0.85430  Biso   1.000  C
  C170     1.0000 0.28890  0.95761  0.87590  Biso   1.000  C
  H153     1.0000 0.29490  0.96230  0.84680  Biso   1.000  H
  C171     1.0000 0.37630  0.96853  0.90249  Biso   1.000  C
  H154     1.0000 0.44030  0.98010  0.89190  Biso   1.000  H
  C172     1.0000 0.37030  0.96246  0.94559  Biso   1.000  C
  C173     1.0000 0.27170  0.94628  0.95813  Biso   1.000  C
  H155     1.0000 0.26140  0.94270  0.98710  Biso   1.000  H
  C174     1.0000 0.18950  0.93552  0.92880  Biso   1.000  C
  H156     1.0000 0.12470  0.92360  0.93850  Biso   1.000  H
  C175     1.0000 0.45330  0.96751  0.01935  Biso   1.000  C
  H157     1.0000 0.38760  0.95190  0.02600  Biso   1.000  H
  H158     1.0000 0.52010  0.95420  0.03190  Biso   1.000  H
  C176     1.0000 0.55460  0.99360  0.96349  Biso   1.000  C
  H159     1.0000 0.62330  0.98080  0.97520  Biso   1.000  H
  H160     1.0000 0.55860  0.99530  0.93270  Biso   1.000  H
  Zn9      1.0000 0.17313  0.33421  0.45034  Biso   1.000  Zn
  Zn10     1.0000 0.57684  0.57675  0.34489  Biso   1.000  Zn
  O33      1.0000 0.10550  0.28574  0.42787  Biso   1.000  O
  O34      1.0000 0.95130  0.32111  0.41640  Biso   1.000  O
  O35      1.0000 0.97460  0.11959  0.35393  Biso   1.000  O
  O36      1.0000 0.13100  0.15027  0.37608  Biso   1.000  O
  O37      1.0000 0.19820  0.36654  0.40189  Biso   1.000  O
  O38      1.0000 0.26550  0.41240  0.44619  Biso   1.000  O
  O39      1.0000 0.44170  0.53081  0.38847  Biso   1.000  O
  O40      1.0000 0.50500  0.52708  0.32459  Biso   1.000  O
  N33      1.0000 0.10430  0.35156  0.50237  Biso   1.000  N
  N34      1.0000 0.95140  0.38315  0.61093  Biso   1.000  N
  N35      1.0000 0.83060  0.39275  0.68470  Biso   1.000  N
  N36      1.0000 0.65990  0.41133  0.79286  Biso   1.000  N
  N37      1.0000 0.32490  0.31227  0.46979  Biso   1.000  N
  N38      1.0000 0.64060  0.26525  0.49644  Biso   1.000  N
  N39      1.0000 0.69500  0.55927  0.38751  Biso   1.000  N
  N40      1.0000 0.95990  0.52980  0.47321  Biso   1.000  N
  C177     1.0000 0.15820  0.34943  0.54054  Biso   1.000  C
  H161     1.0000 0.23270  0.34040  0.54220  Biso   1.000  H
  C178     1.0000 0.11140  0.35966  0.57721  Biso   1.000  C
  H162     1.0000 0.15370  0.35780  0.60320  Biso   1.000  H
  C179     1.0000 0.00260  0.37270  0.57615  Biso   1.000  C
  C180     1.0000 0.94530  0.37520  0.53605  Biso   1.000  C
  H163     1.0000 0.87070  0.38410  0.53340  Biso   1.000  H
  C181     1.0000 0.99880  0.36467  0.50122  Biso   1.000  C
  H164     1.0000 0.95930  0.36670  0.47470  Biso   1.000  H
  C182     1.0000 0.83550  0.39655  0.60860  Biso   1.000  C
  H165     1.0000 0.78580  0.37360  0.60390  Biso   1.000  H
  H166     1.0000 0.82290  0.41460  0.58440  Biso   1.000  H
  C183     1.0000 0.80770  0.41692  0.64716  Biso   1.000  C
  H167     1.0000 0.72820  0.42400  0.64500  Biso   1.000  H
  H168     1.0000 0.85110  0.44160  0.65000  Biso   1.000  H
  C184     1.0000 0.91800  0.36440  0.68291  Biso   1.000  C
  H169     1.0000 0.95390  0.36070  0.71130  Biso   1.000  H
  H170     1.0000 0.88640  0.33880  0.67340  Biso   1.000  H
  C185     1.0000 0.00330  0.37737  0.65349  Biso   1.000  C
  H171     1.0000 0.06220  0.35720  0.65270  Biso   1.000  H
  H172     1.0000 0.03770  0.40230  0.66370  Biso   1.000  H
  C186     1.0000 0.77450  0.39841  0.71980  Biso   1.000  C
  C187     1.0000 0.78540  0.37319  0.75405  Biso   1.000  C
  H173     1.0000 0.83340  0.35110  0.75350  Biso   1.000  H
  C188     1.0000 0.72700  0.38009  0.78856  Biso   1.000  C
  H174     1.0000 0.73420  0.36170  0.81100  Biso   1.000  H
  C189     1.0000 0.65140  0.43544  0.75948  Biso   1.000  C
  H175     1.0000 0.60470  0.45780  0.76100  Biso   1.000  H
  C190     1.0000 0.70450  0.43017  0.72390  Biso   1.000  C
  H176     1.0000 0.69360  0.44840  0.70150  Biso   1.000  H
  C191     1.0000 0.41100  0.33496  0.48392  Biso   1.000  C
  H177     1.0000 0.39870  0.36240  0.48710  Biso   1.000  H
  C192     1.0000 0.51380  0.32067  0.49378  Biso   1.000  C
  H178     1.0000 0.57080  0.33800  0.50420  Biso   1.000  H
  C193     1.0000 0.53720  0.28034  0.48877  Biso   1.000  C
  C194     1.0000 0.44690  0.25735  0.47512  Biso   1.000  C
  H179     1.0000 0.45620  0.22980  0.47180  Biso   1.000  H
  C195     1.0000 0.34640  0.27360  0.46657  Biso   1.000  C
  H180     1.0000 0.28690  0.25670  0.45770  Biso   1.000  H
  C196     1.0000 0.66310  0.22435  0.48920  Biso   1.000  C
  H181     1.0000 0.62630  0.21730  0.46170  Biso   1.000  H
  H182     1.0000 0.62590  0.20910  0.51070  Biso   1.000  H
  C197     1.0000 0.73460  0.28820  0.51060  Biso   1.000  C
  H183     1.0000 0.72230  0.29600  0.53980  Biso   1.000  H
  H184     1.0000 0.73130  0.31270  0.49380  Biso   1.000  H
  C198     1.0000 0.00510  0.28992  0.41411  Biso   1.000  C
  C199     1.0000 0.95040  0.25428  0.39449  Biso   1.000  C
  C200     1.0000 0.84190  0.25602  0.37811  Biso   1.000  C
  H185     1.0000 0.80040  0.27960  0.37980  Biso   1.000  H
  C201     1.0000 0.79400  0.22231  0.35885  Biso   1.000  C
  H186     1.0000 0.71900  0.22280  0.34800  Biso   1.000  H
  C202     1.0000 0.85610  0.18880  0.35582  Biso   1.000  C
  H187     1.0000 0.82410  0.16650  0.34180  Biso   1.000  H
  C203     1.0000 0.96160  0.18666  0.37227  Biso   1.000  C
  C204     1.0000 0.00830  0.21941  0.39140  Biso   1.000  C
  H188     1.0000 0.08260  0.21810  0.40280  Biso   1.000  H
  C205     1.0000 0.02870  0.15007  0.36745  Biso   1.000  C
  C206     1.0000 0.24940  0.39904  0.41095  Biso   1.000  C
  C207     1.0000 0.29550  0.41933  0.37371  Biso   1.000  C
  C208     1.0000 0.29580  0.40149  0.33450  Biso   1.000  C
  H189     1.0000 0.26120  0.37660  0.32990  Biso   1.000  H
  C209     1.0000 0.34650  0.42005  0.30223  Biso   1.000  C
  H190     1.0000 0.34730  0.40760  0.27560  Biso   1.000  H
  C210     1.0000 0.39570  0.45622  0.30818  Biso   1.000  C
  H191     1.0000 0.43040  0.46860  0.28580  Biso   1.000  H
  C211     1.0000 0.39480  0.47479  0.34705  Biso   1.000  C
  C212     1.0000 0.34440  0.45618  0.37905  Biso   1.000  C
  H192     1.0000 0.34290  0.46890  0.40550  Biso   1.000  H
  C213     1.0000 0.45090  0.51327  0.35430  Biso   1.000  C
  C214     1.0000 0.78890  0.54239  0.37590  Biso   1.000  C
  H193     1.0000 0.79490  0.53770  0.34680  Biso   1.000  H
  C215     1.0000 0.87630  0.53147  0.40249  Biso   1.000  C
  H194     1.0000 0.94030  0.51990  0.39190  Biso   1.000  H
  C216     1.0000 0.87030  0.53754  0.44559  Biso   1.000  C
  C217     1.0000 0.77170  0.55372  0.45813  Biso   1.000  C
  H195     1.0000 0.76140  0.55730  0.48710  Biso   1.000  H
  C218     1.0000 0.68950  0.56448  0.42880  Biso   1.000  C
  H196     1.0000 0.62470  0.57640  0.43850  Biso   1.000  H
  C219     1.0000 0.95330  0.53249  0.51935  Biso   1.000  C
  H197     1.0000 0.88760  0.54810  0.52600  Biso   1.000  H
  H198     1.0000 0.02010  0.54580  0.53190  Biso   1.000  H
  C220     1.0000 0.05460  0.50640  0.46349  Biso   1.000  C
  H199     1.0000 0.12330  0.51920  0.47520  Biso   1.000  H
  H200     1.0000 0.05860  0.50470  0.43270  Biso   1.000  H
  Zn11     1.0000 0.67313  0.83421  0.45034  Biso   1.000  Zn
  Zn12     1.0000 0.07684  0.07675  0.34489  Biso   1.000  Zn
  O41      1.0000 0.60550  0.78574  0.42787  Biso   1.000  O
  O42      1.0000 0.45130  0.82111  0.41640  Biso   1.000  O
  O43      1.0000 0.47460  0.61959  0.35393  Biso   1.000  O
  O44      1.0000 0.63100  0.65027  0.37608  Biso   1.000  O
  O45      1.0000 0.69820  0.86654  0.40189  Biso   1.000  O
  O46      1.0000 0.76550  0.91240  0.44619  Biso   1.000  O
  O47      1.0000 0.94170  0.03081  0.38847  Biso   1.000  O
  O48      1.0000 0.00500  0.02708  0.32459  Biso   1.000  O
  N41      1.0000 0.60430  0.85156  0.50237  Biso   1.000  N
  N42      1.0000 0.45140  0.88315  0.61093  Biso   1.000  N
  N43      1.0000 0.33060  0.89275  0.68470  Biso   1.000  N
  N44      1.0000 0.15990  0.91133  0.79286  Biso   1.000  N
  N45      1.0000 0.82490  0.81227  0.46979  Biso   1.000  N
  N46      1.0000 0.14060  0.76525  0.49644  Biso   1.000  N
  N47      1.0000 0.19500  0.05927  0.38751  Biso   1.000  N
  N48      1.0000 0.45990  0.02980  0.47321  Biso   1.000  N
  C221     1.0000 0.65820  0.84943  0.54054  Biso   1.000  C
  H201     1.0000 0.73270  0.84040  0.54220  Biso   1.000  H
  C222     1.0000 0.61140  0.85966  0.57721  Biso   1.000  C
  H202     1.0000 0.65370  0.85780  0.60320  Biso   1.000  H
  C223     1.0000 0.50260  0.87270  0.57615  Biso   1.000  C
  C224     1.0000 0.44530  0.87520  0.53605  Biso   1.000  C
  H203     1.0000 0.37070  0.88410  0.53340  Biso   1.000  H
  C225     1.0000 0.49880  0.86467  0.50122  Biso   1.000  C
  H204     1.0000 0.45930  0.86670  0.47470  Biso   1.000  H
  C226     1.0000 0.33550  0.89655  0.60860  Biso   1.000  C
  H205     1.0000 0.28580  0.87360  0.60390  Biso   1.000  H
  H206     1.0000 0.32290  0.91460  0.58440  Biso   1.000  H
  C227     1.0000 0.30770  0.91692  0.64716  Biso   1.000  C
  H207     1.0000 0.22820  0.92400  0.64500  Biso   1.000  H
  H208     1.0000 0.35110  0.94160  0.65000  Biso   1.000  H
  C228     1.0000 0.41800  0.86440  0.68291  Biso   1.000  C
  H209     1.0000 0.45390  0.86070  0.71130  Biso   1.000  H
  H210     1.0000 0.38640  0.83880  0.67340  Biso   1.000  H
  C229     1.0000 0.50330  0.87737  0.65349  Biso   1.000  C
  H211     1.0000 0.56220  0.85720  0.65270  Biso   1.000  H
  H212     1.0000 0.53770  0.90230  0.66370  Biso   1.000  H
  C230     1.0000 0.27450  0.89841  0.71980  Biso   1.000  C
  C231     1.0000 0.28540  0.87319  0.75405  Biso   1.000  C
  H213     1.0000 0.33340  0.85110  0.75350  Biso   1.000  H
  C232     1.0000 0.22700  0.88009  0.78856  Biso   1.000  C
  H214     1.0000 0.23420  0.86170  0.81100  Biso   1.000  H
  C233     1.0000 0.15140  0.93544  0.75948  Biso   1.000  C
  H215     1.0000 0.10470  0.95780  0.76100  Biso   1.000  H
  C234     1.0000 0.20450  0.93017  0.72390  Biso   1.000  C
  H216     1.0000 0.19360  0.94840  0.70150  Biso   1.000  H
  C235     1.0000 0.91100  0.83496  0.48392  Biso   1.000  C
  H217     1.0000 0.89870  0.86240  0.48710  Biso   1.000  H
  C236     1.0000 0.01380  0.82067  0.49378  Biso   1.000  C
  H218     1.0000 0.07080  0.83800  0.50420  Biso   1.000  H
  C237     1.0000 0.03720  0.78034  0.48877  Biso   1.000  C
  C238     1.0000 0.94690  0.75735  0.47512  Biso   1.000  C
  H219     1.0000 0.95620  0.72980  0.47180  Biso   1.000  H
  C239     1.0000 0.84640  0.77360  0.46657  Biso   1.000  C
  H220     1.0000 0.78690  0.75670  0.45770  Biso   1.000  H
  C240     1.0000 0.16310  0.72435  0.48920  Biso   1.000  C
  H221     1.0000 0.12630  0.71730  0.46170  Biso   1.000  H
  H222     1.0000 0.12590  0.70910  0.51070  Biso   1.000  H
  C241     1.0000 0.23460  0.78820  0.51060  Biso   1.000  C
  H223     1.0000 0.22230  0.79600  0.53980  Biso   1.000  H
  H224     1.0000 0.23130  0.81270  0.49380  Biso   1.000  H
  C242     1.0000 0.50510  0.78992  0.41411  Biso   1.000  C
  C243     1.0000 0.45040  0.75428  0.39449  Biso   1.000  C
  C244     1.0000 0.34190  0.75602  0.37811  Biso   1.000  C
  H225     1.0000 0.30040  0.77960  0.37980  Biso   1.000  H
  C245     1.0000 0.29400  0.72231  0.35885  Biso   1.000  C
  H226     1.0000 0.21900  0.72280  0.34800  Biso   1.000  H
  C246     1.0000 0.35610  0.68880  0.35582  Biso   1.000  C
  H227     1.0000 0.32410  0.66650  0.34180  Biso   1.000  H
  C247     1.0000 0.46160  0.68666  0.37227  Biso   1.000  C
  C248     1.0000 0.50830  0.71941  0.39140  Biso   1.000  C
  H228     1.0000 0.58260  0.71810  0.40280  Biso   1.000  H
  C249     1.0000 0.52870  0.65007  0.36745  Biso   1.000  C
  C250     1.0000 0.74940  0.89904  0.41095  Biso   1.000  C
  C251     1.0000 0.79550  0.91933  0.37371  Biso   1.000  C
  C252     1.0000 0.79580  0.90149  0.33450  Biso   1.000  C
  H229     1.0000 0.76120  0.87660  0.32990  Biso   1.000  H
  C253     1.0000 0.84650  0.92005  0.30223  Biso   1.000  C
  H230     1.0000 0.84730  0.90760  0.27560  Biso   1.000  H
  C254     1.0000 0.89570  0.95622  0.30818  Biso   1.000  C
  H231     1.0000 0.93040  0.96860  0.28580  Biso   1.000  H
  C255     1.0000 0.89480  0.97479  0.34705  Biso   1.000  C
  C256     1.0000 0.84440  0.95618  0.37905  Biso   1.000  C
  H232     1.0000 0.84290  0.96890  0.40550  Biso   1.000  H
  C257     1.0000 0.95090  0.01327  0.35430  Biso   1.000  C
  C258     1.0000 0.28890  0.04239  0.37590  Biso   1.000  C
  H233     1.0000 0.29490  0.03770  0.34680  Biso   1.000  H
  C259     1.0000 0.37630  0.03147  0.40249  Biso   1.000  C
  H234     1.0000 0.44030  0.01990  0.39190  Biso   1.000  H
  C260     1.0000 0.37030  0.03754  0.44559  Biso   1.000  C
  C261     1.0000 0.27170  0.05372  0.45813  Biso   1.000  C
  H235     1.0000 0.26140  0.05730  0.48710  Biso   1.000  H
  C262     1.0000 0.18950  0.06448  0.42880  Biso   1.000  C
  H236     1.0000 0.12470  0.07640  0.43850  Biso   1.000  H
  C263     1.0000 0.45330  0.03249  0.51935  Biso   1.000  C
  H237     1.0000 0.38760  0.04810  0.52600  Biso   1.000  H
  H238     1.0000 0.52010  0.04580  0.53190  Biso   1.000  H
  C264     1.0000 0.55460  0.00640  0.46349  Biso   1.000  C
  H239     1.0000 0.62330  0.01920  0.47520  Biso   1.000  H
  H240     1.0000 0.55860  0.00470  0.43270  Biso   1.000  H
  Zn13     1.0000 0.82687  0.33421  0.04966  Biso   1.000  Zn
  Zn14     1.0000 0.42316  0.57675  0.15511  Biso   1.000  Zn
  O49      1.0000 0.89450  0.28574  0.07213  Biso   1.000  O
  O50      1.0000 0.04870  0.32111  0.08360  Biso   1.000  O
  O51      1.0000 0.02540  0.11959  0.14607  Biso   1.000  O
  O52      1.0000 0.86900  0.15027  0.12392  Biso   1.000  O
  O53      1.0000 0.80180  0.36654  0.09811  Biso   1.000  O
  O54      1.0000 0.73450  0.41240  0.05381  Biso   1.000  O
  O55      1.0000 0.55830  0.53081  0.11153  Biso   1.000  O
  O56      1.0000 0.49500  0.52708  0.17541  Biso   1.000  O
  N49      1.0000 0.89570  0.35156  0.99763  Biso   1.000  N
  N50      1.0000 0.04860  0.38315  0.88907  Biso   1.000  N
  N51      1.0000 0.16940  0.39275  0.81530  Biso   1.000  N
  N52      1.0000 0.34010  0.41133  0.70714  Biso   1.000  N
  N53      1.0000 0.67510  0.31227  0.03021  Biso   1.000  N
  N54      1.0000 0.35940  0.26525  0.00356  Biso   1.000  N
  N55      1.0000 0.30500  0.55927  0.11249  Biso   1.000  N
  N56      1.0000 0.04010  0.52980  0.02679  Biso   1.000  N
  C265     1.0000 0.84180  0.34943  0.95946  Biso   1.000  C
  H241     1.0000 0.76730  0.34040  0.95780  Biso   1.000  H
  C266     1.0000 0.88860  0.35966  0.92279  Biso   1.000  C
  H242     1.0000 0.84630  0.35780  0.89680  Biso   1.000  H
  C267     1.0000 0.99740  0.37270  0.92385  Biso   1.000  C
  C268     1.0000 0.05470  0.37520  0.96395  Biso   1.000  C
  H243     1.0000 0.12930  0.38410  0.96660  Biso   1.000  H
  C269     1.0000 0.00120  0.36467  0.99878  Biso   1.000  C
  H244     1.0000 0.04070  0.36670  0.02530  Biso   1.000  H
  C270     1.0000 0.16450  0.39655  0.89140  Biso   1.000  C
  H245     1.0000 0.21420  0.37360  0.89610  Biso   1.000  H
  H246     1.0000 0.17710  0.41460  0.91560  Biso   1.000  H
  C271     1.0000 0.19230  0.41692  0.85284  Biso   1.000  C
  H247     1.0000 0.27180  0.42400  0.85500  Biso   1.000  H
  H248     1.0000 0.14890  0.44160  0.85000  Biso   1.000  H
  C272     1.0000 0.08200  0.36440  0.81709  Biso   1.000  C
  H249     1.0000 0.04610  0.36070  0.78870  Biso   1.000  H
  H250     1.0000 0.11360  0.33880  0.82660  Biso   1.000  H
  C273     1.0000 0.99670  0.37737  0.84651  Biso   1.000  C
  H251     1.0000 0.93780  0.35720  0.84730  Biso   1.000  H
  H252     1.0000 0.96230  0.40230  0.83630  Biso   1.000  H
  C274     1.0000 0.22550  0.39841  0.78020  Biso   1.000  C
  C275     1.0000 0.21460  0.37319  0.74595  Biso   1.000  C
  H253     1.0000 0.16660  0.35110  0.74650  Biso   1.000  H
  C276     1.0000 0.27300  0.38009  0.71144  Biso   1.000  C
  H254     1.0000 0.26580  0.36170  0.68900  Biso   1.000  H
  C277     1.0000 0.34860  0.43544  0.74052  Biso   1.000  C
  H255     1.0000 0.39530  0.45780  0.73900  Biso   1.000  H
  C278     1.0000 0.29550  0.43017  0.77610  Biso   1.000  C
  H256     1.0000 0.30640  0.44840  0.79850  Biso   1.000  H
  C279     1.0000 0.58900  0.33496  0.01608  Biso   1.000  C
  H257     1.0000 0.60130  0.36240  0.01290  Biso   1.000  H
  C280     1.0000 0.48620  0.32067  0.00622  Biso   1.000  C
  H258     1.0000 0.42920  0.33800  0.99580  Biso   1.000  H
  C281     1.0000 0.46280  0.28034  0.01123  Biso   1.000  C
  C282     1.0000 0.55310  0.25735  0.02488  Biso   1.000  C
  H259     1.0000 0.54380  0.22980  0.02820  Biso   1.000  H
  C283     1.0000 0.65360  0.27360  0.03343  Biso   1.000  C
  H260     1.0000 0.71310  0.25670  0.04230  Biso   1.000  H
  C284     1.0000 0.33690  0.22435  0.01080  Biso   1.000  C
  H261     1.0000 0.37370  0.21730  0.03830  Biso   1.000  H
  H262     1.0000 0.37410  0.20910  0.98930  Biso   1.000  H
  C285     1.0000 0.26540  0.28820  0.98940  Biso   1.000  C
  H263     1.0000 0.27770  0.29600  0.96020  Biso   1.000  H
  H264     1.0000 0.26870  0.31270  0.00620  Biso   1.000  H
  C286     1.0000 0.99490  0.28992  0.08589  Biso   1.000  C
  C287     1.0000 0.04960  0.25428  0.10551  Biso   1.000  C
  C288     1.0000 0.15810  0.25602  0.12189  Biso   1.000  C
  H265     1.0000 0.19960  0.27960  0.12020  Biso   1.000  H
  C289     1.0000 0.20600  0.22231  0.14115  Biso   1.000  C
  H266     1.0000 0.28100  0.22280  0.15200  Biso   1.000  H
  C290     1.0000 0.14390  0.18880  0.14418  Biso   1.000  C
  H267     1.0000 0.17590  0.16650  0.15820  Biso   1.000  H
  C291     1.0000 0.03840  0.18666  0.12773  Biso   1.000  C
  C292     1.0000 0.99170  0.21941  0.10860  Biso   1.000  C
  H268     1.0000 0.91740  0.21810  0.09720  Biso   1.000  H
  C293     1.0000 0.97130  0.15007  0.13255  Biso   1.000  C
  C294     1.0000 0.75060  0.39904  0.08905  Biso   1.000  C
  C295     1.0000 0.70450  0.41933  0.12629  Biso   1.000  C
  C296     1.0000 0.70420  0.40149  0.16550  Biso   1.000  C
  H269     1.0000 0.73880  0.37660  0.17010  Biso   1.000  H
  C297     1.0000 0.65350  0.42005  0.19777  Biso   1.000  C
  H270     1.0000 0.65270  0.40760  0.22440  Biso   1.000  H
  C298     1.0000 0.60430  0.45622  0.19182  Biso   1.000  C
  H271     1.0000 0.56960  0.46860  0.21420  Biso   1.000  H
  C299     1.0000 0.60520  0.47479  0.15295  Biso   1.000  C
  C300     1.0000 0.65560  0.45618  0.12095  Biso   1.000  C
  H272     1.0000 0.65710  0.46890  0.09450  Biso   1.000  H
  C301     1.0000 0.54910  0.51327  0.14570  Biso   1.000  C
  C302     1.0000 0.21110  0.54239  0.12410  Biso   1.000  C
  H273     1.0000 0.20510  0.53770  0.15320  Biso   1.000  H
  C303     1.0000 0.12370  0.53147  0.09751  Biso   1.000  C
  H274     1.0000 0.05970  0.51990  0.10810  Biso   1.000  H
  C304     1.0000 0.12970  0.53754  0.05441  Biso   1.000  C
  C305     1.0000 0.22830  0.55372  0.04187  Biso   1.000  C
  H275     1.0000 0.23860  0.55730  0.01290  Biso   1.000  H
  C306     1.0000 0.31050  0.56448  0.07120  Biso   1.000  C
  H276     1.0000 0.37530  0.57640  0.06150  Biso   1.000  H
  C307     1.0000 0.04670  0.53249  0.98065  Biso   1.000  C
  H277     1.0000 0.11240  0.54810  0.97400  Biso   1.000  H
  H278     1.0000 0.97990  0.54580  0.96810  Biso   1.000  H
  C308     1.0000 0.94540  0.50640  0.03651  Biso   1.000  C
  H279     1.0000 0.87670  0.51920  0.02480  Biso   1.000  H
  H280     1.0000 0.94140  0.50470  0.06730  Biso   1.000  H
  Zn15     1.0000 0.32687  0.83421  0.04966  Biso   1.000  Zn
  Zn16     1.0000 0.92316  0.07675  0.15511  Biso   1.000  Zn
  O57      1.0000 0.39450  0.78574  0.07213  Biso   1.000  O
  O58      1.0000 0.54870  0.82111  0.08360  Biso   1.000  O
  O59      1.0000 0.52540  0.61959  0.14607  Biso   1.000  O
  O60      1.0000 0.36900  0.65027  0.12392  Biso   1.000  O
  O61      1.0000 0.30180  0.86654  0.09811  Biso   1.000  O
  O62      1.0000 0.23450  0.91240  0.05381  Biso   1.000  O
  O63      1.0000 0.05830  0.03081  0.11153  Biso   1.000  O
  O64      1.0000 0.99500  0.02708  0.17541  Biso   1.000  O
  N57      1.0000 0.39570  0.85156  0.99763  Biso   1.000  N
  N58      1.0000 0.54860  0.88315  0.88907  Biso   1.000  N
  N59      1.0000 0.66940  0.89275  0.81530  Biso   1.000  N
  N60      1.0000 0.84010  0.91133  0.70714  Biso   1.000  N
  N61      1.0000 0.17510  0.81227  0.03021  Biso   1.000  N
  N62      1.0000 0.85940  0.76525  0.00356  Biso   1.000  N
  N63      1.0000 0.80500  0.05927  0.11249  Biso   1.000  N
  N64      1.0000 0.54010  0.02980  0.02679  Biso   1.000  N
  C309     1.0000 0.34180  0.84943  0.95946  Biso   1.000  C
  H281     1.0000 0.26730  0.84040  0.95780  Biso   1.000  H
  C310     1.0000 0.38860  0.85966  0.92279  Biso   1.000  C
  H282     1.0000 0.34630  0.85780  0.89680  Biso   1.000  H
  C311     1.0000 0.49740  0.87270  0.92385  Biso   1.000  C
  C312     1.0000 0.55470  0.87520  0.96395  Biso   1.000  C
  H283     1.0000 0.62930  0.88410  0.96660  Biso   1.000  H
  C313     1.0000 0.50120  0.86467  0.99878  Biso   1.000  C
  H284     1.0000 0.54070  0.86670  0.02530  Biso   1.000  H
  C314     1.0000 0.66450  0.89655  0.89140  Biso   1.000  C
  H285     1.0000 0.71420  0.87360  0.89610  Biso   1.000  H
  H286     1.0000 0.67710  0.91460  0.91560  Biso   1.000  H
  C315     1.0000 0.69230  0.91692  0.85284  Biso   1.000  C
  H287     1.0000 0.77180  0.92400  0.85500  Biso   1.000  H
  H288     1.0000 0.64890  0.94160  0.85000  Biso   1.000  H
  C316     1.0000 0.58200  0.86440  0.81709  Biso   1.000  C
  H289     1.0000 0.54610  0.86070  0.78870  Biso   1.000  H
  H290     1.0000 0.61360  0.83880  0.82660  Biso   1.000  H
  C317     1.0000 0.49670  0.87737  0.84651  Biso   1.000  C
  H291     1.0000 0.43780  0.85720  0.84730  Biso   1.000  H
  H292     1.0000 0.46230  0.90230  0.83630  Biso   1.000  H
  C318     1.0000 0.72550  0.89841  0.78020  Biso   1.000  C
  C319     1.0000 0.71460  0.87319  0.74595  Biso   1.000  C
  H293     1.0000 0.66660  0.85110  0.74650  Biso   1.000  H
  C320     1.0000 0.77300  0.88009  0.71144  Biso   1.000  C
  H294     1.0000 0.76580  0.86170  0.68900  Biso   1.000  H
  C321     1.0000 0.84860  0.93544  0.74052  Biso   1.000  C
  H295     1.0000 0.89530  0.95780  0.73900  Biso   1.000  H
  C322     1.0000 0.79550  0.93017  0.77610  Biso   1.000  C
  H296     1.0000 0.80640  0.94840  0.79850  Biso   1.000  H
  C323     1.0000 0.08900  0.83496  0.01608  Biso   1.000  C
  H297     1.0000 0.10130  0.86240  0.01290  Biso   1.000  H
  C324     1.0000 0.98620  0.82067  0.00622  Biso   1.000  C
  H298     1.0000 0.92920  0.83800  0.99580  Biso   1.000  H
  C325     1.0000 0.96280  0.78034  0.01123  Biso   1.000  C
  C326     1.0000 0.05310  0.75735  0.02488  Biso   1.000  C
  H299     1.0000 0.04380  0.72980  0.02820  Biso   1.000  H
  C327     1.0000 0.15360  0.77360  0.03343  Biso   1.000  C
  H300     1.0000 0.21310  0.75670  0.04230  Biso   1.000  H
  C328     1.0000 0.83690  0.72435  0.01080  Biso   1.000  C
  H301     1.0000 0.87370  0.71730  0.03830  Biso   1.000  H
  H302     1.0000 0.87410  0.70910  0.98930  Biso   1.000  H
  C329     1.0000 0.76540  0.78820  0.98940  Biso   1.000  C
  H303     1.0000 0.77770  0.79600  0.96020  Biso   1.000  H
  H304     1.0000 0.76870  0.81270  0.00620  Biso   1.000  H
  C330     1.0000 0.49490  0.78992  0.08589  Biso   1.000  C
  C331     1.0000 0.54960  0.75428  0.10551  Biso   1.000  C
  C332     1.0000 0.65810  0.75602  0.12189  Biso   1.000  C
  H305     1.0000 0.69960  0.77960  0.12020  Biso   1.000  H
  C333     1.0000 0.70600  0.72231  0.14115  Biso   1.000  C
  H306     1.0000 0.78100  0.72280  0.15200  Biso   1.000  H
  C334     1.0000 0.64390  0.68880  0.14418  Biso   1.000  C
  H307     1.0000 0.67590  0.66650  0.15820  Biso   1.000  H
  C335     1.0000 0.53840  0.68666  0.12773  Biso   1.000  C
  C336     1.0000 0.49170  0.71941  0.10860  Biso   1.000  C
  H308     1.0000 0.41740  0.71810  0.09720  Biso   1.000  H
  C337     1.0000 0.47130  0.65007  0.13255  Biso   1.000  C
  C338     1.0000 0.25060  0.89904  0.08905  Biso   1.000  C
  C339     1.0000 0.20450  0.91933  0.12629  Biso   1.000  C
  C340     1.0000 0.20420  0.90149  0.16550  Biso   1.000  C
  H309     1.0000 0.23880  0.87660  0.17010  Biso   1.000  H
  C341     1.0000 0.15350  0.92005  0.19777  Biso   1.000  C
  H310     1.0000 0.15270  0.90760  0.22440  Biso   1.000  H
  C342     1.0000 0.10430  0.95622  0.19182  Biso   1.000  C
  H311     1.0000 0.06960  0.96860  0.21420  Biso   1.000  H
  C343     1.0000 0.10520  0.97479  0.15295  Biso   1.000  C
  C344     1.0000 0.15560  0.95618  0.12095  Biso   1.000  C
  H312     1.0000 0.15710  0.96890  0.09450  Biso   1.000  H
  C345     1.0000 0.04910  0.01327  0.14570  Biso   1.000  C
  C346     1.0000 0.71110  0.04239  0.12410  Biso   1.000  C
  H313     1.0000 0.70510  0.03770  0.15320  Biso   1.000  H
  C347     1.0000 0.62370  0.03147  0.09751  Biso   1.000  C
  H314     1.0000 0.55970  0.01990  0.10810  Biso   1.000  H
  C348     1.0000 0.62970  0.03754  0.05441  Biso   1.000  C
  C349     1.0000 0.72830  0.05372  0.04187  Biso   1.000  C
  H315     1.0000 0.73860  0.05730  0.01290  Biso   1.000  H
  C350     1.0000 0.81050  0.06448  0.07120  Biso   1.000  C
  H316     1.0000 0.87530  0.07640  0.06150  Biso   1.000  H
  C351     1.0000 0.54670  0.03249  0.98065  Biso   1.000  C
  H317     1.0000 0.61240  0.04810  0.97400  Biso   1.000  H
  H318     1.0000 0.47990  0.04580  0.96810  Biso   1.000  H
  C352     1.0000 0.44540  0.00640  0.03651  Biso   1.000  C
  H319     1.0000 0.37670  0.01920  0.02480  Biso   1.000  H
  H320     1.0000 0.44140  0.00470  0.06730  Biso   1.000  H
