data_image0
_cell_length_a       103.768
_cell_length_b       97.9187
_cell_length_c       133.967
_cell_angle_alpha    108.155
_cell_angle_beta     109.251
_cell_angle_gamma    62.074

_symmetry_space_group_name_H-M    "P 1"
_symmetry_int_tables_number       1

loop_
  _symmetry_equiv_pos_as_xyz
  'x, y, z'

loop_
  _atom_site_label
  _atom_site_occupancy
  _atom_site_fract_x
  _atom_site_fract_y
  _atom_site_fract_z
  _atom_site_thermal_displace_type
  _atom_site_B_iso_or_equiv
  _atom_site_type_symbol
  C1       1.0000 0.98052  0.97252  0.46177  Biso   1.000  C
  C2       1.0000 0.37862  0.47035  0.59739  Biso   1.000  C
  C3       1.0000 0.25285  0.16310  0.02448  Biso   1.000  C
  C4       1.0000 0.55943  0.09918  0.05939  Biso   1.000  C
  C5       1.0000 0.92656  0.96386  0.12735  Biso   1.000  C
  C6       1.0000 0.13738  0.80313  0.47876  Biso   1.000  C
  C7       1.0000 0.55133  0.10934  0.05205  Biso   1.000  C
  C8       1.0000 0.55035  0.10371  0.04107  Biso   1.000  C
  C9       1.0000 0.55769  0.08764  0.03765  Biso   1.000  C
  C10      1.0000 0.56579  0.07749  0.04499  Biso   1.000  C
  C11      1.0000 0.56677  0.08312  0.05596  Biso   1.000  C
  C12      1.0000 0.59884  0.03676  0.07447  Biso   1.000  C
  C13      1.0000 0.60695  0.02659  0.08181  Biso   1.000  C
  C14      1.0000 0.23794  0.16895  0.02500  Biso   1.000  C
  C15      1.0000 0.60748  0.03212  0.09274  Biso   1.000  C
  C16      1.0000 0.59968  0.04810  0.09615  Biso   1.000  C
  C17      1.0000 0.59157  0.05827  0.08881  Biso   1.000  C
  C18      1.0000 0.21111  0.64823  0.47500  Biso   1.000  C
  C19      1.0000 0.59103  0.05274  0.07788  Biso   1.000  C
  C20      1.0000 0.54185  0.11440  0.03332  Biso   1.000  C
  C21      1.0000 0.53482  0.12325  0.02681  Biso   1.000  C
  C22      1.0000 0.61601  0.02140  0.10048  Biso   1.000  C
  C23      1.0000 0.62309  0.01251  0.10697  Biso   1.000  C
  C24      1.0000 0.53189  0.13114  0.01002  Biso   1.000  C
  C25      1.0000 0.78679  0.85850  0.27692  Biso   1.000  C
  C26      1.0000 0.52401  0.14091  0.00243  Biso   1.000  C
  C27      1.0000 0.51044  0.15363  0.00351  Biso   1.000  C
  C28      1.0000 0.50507  0.15626  0.01247  Biso   1.000  C
  C29      1.0000 0.51299  0.14644  0.02006  Biso   1.000  C
  C30      1.0000 0.20940  0.63642  0.47475  Biso   1.000  C
  C31      1.0000 0.52649  0.13373  0.01892  Biso   1.000  C
  C32      1.0000 0.64503  0.98934  0.11365  Biso   1.000  C
  C33      1.0000 0.65330  0.97905  0.12173  Biso   1.000  C
  C34      1.0000 0.64779  0.98171  0.13065  Biso   1.000  C
  C35      1.0000 0.63413  0.99438  0.13172  Biso   1.000  C
  C36      1.0000 0.22737  0.17288  0.01562  Biso   1.000  C
  C37      1.0000 0.62603  0.00431  0.12422  Biso   1.000  C
  C38      1.0000 0.63152  0.00193  0.11480  Biso   1.000  C
  C39      1.0000 0.08385  0.56306  0.56337  Biso   1.000  C
  C40      1.0000 0.07541  0.56931  0.56979  Biso   1.000  C
  C41      1.0000 0.09626  0.56438  0.55048  Biso   1.000  C
  C42      1.0000 0.32593  0.72058  0.47849  Biso   1.000  C
  C43      1.0000 0.10581  0.55730  0.54320  Biso   1.000  C
  C44      1.0000 0.11360  0.54103  0.54072  Biso   1.000  C
  C45      1.0000 0.11137  0.53218  0.54586  Biso   1.000  C
  C46      1.0000 0.10182  0.53925  0.55313  Biso   1.000  C
  C47      1.0000 0.23147  0.17088  0.00611  Biso   1.000  C
  C48      1.0000 0.09403  0.55552  0.55562  Biso   1.000  C
  C49      1.0000 0.06352  0.56805  0.58305  Biso   1.000  C
  C50      1.0000 0.05397  0.57512  0.59032  Biso   1.000  C
  C51      1.0000 0.04565  0.59134  0.59244  Biso   1.000  C
  C52      1.0000 0.04736  0.60014  0.58693  Biso   1.000  C
  C53      1.0000 0.05691  0.59307  0.57966  Biso   1.000  C
  C54      1.0000 0.34039  0.71838  0.47844  Biso   1.000  C
  C55      1.0000 0.06523  0.57685  0.57754  Biso   1.000  C
  C56      1.0000 0.12378  0.53348  0.53296  Biso   1.000  C
  C57      1.0000 0.13221  0.52722  0.52654  Biso   1.000  C
  C58      1.0000 0.24639  0.16479  0.00544  Biso   1.000  C
  C59      1.0000 0.03547  0.59888  0.60019  Biso   1.000  C
  C60      1.0000 0.02703  0.60515  0.60662  Biso   1.000  C
  C61      1.0000 0.15497  0.50554  0.51981  Biso   1.000  C
  C62      1.0000 0.16443  0.49832  0.51247  Biso   1.000  C
  C63      1.0000 0.16180  0.50484  0.50371  Biso   1.000  C
  C64      1.0000 0.14921  0.51901  0.50272  Biso   1.000  C
  C65      1.0000 0.13976  0.52621  0.51007  Biso   1.000  C
  C66      1.0000 0.35176  0.70346  0.47636  Biso   1.000  C
  C67      1.0000 0.14238  0.51964  0.51877  Biso   1.000  C
  C68      1.0000 0.00421  0.62678  0.61325  Biso   1.000  C
  C69      1.0000 0.28639  0.17293  0.99163  Biso   1.000  C
  C70      1.0000 0.99410  0.63452  0.62095  Biso   1.000  C
  C71      1.0000 0.99680  0.62796  0.62968  Biso   1.000  C
  C72      1.0000 0.01024  0.61305  0.63053  Biso   1.000  C
  C73      1.0000 0.01958  0.60611  0.62310  Biso   1.000  C
  C74      1.0000 0.01685  0.61273  0.61437  Biso   1.000  C
  C75      1.0000 0.15274  0.61702  0.74289  Biso   1.000  C
  C76      1.0000 0.13965  0.61988  0.73742  Biso   1.000  C
  C77      1.0000 0.18089  0.60729  0.74480  Biso   1.000  C
  C78      1.0000 0.34782  0.69086  0.47433  Biso   1.000  C
  C79      1.0000 0.19566  0.60406  0.75096  Biso   1.000  C
  C80      1.0000 0.29886  0.17471  0.99107  Biso   1.000  C
  C81      1.0000 0.19908  0.60689  0.76222  Biso   1.000  C
  C82      1.0000 0.18679  0.61316  0.76693  Biso   1.000  C
  C83      1.0000 0.17201  0.61640  0.76077  Biso   1.000  C
  C84      1.0000 0.16859  0.61356  0.74950  Biso   1.000  C
  C85      1.0000 0.11147  0.62975  0.73550  Biso   1.000  C
  C86      1.0000 0.09670  0.63297  0.72933  Biso   1.000  C
  C87      1.0000 0.09332  0.62996  0.71806  Biso   1.000  C
  C88      1.0000 0.10564  0.62354  0.71336  Biso   1.000  C
  C89      1.0000 0.12041  0.62033  0.71953  Biso   1.000  C
  C90      1.0000 0.33336  0.69305  0.47438  Biso   1.000  C
  C91      1.0000 0.30624  0.16644  0.98263  Biso   1.000  C
  C92      1.0000 0.12379  0.62333  0.73080  Biso   1.000  C
  C93      1.0000 0.21494  0.60339  0.76883  Biso   1.000  C
  C94      1.0000 0.22806  0.60044  0.77427  Biso   1.000  C
  C95      1.0000 0.07747  0.63339  0.71143  Biso   1.000  C
  C96      1.0000 0.06440  0.63619  0.70595  Biso   1.000  C
  C97      1.0000 0.24805  0.60751  0.78941  Biso   1.000  C
  C98      1.0000 0.26294  0.60394  0.79547  Biso   1.000  C
  C99      1.0000 0.27472  0.58933  0.79328  Biso   1.000  C
  C100     1.0000 0.27060  0.57859  0.78464  Biso   1.000  C
  C101     1.0000 0.25574  0.58218  0.77861  Biso   1.000  C
  C102     1.0000 0.30050  0.15629  0.97476  Biso   1.000  C
  C103     1.0000 0.32199  0.70798  0.47646  Biso   1.000  C
  C104     1.0000 0.24399  0.59673  0.78079  Biso   1.000  C
  C105     1.0000 0.04482  0.62787  0.69141  Biso   1.000  C
  C106     1.0000 0.03014  0.63088  0.68512  Biso   1.000  C
  C107     1.0000 0.01825  0.64571  0.68628  Biso   1.000  C
  C108     1.0000 0.02203  0.65735  0.69417  Biso   1.000  C
  C109     1.0000 0.03674  0.65431  0.70046  Biso   1.000  C
  C110     1.0000 0.04859  0.63948  0.69926  Biso   1.000  C
  C111     1.0000 0.53068  0.99610  0.88683  Biso   1.000  C
  C112     1.0000 0.52592  0.01186  0.89345  Biso   1.000  C
  C113     1.0000 0.39004  0.47167  0.60670  Biso   1.000  C
  C114     1.0000 0.28803  0.15451  0.97528  Biso   1.000  C
  C115     1.0000 0.54255  0.96664  0.88461  Biso   1.000  C
  C116     1.0000 0.19316  0.62282  0.47319  Biso   1.000  C
  C117     1.0000 0.54712  0.95152  0.87826  Biso   1.000  C
  C118     1.0000 0.54485  0.94925  0.86714  Biso   1.000  C
  C119     1.0000 0.53783  0.96267  0.86262  Biso   1.000  C
  C120     1.0000 0.53326  0.97779  0.86897  Biso   1.000  C
  C121     1.0000 0.53553  0.98007  0.88009  Biso   1.000  C
  C122     1.0000 0.51267  0.04129  0.89564  Biso   1.000  C
  C123     1.0000 0.50816  0.05640  0.90201  Biso   1.000  C
  C124     1.0000 0.51189  0.05868  0.91320  Biso   1.000  C
  C125     1.0000 0.28053  0.16278  0.98374  Biso   1.000  C
  C126     1.0000 0.52031  0.04527  0.91776  Biso   1.000  C
  C127     1.0000 0.52483  0.03016  0.91138  Biso   1.000  C
  C128     1.0000 0.00931  0.92576  0.48185  Biso   1.000  C
  C129     1.0000 0.93069  0.96183  0.11785  Biso   1.000  C
  C130     1.0000 0.19114  0.60947  0.47287  Biso   1.000  C
  C131     1.0000 0.52110  0.02788  0.90020  Biso   1.000  C
  C132     1.0000 0.54970  0.93321  0.86041  Biso   1.000  C
  C133     1.0000 0.55371  0.91989  0.85481  Biso   1.000  C
  C134     1.0000 0.50722  0.07468  0.91998  Biso   1.000  C
  C135     1.0000 0.50350  0.08794  0.92569  Biso   1.000  C
  C136     1.0000 0.23335  0.17093  0.03500  Biso   1.000  C
  C137     1.0000 0.57296  0.89248  0.85044  Biso   1.000  C
  C138     1.0000 0.57746  0.87732  0.84414  Biso   1.000  C
  C139     1.0000 0.56766  0.87290  0.83519  Biso   1.000  C
  C140     1.0000 0.55319  0.88435  0.83283  Biso   1.000  C
  C141     1.0000 0.54873  0.89951  0.83914  Biso   1.000  C
  C142     1.0000 0.20314  0.59494  0.47378  Biso   1.000  C
  C143     1.0000 0.55851  0.90386  0.84808  Biso   1.000  C
  C144     1.0000 0.51005  0.10773  0.94092  Biso   1.000  C
  C145     1.0000 0.50637  0.12252  0.94766  Biso   1.000  C
  C146     1.0000 0.49180  0.13409  0.94650  Biso   1.000  C
  C147     1.0000 0.91353  0.97984  0.15839  Biso   1.000  C
  C148     1.0000 0.48105  0.13016  0.93823  Biso   1.000  C
  C149     1.0000 0.48478  0.11528  0.93146  Biso   1.000  C
  C150     1.0000 0.49936  0.10378  0.93270  Biso   1.000  C
  C151     1.0000 0.13643  0.12176  0.74301  Biso   1.000  C
  C152     1.0000 0.14117  0.12481  0.73719  Biso   1.000  C
  C153     1.0000 0.11772  0.11571  0.74609  Biso   1.000  C
  C154     1.0000 0.21724  0.59434  0.47502  Biso   1.000  C
  C155     1.0000 0.11230  0.11219  0.75271  Biso   1.000  C
  C156     1.0000 0.11984  0.11107  0.76326  Biso   1.000  C
  C157     1.0000 0.13285  0.11351  0.76711  Biso   1.000  C
  C158     1.0000 0.77914  0.86415  0.26861  Biso   1.000  C
  C159     1.0000 0.13826  0.11703  0.76050  Biso   1.000  C
  C160     1.0000 0.13073  0.11813  0.74994  Biso   1.000  C
  C161     1.0000 0.15988  0.13061  0.73383  Biso   1.000  C
  C162     1.0000 0.16507  0.13422  0.72711  Biso   1.000  C
  C163     1.0000 0.15716  0.13570  0.71666  Biso   1.000  C
  C164     1.0000 0.14403  0.13352  0.71302  Biso   1.000  C
  C165     1.0000 0.13884  0.12992  0.71973  Biso   1.000  C
  C166     1.0000 0.21926  0.60770  0.47534  Biso   1.000  C
  C167     1.0000 0.14671  0.12846  0.73018  Biso   1.000  C
  C168     1.0000 0.11433  0.10723  0.77020  Biso   1.000  C
  C169     1.0000 0.22928  0.17263  0.04320  Biso   1.000  C
  C170     1.0000 0.10998  0.10391  0.77612  Biso   1.000  C
  C171     1.0000 0.16231  0.13973  0.70960  Biso   1.000  C
  C172     1.0000 0.16608  0.14327  0.70343  Biso   1.000  C
  C173     1.0000 0.11517  0.09472  0.79261  Biso   1.000  C
  C174     1.0000 0.11097  0.09040  0.79953  Biso   1.000  C
  C175     1.0000 0.09669  0.09104  0.79733  Biso   1.000  C
  C176     1.0000 0.08666  0.09624  0.78808  Biso   1.000  C
  C177     1.0000 0.09094  0.10056  0.78116  Biso   1.000  C
  C178     1.0000 0.20726  0.62223  0.47443  Biso   1.000  C
  C179     1.0000 0.10524  0.09976  0.78337  Biso   1.000  C
  C180     1.0000 0.20303  0.13726  0.93665  Biso   1.000  C
  C181     1.0000 0.18419  0.14511  0.69616  Biso   1.000  C
  C182     1.0000 0.18729  0.14935  0.68851  Biso   1.000  C
  C183     1.0000 0.17589  0.15627  0.68029  Biso   1.000  C
  C184     1.0000 0.16141  0.15894  0.67997  Biso   1.000  C
  C185     1.0000 0.15838  0.15473  0.68759  Biso   1.000  C
  C186     1.0000 0.16970  0.14776  0.69570  Biso   1.000  C
  C187     1.0000 0.52024  0.51206  0.89605  Biso   1.000  C
  C188     1.0000 0.50710  0.51629  0.89045  Biso   1.000  C
  C189     1.0000 0.54868  0.50119  0.89846  Biso   1.000  C
  C190     1.0000 0.12111  0.83255  0.48119  Biso   1.000  C
  C191     1.0000 0.19408  0.13349  0.92883  Biso   1.000  C
  C192     1.0000 0.56349  0.49642  0.90478  Biso   1.000  C
  C193     1.0000 0.56675  0.49707  0.91588  Biso   1.000  C
  C194     1.0000 0.55422  0.50281  0.92025  Biso   1.000  C
  C195     1.0000 0.53941  0.50759  0.91394  Biso   1.000  C
  C196     1.0000 0.53615  0.50693  0.90283  Biso   1.000  C
  C197     1.0000 0.47868  0.52701  0.88803  Biso   1.000  C
  C198     1.0000 0.46386  0.53177  0.88172  Biso   1.000  C
  C199     1.0000 0.46058  0.53126  0.87064  Biso   1.000  C
  C200     1.0000 0.47309  0.52567  0.86628  Biso   1.000  C
  C201     1.0000 0.48790  0.52090  0.87259  Biso   1.000  C
  C202     1.0000 0.31954  0.16836  0.98203  Biso   1.000  C
  C203     1.0000 0.10721  0.84557  0.48152  Biso   1.000  C
  C204     1.0000 0.49119  0.52141  0.88367  Biso   1.000  C
  C205     1.0000 0.58266  0.49192  0.92268  Biso   1.000  C
  C206     1.0000 0.59576  0.48765  0.92832  Biso   1.000  C
  C207     1.0000 0.44466  0.53639  0.86386  Biso   1.000  C
  C208     1.0000 0.43152  0.54061  0.85827  Biso   1.000  C
  C209     1.0000 0.62288  0.48525  0.93387  Biso   1.000  C
  C210     1.0000 0.63756  0.48042  0.94043  Biso   1.000  C
  C211     1.0000 0.64190  0.47237  0.94880  Biso   1.000  C
  C212     1.0000 0.63057  0.46951  0.95011  Biso   1.000  C
  C213     1.0000 0.33054  0.16994  0.98152  Biso   1.000  C
  C214     1.0000 0.61595  0.47434  0.94356  Biso   1.000  C
  C215     1.0000 0.09399  0.84384  0.47982  Biso   1.000  C
  C216     1.0000 0.61159  0.48240  0.93524  Biso   1.000  C
  C217     1.0000 0.40435  0.54383  0.85377  Biso   1.000  C
  C218     1.0000 0.38952  0.54859  0.84751  Biso   1.000  C
  C219     1.0000 0.38491  0.55558  0.83854  Biso   1.000  C
  C220     1.0000 0.39619  0.55747  0.83629  Biso   1.000  C
  C221     1.0000 0.41103  0.55269  0.84256  Biso   1.000  C
  C222     1.0000 0.41559  0.54572  0.85151  Biso   1.000  C
  C223     1.0000 0.58327  0.56161  0.56994  Biso   1.000  C
  C224     1.0000 0.38697  0.48149  0.61660  Biso   1.000  C
  C225     1.0000 0.21021  0.17548  0.05234  Biso   1.000  C
  C226     1.0000 0.57532  0.57085  0.56373  Biso   1.000  C
  C227     1.0000 0.59276  0.55504  0.58829  Biso   1.000  C
  C228     1.0000 0.09543  0.82837  0.47778  Biso   1.000  C
  C229     1.0000 0.60179  0.54453  0.59535  Biso   1.000  C
  C230     1.0000 0.61114  0.52918  0.59173  Biso   1.000  C
  C231     1.0000 0.61120  0.52465  0.58084  Biso   1.000  C
  C232     1.0000 0.60217  0.53516  0.57378  Biso   1.000  C
  C233     1.0000 0.59281  0.55051  0.57740  Biso   1.000  C
  C234     1.0000 0.56616  0.57757  0.54544  Biso   1.000  C
  C235     1.0000 0.55714  0.58808  0.53838  Biso   1.000  C
  C236     1.0000 0.20539  0.17748  0.06155  Biso   1.000  C
  C237     1.0000 0.54746  0.60329  0.54195  Biso   1.000  C
  C238     1.0000 0.54707  0.60766  0.55278  Biso   1.000  C
  C239     1.0000 0.55609  0.59715  0.55984  Biso   1.000  C
  C240     1.0000 0.10933  0.81534  0.47745  Biso   1.000  C
  C241     1.0000 0.56578  0.58194  0.55627  Biso   1.000  C
  C242     1.0000 0.62063  0.51807  0.59918  Biso   1.000  C
  C243     1.0000 0.62850  0.50881  0.60539  Biso   1.000  C
  C244     1.0000 0.53798  0.61441  0.53450  Biso   1.000  C
  C245     1.0000 0.53014  0.62370  0.52831  Biso   1.000  C
  C246     1.0000 0.63566  0.48432  0.61173  Biso   1.000  C
  C247     1.0000 0.21436  0.17880  0.07184  Biso   1.000  C
  C248     1.0000 0.64428  0.47393  0.61890  Biso   1.000  C
  C249     1.0000 0.65544  0.47653  0.62744  Biso   1.000  C
  C250     1.0000 0.65771  0.48988  0.62848  Biso   1.000  C
  C251     1.0000 0.64906  0.50026  0.62129  Biso   1.000  C
  C252     1.0000 0.92015  0.96580  0.10847  Biso   1.000  C
  C253     1.0000 0.12255  0.81708  0.47914  Biso   1.000  C
  C254     1.0000 0.63786  0.49768  0.61284  Biso   1.000  C
  C255     1.0000 0.50957  0.63240  0.51243  Biso   1.000  C
  C256     1.0000 0.50098  0.64285  0.50527  Biso   1.000  C
  C257     1.0000 0.50336  0.65614  0.50636  Biso   1.000  C
  C258     1.0000 0.22836  0.17803  0.07251  Biso   1.000  C
  C259     1.0000 0.51457  0.65863  0.51490  Biso   1.000  C
  C260     1.0000 0.52313  0.64818  0.52204  Biso   1.000  C
  C261     1.0000 0.52083  0.63487  0.52088  Biso   1.000  C
  C262     1.0000 0.07632  0.06307  0.06390  Biso   1.000  C
  C263     1.0000 0.08364  0.07106  0.06961  Biso   1.000  C
  C264     1.0000 0.07089  0.04311  0.04739  Biso   1.000  C
  C265     1.0000 0.36722  0.70112  0.47629  Biso   1.000  C
  C266     1.0000 0.06262  0.03409  0.04095  Biso   1.000  C
  C267     1.0000 0.05042  0.03480  0.04371  Biso   1.000  C
  C268     1.0000 0.04699  0.04509  0.05332  Biso   1.000  C
  C269     1.0000 0.23318  0.17604  0.06330  Biso   1.000  C
  C270     1.0000 0.05526  0.05411  0.05977  Biso   1.000  C
  C271     1.0000 0.06746  0.05340  0.05700  Biso   1.000  C
  C272     1.0000 0.08895  0.09119  0.08605  Biso   1.000  C
  C273     1.0000 0.09721  0.10020  0.09249  Biso   1.000  C
  C274     1.0000 0.10953  0.09934  0.08980  Biso   1.000  C
  C275     1.0000 0.11308  0.08890  0.08026  Biso   1.000  C
  C276     1.0000 0.10482  0.07988  0.07382  Biso   1.000  C
  C277     1.0000 0.37998  0.69928  0.47623  Biso   1.000  C
  C278     1.0000 0.09250  0.08074  0.07651  Biso   1.000  C
  C279     1.0000 0.04154  0.02516  0.03679  Biso   1.000  C
  C280     1.0000 0.83161  0.74631  0.32384  Biso   1.000  C
  C281     1.0000 0.03418  0.01722  0.03105  Biso   1.000  C
  C282     1.0000 0.11841  0.10899  0.09672  Biso   1.000  C
  C283     1.0000 0.12575  0.11695  0.10245  Biso   1.000  C
  C284     1.0000 0.02801  0.99226  0.02584  Biso   1.000  C
  C285     1.0000 0.01963  0.98341  0.01925  Biso   1.000  C
  C286     1.0000 0.00795  0.98861  0.01050  Biso   1.000  C
  C287     1.0000 0.00514  0.00409  0.00874  Biso   1.000  C
  C288     1.0000 0.01353  0.01291  0.01532  Biso   1.000  C
  C289     1.0000 0.07914  0.85777  0.48016  Biso   1.000  C
  C290     1.0000 0.02520  0.00771  0.02405  Biso   1.000  C
  C291     1.0000 0.22421  0.17472  0.05301  Biso   1.000  C
  C292     1.0000 0.14632  0.12138  0.11821  Biso   1.000  C
  C293     1.0000 0.15460  0.13029  0.12481  Biso   1.000  C
  C294     1.0000 0.15183  0.14490  0.12307  Biso   1.000  C
  C295     1.0000 0.14020  0.15001  0.11427  Biso   1.000  C
  C296     1.0000 0.13191  0.14108  0.10766  Biso   1.000  C
  C297     1.0000 0.13469  0.12650  0.10944  Biso   1.000  C
  C298     1.0000 0.02860  0.00635  0.90202  Biso   1.000  C
  C299     1.0000 0.03279  0.01075  0.89661  Biso   1.000  C
  C300     1.0000 0.01776  0.01139  0.91728  Biso   1.000  C
  C301     1.0000 0.06689  0.86935  0.48044  Biso   1.000  C
  C302     1.0000 0.34760  0.16891  0.97111  Biso   1.000  C
  C303     1.0000 0.01297  0.00648  0.92352  Biso   1.000  C
  C304     1.0000 0.01400  0.99040  0.92096  Biso   1.000  C
  C305     1.0000 0.01983  0.98017  0.91221  Biso   1.000  C
  C306     1.0000 0.02461  0.98509  0.90597  Biso   1.000  C
  C307     1.0000 0.02358  0.00117  0.90853  Biso   1.000  C
  C308     1.0000 0.04328  0.00608  0.88123  Biso   1.000  C
  C309     1.0000 0.04803  0.01117  0.87508  Biso   1.000  C
  C310     1.0000 0.04733  0.02630  0.87777  Biso   1.000  C
  C311     1.0000 0.04182  0.03627  0.88670  Biso   1.000  C
  C312     1.0000 0.03707  0.03118  0.89286  Biso   1.000  C
  C313     1.0000 0.36004  0.17070  0.97052  Biso   1.000  C
  C314     1.0000 0.20103  0.58072  0.47343  Biso   1.000  C
  C315     1.0000 0.03777  0.01606  0.89016  Biso   1.000  C
  C316     1.0000 0.00904  0.98528  0.92754  Biso   1.000  C
  C317     1.0000 0.00488  0.98112  0.93313  Biso   1.000  C
  C318     1.0000 0.05226  0.03164  0.87131  Biso   1.000  C
  C319     1.0000 0.05637  0.03611  0.86589  Biso   1.000  C
  C320     1.0000 0.00310  0.95997  0.93906  Biso   1.000  C
  C321     1.0000 0.99838  0.95585  0.94647  Biso   1.000  C
  C322     1.0000 0.99090  0.96755  0.95411  Biso   1.000  C
  C323     1.0000 0.98785  0.98314  0.95451  Biso   1.000  C
  C324     1.0000 0.36938  0.17552  0.97967  Biso   1.000  C
  C325     1.0000 0.99224  0.98744  0.94763  Biso   1.000  C
  C326     1.0000 0.19939  0.56885  0.47315  Biso   1.000  C
  C327     1.0000 0.99991  0.97640  0.93994  Biso   1.000  C
  C328     1.0000 0.06755  0.03118  0.85084  Biso   1.000  C
  C329     1.0000 0.07204  0.03627  0.84453  Biso   1.000  C
  C330     1.0000 0.07029  0.05178  0.84664  Biso   1.000  C
  C331     1.0000 0.06401  0.06202  0.85526  Biso   1.000  C
  C332     1.0000 0.05953  0.05687  0.86155  Biso   1.000  C
  C333     1.0000 0.06123  0.04144  0.85937  Biso   1.000  C
  C334     1.0000 0.63562  0.61999  0.73541  Biso   1.000  C
  C335     1.0000 0.44972  0.48576  0.64656  Biso   1.000  C
  C336     1.0000 0.36561  0.17844  0.98945  Biso   1.000  C
  C337     1.0000 0.63199  0.63353  0.74086  Biso   1.000  C
  C338     1.0000 0.63984  0.59144  0.73193  Biso   1.000  C
  C339     1.0000 0.39792  0.70972  0.47557  Biso   1.000  C
  C340     1.0000 0.64396  0.57611  0.72574  Biso   1.000  C
  C341     1.0000 0.64845  0.57228  0.71614  Biso   1.000  C
  C342     1.0000 0.64862  0.58451  0.71303  Biso   1.000  C
  C343     1.0000 0.64450  0.59984  0.71922  Biso   1.000  C
  C344     1.0000 0.64001  0.60367  0.72882  Biso   1.000  C
  C345     1.0000 0.62752  0.66213  0.74419  Biso   1.000  C
  C346     1.0000 0.62341  0.67747  0.75037  Biso   1.000  C
  C347     1.0000 0.35317  0.17666  0.99004  Biso   1.000  C
  C348     1.0000 0.61921  0.68128  0.76008  Biso   1.000  C
  C349     1.0000 0.61930  0.66901  0.76333  Biso   1.000  C
  C350     1.0000 0.62341  0.65367  0.75715  Biso   1.000  C
  C351     1.0000 0.41218  0.70803  0.47553  Biso   1.000  C
  C352     1.0000 0.62762  0.64987  0.74744  Biso   1.000  C
  C353     1.0000 0.65287  0.55597  0.70954  Biso   1.000  C
  C354     1.0000 0.65656  0.54248  0.70401  Biso   1.000  C
  C355     1.0000 0.61484  0.69761  0.76665  Biso   1.000  C
  C356     1.0000 0.61122  0.71117  0.77208  Biso   1.000  C
  C357     1.0000 0.66871  0.52211  0.68918  Biso   1.000  C
  C358     1.0000 0.34383  0.17185  0.98089  Biso   1.000  C
  C359     1.0000 0.67292  0.50705  0.68267  Biso   1.000  C
  C360     1.0000 0.66977  0.49532  0.68386  Biso   1.000  C
  C361     1.0000 0.66220  0.49948  0.69197  Biso   1.000  C
  C362     1.0000 0.65798  0.51462  0.69849  Biso   1.000  C
  C363     1.0000 0.42480  0.69375  0.47607  Biso   1.000  C
  C364     1.0000 0.66111  0.52629  0.69722  Biso   1.000  C
  C365     1.0000 0.60883  0.73913  0.77611  Biso   1.000  C
  C366     1.0000 0.60475  0.75452  0.78219  Biso   1.000  C
  C367     1.0000 0.59850  0.75910  0.79110  Biso   1.000  C
  C368     1.0000 0.59656  0.74745  0.79359  Biso   1.000  C
  C369     1.0000 0.17220  0.12585  0.92083  Biso   1.000  C
  C370     1.0000 0.60065  0.73205  0.78749  Biso   1.000  C
  C371     1.0000 0.60688  0.72753  0.77860  Biso   1.000  C
  C372     1.0000 0.13091  0.12985  0.23263  Biso   1.000  C
  C373     1.0000 0.12677  0.12547  0.23809  Biso   1.000  C
  C374     1.0000 0.12800  0.14996  0.22371  Biso   1.000  C
  C375     1.0000 0.90522  0.97170  0.10897  Biso   1.000  C
  C376     1.0000 0.42223  0.68124  0.47665  Biso   1.000  C
  C377     1.0000 0.13273  0.15483  0.21741  Biso   1.000  C
  C378     1.0000 0.14544  0.14481  0.21341  Biso   1.000  C
  C379     1.0000 0.15334  0.12987  0.21582  Biso   1.000  C
  C380     1.0000 0.16192  0.12169  0.91202  Biso   1.000  C
  C381     1.0000 0.14861  0.12501  0.22212  Biso   1.000  C
  C382     1.0000 0.13590  0.13501  0.22610  Biso   1.000  C
  C383     1.0000 0.12922  0.10486  0.24630  Biso   1.000  C
  C384     1.0000 0.12453  0.09981  0.25251  Biso   1.000  C
  C385     1.0000 0.11240  0.11001  0.25711  Biso   1.000  C
  C386     1.0000 0.10502  0.12534  0.25541  Biso   1.000  C
  C387     1.0000 0.10971  0.13040  0.24920  Biso   1.000  C
  C388     1.0000 0.40791  0.68296  0.47669  Biso   1.000  C
  C389     1.0000 0.12184  0.12019  0.24460  Biso   1.000  C
  C390     1.0000 0.15031  0.14977  0.20668  Biso   1.000  C
  C391     1.0000 0.16219  0.12053  0.90147  Biso   1.000  C
  C392     1.0000 0.15444  0.15368  0.20093  Biso   1.000  C
  C393     1.0000 0.10750  0.10471  0.26363  Biso   1.000  C
  C394     1.0000 0.10345  0.10026  0.26909  Biso   1.000  C
  C395     1.0000 0.16716  0.14646  0.18637  Biso   1.000  C
  C396     1.0000 0.17159  0.15036  0.17934  Biso   1.000  C
  C397     1.0000 0.16838  0.16592  0.17969  Biso   1.000  C
  C398     1.0000 0.16080  0.17746  0.18734  Biso   1.000  C
  C399     1.0000 0.15636  0.17349  0.19437  Biso   1.000  C
  C400     1.0000 0.39534  0.69727  0.47616  Biso   1.000  C
  C401     1.0000 0.15943  0.15797  0.19387  Biso   1.000  C
  C402     1.0000 0.83131  0.73343  0.32323  Biso   1.000  C
  C403     1.0000 0.09233  0.10513  0.28417  Biso   1.000  C
  C404     1.0000 0.08790  0.09999  0.29050  Biso   1.000  C
  C405     1.0000 0.08971  0.08446  0.28839  Biso   1.000  C
  C406     1.0000 0.09600  0.07425  0.27977  Biso   1.000  C
  C407     1.0000 0.10041  0.07945  0.27346  Biso   1.000  C
  C408     1.0000 0.09865  0.09490  0.27563  Biso   1.000  C
  C409     1.0000 0.57502  0.57074  0.06981  Biso   1.000  C
  C410     1.0000 0.58341  0.56238  0.06352  Biso   1.000  C
  C411     1.0000 0.56513  0.59512  0.08343  Biso   1.000  C
  C412     1.0000 0.03934  0.88267  0.48131  Biso   1.000  C
  C413     1.0000 0.17320  0.12370  0.90010  Biso   1.000  C
  C414     1.0000 0.55560  0.60460  0.09057  Biso   1.000  C
  C415     1.0000 0.54550  0.60011  0.09193  Biso   1.000  C
  C416     1.0000 0.54530  0.58578  0.08589  Biso   1.000  C
  C417     1.0000 0.55482  0.57630  0.07875  Biso   1.000  C
  C418     1.0000 0.56492  0.58079  0.07738  Biso   1.000  C
  C419     1.0000 0.59360  0.53780  0.05012  Biso   1.000  C
  C420     1.0000 0.60313  0.52832  0.04298  Biso   1.000  C
  C421     1.0000 0.61294  0.53302  0.04139  Biso   1.000  C
  C422     1.0000 0.61284  0.54755  0.04722  Biso   1.000  C
  C423     1.0000 0.60332  0.55703  0.05435  Biso   1.000  C
  C424     1.0000 0.18348  0.12786  0.90890  Biso   1.000  C
  C425     1.0000 0.02562  0.89603  0.48164  Biso   1.000  C
  C426     1.0000 0.59351  0.55233  0.05595  Biso   1.000  C
  C427     1.0000 0.53540  0.61014  0.09950  Biso   1.000  C
  C428     1.0000 0.52697  0.61843  0.10578  Biso   1.000  C
  C429     1.0000 0.62305  0.52299  0.03383  Biso   1.000  C
  C430     1.0000 0.63150  0.51472  0.02756  Biso   1.000  C
  C431     1.0000 0.50402  0.62625  0.11233  Biso   1.000  C
  C432     1.0000 0.49449  0.63533  0.11949  Biso   1.000  C
  C433     1.0000 0.49729  0.64689  0.12795  Biso   1.000  C
  C434     1.0000 0.51005  0.64901  0.12888  Biso   1.000  C
  C435     1.0000 0.18320  0.12902  0.91946  Biso   1.000  C
  C436     1.0000 0.51958  0.63990  0.12169  Biso   1.000  C
  C437     1.0000 0.02402  0.91094  0.48144  Biso   1.000  C
  C438     1.0000 0.51678  0.62830  0.11330  Biso   1.000  C
  C439     1.0000 0.65439  0.50709  0.02102  Biso   1.000  C
  C440     1.0000 0.66396  0.49806  0.01388  Biso   1.000  C
  C441     1.0000 0.66129  0.48639  0.00546  Biso   1.000  C
  C442     1.0000 0.64863  0.48411  0.00455  Biso   1.000  C
  C443     1.0000 0.63905  0.49318  0.01171  Biso   1.000  C
  C444     1.0000 0.64172  0.50488  0.02006  Biso   1.000  C
  C445     1.0000 0.65163  0.61733  0.24320  Biso   1.000  C
  C446     1.0000 0.81149  0.82864  0.29581  Biso   1.000  C
  C447     1.0000 0.20924  0.18091  0.08163  Biso   1.000  C
  C448     1.0000 0.63850  0.62153  0.23759  Biso   1.000  C
  C449     1.0000 0.67179  0.60631  0.25937  Biso   1.000  C
  C450     1.0000 0.03691  0.91168  0.48090  Biso   1.000  C
  C451     1.0000 0.68660  0.60158  0.26569  Biso   1.000  C
  C452     1.0000 0.69813  0.60247  0.26305  Biso   1.000  C
  C453     1.0000 0.69387  0.60841  0.25367  Biso   1.000  C
  C454     1.0000 0.67907  0.61314  0.24735  Biso   1.000  C
  C455     1.0000 0.66754  0.61225  0.24999  Biso   1.000  C
  C456     1.0000 0.61841  0.63231  0.22132  Biso   1.000  C
  C457     1.0000 0.60360  0.63705  0.21500  Biso   1.000  C
  C458     1.0000 0.20503  0.18263  0.08977  Biso   1.000  C
  C459     1.0000 0.59200  0.63641  0.21772  Biso   1.000  C
  C460     1.0000 0.59619  0.63072  0.22720  Biso   1.000  C
  C461     1.0000 0.61099  0.62598  0.23353  Biso   1.000  C
  C462     1.0000 0.05057  0.89836  0.48058  Biso   1.000  C
  C463     1.0000 0.62259  0.62662  0.23080  Biso   1.000  C
  C464     1.0000 0.71404  0.59739  0.26984  Biso   1.000  C
  C465     1.0000 0.72718  0.59319  0.27543  Biso   1.000  C
  C466     1.0000 0.57610  0.64152  0.21092  Biso   1.000  C
  C467     1.0000 0.56300  0.64576  0.20527  Biso   1.000  C
  C468     1.0000 0.75435  0.58995  0.27989  Biso   1.000  C
  C469     1.0000 0.15134  0.11604  0.89208  Biso   1.000  C
  C470     1.0000 0.76918  0.58523  0.28616  Biso   1.000  C
  C471     1.0000 0.77378  0.57836  0.29518  Biso   1.000  C
  C472     1.0000 0.76250  0.57654  0.29749  Biso   1.000  C
  C473     1.0000 0.74766  0.58127  0.29120  Biso   1.000  C
  C474     1.0000 0.05218  0.88349  0.48078  Biso   1.000  C
  C475     1.0000 0.74310  0.58813  0.28220  Biso   1.000  C
  C476     1.0000 0.53589  0.64812  0.19968  Biso   1.000  C
  C477     1.0000 0.52122  0.65294  0.19310  Biso   1.000  C
  C478     1.0000 0.51690  0.66096  0.18472  Biso   1.000  C
  C479     1.0000 0.52825  0.66381  0.18342  Biso   1.000  C
  C480     1.0000 0.14246  0.11223  0.88421  Biso   1.000  C
  C481     1.0000 0.54285  0.65901  0.18999  Biso   1.000  C
  C482     1.0000 0.54719  0.65098  0.19832  Biso   1.000  C
  C483     1.0000 0.62820  0.13701  0.24636  Biso   1.000  C
  C484     1.0000 0.63222  0.12368  0.24076  Biso   1.000  C
  C485     1.0000 0.61337  0.15802  0.25962  Biso   1.000  C
  C486     1.0000 0.20955  0.53968  0.47193  Biso   1.000  C
  C487     1.0000 0.60881  0.17315  0.26598  Biso   1.000  C
  C488     1.0000 0.61406  0.18392  0.26607  Biso   1.000  C
  C489     1.0000 0.62405  0.17896  0.25955  Biso   1.000  C
  C490     1.0000 0.62861  0.16384  0.25319  Biso   1.000  C
  C491     1.0000 0.38266  0.17742  0.97904  Biso   1.000  C
  C492     1.0000 0.62336  0.15306  0.25310  Biso   1.000  C
  C493     1.0000 0.64504  0.10347  0.22622  Biso   1.000  C
  C494     1.0000 0.64956  0.08835  0.21985  Biso   1.000  C
  C495     1.0000 0.64626  0.07678  0.22103  Biso   1.000  C
  C496     1.0000 0.63827  0.08094  0.22882  Biso   1.000  C
  C497     1.0000 0.63375  0.09606  0.23519  Biso   1.000  C
  C498     1.0000 0.90104  0.97372  0.11850  Biso   1.000  C
  C499     1.0000 0.20818  0.52601  0.47171  Biso   1.000  C
  C500     1.0000 0.63705  0.10763  0.23402  Biso   1.000  C
  C501     1.0000 0.60922  0.19996  0.27282  Biso   1.000  C
  C502     1.0000 0.39366  0.17899  0.97850  Biso   1.000  C
  C503     1.0000 0.60522  0.21329  0.27843  Biso   1.000  C
  C504     1.0000 0.65092  0.06078  0.21420  Biso   1.000  C
  C505     1.0000 0.65464  0.04752  0.20848  Biso   1.000  C
  C506     1.0000 0.61023  0.23368  0.29411  Biso   1.000  C
  C507     1.0000 0.60579  0.24883  0.30045  Biso   1.000  C
  C508     1.0000 0.59132  0.26030  0.29812  Biso   1.000  C
  C509     1.0000 0.58150  0.25589  0.28918  Biso   1.000  C
  C510     1.0000 0.58598  0.24073  0.28285  Biso   1.000  C
  C511     1.0000 0.19487  0.52634  0.47233  Biso   1.000  C
  C512     1.0000 0.60044  0.22934  0.28518  Biso   1.000  C
  C513     1.0000 0.20966  0.18445  0.10972  Biso   1.000  C
  C514     1.0000 0.64810  0.02763  0.19330  Biso   1.000  C
  C515     1.0000 0.65181  0.01281  0.18656  Biso   1.000  C
  C516     1.0000 0.66641  0.00131  0.18766  Biso   1.000  C
  C517     1.0000 0.67717  0.00533  0.19588  Biso   1.000  C
  C518     1.0000 0.67342  0.02022  0.20263  Biso   1.000  C
  C519     1.0000 0.65880  0.03166  0.20145  Biso   1.000  C
  C520     1.0000 0.52690  0.49952  0.39276  Biso   1.000  C
  C521     1.0000 0.52327  0.51306  0.39822  Biso   1.000  C
  C522     1.0000 0.54607  0.47213  0.38745  Biso   1.000  C
  C523     1.0000 0.18294  0.54109  0.47316  Biso   1.000  C
  C524     1.0000 0.87265  0.86271  0.37281  Biso   1.000  C
  C525     1.0000 0.55017  0.45680  0.38127  Biso   1.000  C
  C526     1.0000 0.53968  0.45178  0.37351  Biso   1.000  C
  C527     1.0000 0.52489  0.46284  0.37223  Biso   1.000  C
  C528     1.0000 0.52078  0.47817  0.37842  Biso   1.000  C
  C529     1.0000 0.53127  0.48319  0.38617  Biso   1.000  C
  C530     1.0000 0.50411  0.54049  0.40346  Biso   1.000  C
  C531     1.0000 0.49999  0.55582  0.40965  Biso   1.000  C
  C532     1.0000 0.51045  0.56079  0.41748  Biso   1.000  C
  C533     1.0000 0.52523  0.54971  0.41883  Biso   1.000  C
  C534     1.0000 0.52935  0.53438  0.41264  Biso   1.000  C
  C535     1.0000 0.20520  0.18589  0.11896  Biso   1.000  C
  C536     1.0000 0.18435  0.55481  0.47339  Biso   1.000  C
  C537     1.0000 0.51889  0.52940  0.40480  Biso   1.000  C
  C538     1.0000 0.54405  0.43544  0.36693  Biso   1.000  C
  C539     1.0000 0.54766  0.42189  0.36149  Biso   1.000  C
  C540     1.0000 0.50604  0.57709  0.42412  Biso   1.000  C
  C541     1.0000 0.50234  0.59057  0.42968  Biso   1.000  C
  C542     1.0000 0.55007  0.39389  0.35740  Biso   1.000  C
  C543     1.0000 0.55417  0.37852  0.35129  Biso   1.000  C
  C544     1.0000 0.56042  0.37399  0.34239  Biso   1.000  C
  C545     1.0000 0.56234  0.38568  0.33993  Biso   1.000  C
  C546     1.0000 0.19090  0.18764  0.11854  Biso   1.000  C
  C547     1.0000 0.55824  0.40106  0.34606  Biso   1.000  C
  C548     1.0000 0.19770  0.55438  0.47281  Biso   1.000  C
  C549     1.0000 0.55201  0.40553  0.35494  Biso   1.000  C
  C550     1.0000 0.50094  0.61844  0.43526  Biso   1.000  C
  C551     1.0000 0.49672  0.63356  0.44181  Biso   1.000  C
  C552     1.0000 0.48912  0.63769  0.44989  Biso   1.000  C
  C553     1.0000 0.48595  0.62594  0.45103  Biso   1.000  C
  C554     1.0000 0.49016  0.61090  0.44450  Biso   1.000  C
  C555     1.0000 0.49779  0.60675  0.43649  Biso   1.000  C
  C556     1.0000 0.00638  0.51657  0.39068  Biso   1.000  C
  C557     1.0000 0.46479  0.48292  0.64755  Biso   1.000  C
  C558     1.0000 0.18124  0.18799  0.10841  Biso   1.000  C
  C559     1.0000 0.01950  0.51366  0.39613  Biso   1.000  C
  C560     1.0000 0.98443  0.50884  0.38027  Biso   1.000  C
  C561     1.0000 0.99649  0.89842  0.64544  Biso   1.000  C
  C562     1.0000 0.96963  0.51213  0.37413  Biso   1.000  C
  C563     1.0000 0.95995  0.52689  0.37141  Biso   1.000  C
  C564     1.0000 0.96601  0.53815  0.37522  Biso   1.000  C
  C565     1.0000 0.98081  0.53486  0.38137  Biso   1.000  C
  C566     1.0000 0.99050  0.52009  0.38409  Biso   1.000  C
  C567     1.0000 0.04178  0.52105  0.40589  Biso   1.000  C
  C568     1.0000 0.05658  0.51777  0.41203  Biso   1.000  C
  C569     1.0000 0.18573  0.18654  0.09917  Biso   1.000  C
  C570     1.0000 0.06592  0.50338  0.41540  Biso   1.000  C
  C571     1.0000 0.05952  0.49247  0.41224  Biso   1.000  C
  C572     1.0000 0.04472  0.49574  0.40609  Biso   1.000  C
  C573     1.0000 0.99434  0.88563  0.64613  Biso   1.000  C
  C574     1.0000 0.03538  0.51014  0.40272  Biso   1.000  C
  C575     1.0000 0.94405  0.53045  0.36483  Biso   1.000  C
  C576     1.0000 0.93091  0.53344  0.35942  Biso   1.000  C
  C577     1.0000 0.08180  0.49988  0.42201  Biso   1.000  C
  C578     1.0000 0.09489  0.49702  0.42748  Biso   1.000  C
  C579     1.0000 0.90324  0.55179  0.35507  Biso   1.000  C
  C580     1.0000 0.20007  0.18462  0.09961  Biso   1.000  C
  C581     1.0000 0.88837  0.55541  0.34905  Biso   1.000  C
  C582     1.0000 0.88419  0.54467  0.34045  Biso   1.000  C
  C583     1.0000 0.89594  0.53002  0.33829  Biso   1.000  C
  C584     1.0000 0.91084  0.52641  0.34433  Biso   1.000  C
  C585     1.0000 0.99627  0.88205  0.65605  Biso   1.000  C
  C586     1.0000 0.91496  0.53719  0.35291  Biso   1.000  C
  C587     1.0000 0.12251  0.47876  0.43298  Biso   1.000  C
  C588     1.0000 0.13722  0.47562  0.43930  Biso   1.000  C
  C589     1.0000 0.14110  0.48721  0.44717  Biso   1.000  C
  C590     1.0000 0.12928  0.50212  0.44828  Biso   1.000  C
  C591     1.0000 0.13626  0.10050  0.86473  Biso   1.000  C
  C592     1.0000 0.11460  0.50522  0.44197  Biso   1.000  C
  C593     1.0000 0.11073  0.49365  0.43414  Biso   1.000  C
  C594     1.0000 0.00096  0.89233  0.66606  Biso   1.000  C
  C595     1.0000 0.00326  0.90527  0.66577  Biso   1.000  C
  C596     1.0000 0.91162  0.97001  0.12800  Biso   1.000  C
  C597     1.0000 0.00096  0.90834  0.65563  Biso   1.000  C
  C598     1.0000 0.00170  0.85946  0.66551  Biso   1.000  C
  C599     1.0000 0.99927  0.84567  0.66541  Biso   1.000  C
  C600     1.0000 0.98952  0.84056  0.65690  Biso   1.000  C
  C601     1.0000 0.98217  0.84901  0.64852  Biso   1.000  C
  C602     1.0000 0.12687  0.09565  0.85559  Biso   1.000  C
  C603     1.0000 0.98424  0.86213  0.64828  Biso   1.000  C
  C604     1.0000 0.99392  0.86797  0.65647  Biso   1.000  C
  C605     1.0000 0.00299  0.90979  0.63343  Biso   1.000  C
  C606     1.0000 0.00097  0.91329  0.62355  Biso   1.000  C
  C607     1.0000 0.99032  0.90940  0.61407  Biso   1.000  C
  C608     1.0000 0.93941  0.97840  0.16899  Biso   1.000  C
  C609     1.0000 0.98251  0.90207  0.61546  Biso   1.000  C
  C610     1.0000 0.98453  0.89849  0.62540  Biso   1.000  C
  C611     1.0000 0.99452  0.90204  0.63466  Biso   1.000  C
  C612     1.0000 0.01676  0.92327  0.67621  Biso   1.000  C
  C613     1.0000 0.11275  0.09752  0.85579  Biso   1.000  C
  C614     1.0000 0.02082  0.93334  0.68544  Biso   1.000  C
  C615     1.0000 0.01631  0.93651  0.69488  Biso   1.000  C
  C616     1.0000 0.00765  0.92906  0.69476  Biso   1.000  C
  C617     1.0000 0.00359  0.91893  0.68553  Biso   1.000  C
  C618     1.0000 0.00796  0.91585  0.67597  Biso   1.000  C
  C619     1.0000 0.98802  0.91315  0.60354  Biso   1.000  C
  C620     1.0000 0.94924  0.98276  0.17804  Biso   1.000  C
  C621     1.0000 0.98618  0.91633  0.59482  Biso   1.000  C
  C622     1.0000 0.98701  0.82669  0.65674  Biso   1.000  C
  C623     1.0000 0.98495  0.81516  0.65662  Biso   1.000  C
  C624     1.0000 0.10848  0.10462  0.86563  Biso   1.000  C
  C625     1.0000 0.02057  0.94736  0.70460  Biso   1.000  C
  C626     1.0000 0.02416  0.95642  0.71261  Biso   1.000  C
  C627     1.0000 0.97844  0.91221  0.57467  Biso   1.000  C
  C628     1.0000 0.97642  0.91590  0.56481  Biso   1.000  C
  C629     1.0000 0.97990  0.92772  0.56430  Biso   1.000  C
  C630     1.0000 0.98548  0.93571  0.57400  Biso   1.000  C
  C631     1.0000 0.98750  0.93203  0.58386  Biso   1.000  C
  C632     1.0000 0.94436  0.99306  0.18716  Biso   1.000  C
  C633     1.0000 0.98402  0.92021  0.58437  Biso   1.000  C
  C634     1.0000 0.03012  0.96594  0.73263  Biso   1.000  C
  C635     1.0000 0.11797  0.10948  0.87482  Biso   1.000  C
  C636     1.0000 0.03426  0.97623  0.74167  Biso   1.000  C
  C637     1.0000 0.03695  0.98835  0.74068  Biso   1.000  C
  C638     1.0000 0.03534  0.98976  0.73027  Biso   1.000  C
  C639     1.0000 0.03120  0.97947  0.72123  Biso   1.000  C
  C640     1.0000 0.02851  0.96735  0.72222  Biso   1.000  C
  C641     1.0000 0.97689  0.79293  0.64698  Biso   1.000  C
  C642     1.0000 0.97457  0.77985  0.64687  Biso   1.000  C
  C643     1.0000 0.97775  0.77457  0.65629  Biso   1.000  C
  C644     1.0000 0.92921  0.99867  0.18688  Biso   1.000  C
  C645     1.0000 0.98335  0.78292  0.66580  Biso   1.000  C
  C646     1.0000 0.87959  0.86944  0.38073  Biso   1.000  C
  C647     1.0000 0.98566  0.79599  0.66591  Biso   1.000  C
  C648     1.0000 0.98248  0.80127  0.65650  Biso   1.000  C
  C649     1.0000 0.97774  0.93168  0.55388  Biso   1.000  C
  C650     1.0000 0.97597  0.93508  0.54526  Biso   1.000  C
  C651     1.0000 0.97531  0.76069  0.65620  Biso   1.000  C
  C652     1.0000 0.97332  0.74917  0.65621  Biso   1.000  C
  C653     1.0000 0.04140  0.99921  0.75030  Biso   1.000  C
  C654     1.0000 0.04587  0.00975  0.75980  Biso   1.000  C
  C655     1.0000 0.96993  0.95485  0.53446  Biso   1.000  C
  C656     1.0000 0.91932  0.99429  0.17781  Biso   1.000  C
  C657     1.0000 0.13210  0.10745  0.87455  Biso   1.000  C
  C658     1.0000 0.96832  0.95902  0.52490  Biso   1.000  C
  C659     1.0000 0.97055  0.94791  0.51544  Biso   1.000  C
  C660     1.0000 0.97434  0.93245  0.51594  Biso   1.000  C
  C661     1.0000 0.97595  0.92830  0.52554  Biso   1.000  C
  C662     1.0000 0.97387  0.93941  0.53499  Biso   1.000  C
  C663     1.0000 0.97308  0.73130  0.66606  Biso   1.000  C
  C664     1.0000 0.97116  0.71820  0.66635  Biso   1.000  C
  C665     1.0000 0.96703  0.70848  0.65698  Biso   1.000  C
  C666     1.0000 0.96487  0.71257  0.64729  Biso   1.000  C
  C667     1.0000 0.96682  0.72572  0.64702  Biso   1.000  C
  C668     1.0000 0.47317  0.47245  0.63989  Biso   1.000  C
  C669     1.0000 0.41654  0.18529  0.98694  Biso   1.000  C
  C670     1.0000 0.99675  0.98411  0.50301  Biso   1.000  C
  C671     1.0000 0.92415  0.98414  0.16856  Biso   1.000  C
  C672     1.0000 0.97102  0.73533  0.65640  Biso   1.000  C
  C673     1.0000 0.04702  0.03585  0.76979  Biso   1.000  C
  C674     1.0000 0.05176  0.04549  0.77906  Biso   1.000  C
  C675     1.0000 0.06031  0.03981  0.78854  Biso   1.000  C
  C676     1.0000 0.06380  0.02413  0.78830  Biso   1.000  C
  C677     1.0000 0.05905  0.01456  0.77906  Biso   1.000  C
  C678     1.0000 0.05062  0.02018  0.76960  Biso   1.000  C
  C679     1.0000 0.98703  0.63605  0.63801  Biso   1.000  C
  C680     1.0000 0.42903  0.18694  0.98629  Biso   1.000  C
  C681     1.0000 0.96456  0.62136  0.66089  Biso   1.000  C
  C682     1.0000 0.00232  0.64892  0.67915  Biso   1.000  C
  C683     1.0000 0.92479  0.96380  0.09849  Biso   1.000  C
  C684     1.0000 0.94496  0.67963  0.68123  Biso   1.000  C
  C685     1.0000 0.96572  0.69389  0.65751  Biso   1.000  C
  C686     1.0000 0.93063  0.66380  0.63835  Biso   1.000  C
  C687     1.0000 0.44641  0.18561  0.97570  Biso   1.000  C
  C688     1.0000 0.48816  0.14985  0.95416  Biso   1.000  C
  C689     1.0000 0.45851  0.20899  0.95188  Biso   1.000  C
  C690     1.0000 0.51452  0.18808  0.97215  Biso   1.000  C
  C691     1.0000 0.43259  0.18426  0.97645  Biso   1.000  C
  C692     1.0000 0.47476  0.22289  0.99441  Biso   1.000  C
  C693     1.0000 0.50183  0.16379  0.99512  Biso   1.000  C
  C694     1.0000 0.76178  0.21368  0.49312  Biso   1.000  C
  C695     1.0000 0.92891  0.96208  0.09031  Biso   1.000  C
  C696     1.0000 0.75157  0.21835  0.48347  Biso   1.000  C
  C697     1.0000 0.73890  0.23289  0.48331  Biso   1.000  C
  C698     1.0000 0.73661  0.24301  0.49326  Biso   1.000  C
  C699     1.0000 0.74617  0.23925  0.50321  Biso   1.000  C
  C700     1.0000 0.75879  0.22452  0.50290  Biso   1.000  C
  C701     1.0000 0.71270  0.24758  0.47236  Biso   1.000  C
  C702     1.0000 0.42292  0.17987  0.96733  Biso   1.000  C
  C703     1.0000 0.70256  0.25234  0.46282  Biso   1.000  C
  C704     1.0000 0.70692  0.24758  0.45308  Biso   1.000  C
  C705     1.0000 0.72198  0.23771  0.45337  Biso   1.000  C
  C706     1.0000 0.73216  0.23290  0.46291  Biso   1.000  C
  C707     1.0000 0.83847  0.96669  0.15158  Biso   1.000  C
  C708     1.0000 0.72786  0.23776  0.47275  Biso   1.000  C
  C709     1.0000 0.78875  0.19441  0.50079  Biso   1.000  C
  C710     1.0000 0.80120  0.17963  0.50034  Biso   1.000  C
  C711     1.0000 0.80121  0.16681  0.49196  Biso   1.000  C
  C712     1.0000 0.78796  0.16969  0.48408  Biso   1.000  C
  C713     1.0000 0.41045  0.17823  0.96799  Biso   1.000  C
  C714     1.0000 0.77553  0.18442  0.48449  Biso   1.000  C
  C715     1.0000 0.77545  0.19740  0.49284  Biso   1.000  C
  C716     1.0000 0.75354  0.25252  0.52305  Biso   1.000  C
  C717     1.0000 0.75000  0.26384  0.53246  Biso   1.000  C
  C718     1.0000 0.73532  0.27430  0.53323  Biso   1.000  C
  C719     1.0000 0.82748  0.96514  0.15213  Biso   1.000  C
  C720     1.0000 0.72439  0.27268  0.52410  Biso   1.000  C
  C721     1.0000 0.72788  0.26145  0.51471  Biso   1.000  C
  C722     1.0000 0.74258  0.25105  0.51379  Biso   1.000  C
  C723     1.0000 0.81452  0.15095  0.49141  Biso   1.000  C
  C724     1.0000 0.40693  0.18086  0.97781  Biso   1.000  C
  C725     1.0000 0.82546  0.13782  0.49088  Biso   1.000  C
  C726     1.0000 0.69601  0.25281  0.44294  Biso   1.000  C
  C727     1.0000 0.68689  0.25722  0.43459  Biso   1.000  C
  C728     1.0000 0.73136  0.28655  0.54319  Biso   1.000  C
  C729     1.0000 0.72786  0.29677  0.55134  Biso   1.000  C
  C730     1.0000 0.84052  0.11108  0.48051  Biso   1.000  C
  C731     1.0000 0.95496  0.99776  0.19666  Biso   1.000  C
  C732     1.0000 0.85282  0.09623  0.47986  Biso   1.000  C
  C733     1.0000 0.86405  0.09123  0.48886  Biso   1.000  C
  C734     1.0000 0.86220  0.10203  0.49855  Biso   1.000  C
  C735     1.0000 0.54728  0.81664  0.81356  Biso   1.000  C
  C736     1.0000 0.84990  0.11689  0.49919  Biso   1.000  C
  C737     1.0000 0.83867  0.12188  0.49019  Biso   1.000  C
  C738     1.0000 0.70919  0.32130  0.56083  Biso   1.000  C
  C739     1.0000 0.70508  0.33290  0.56997  Biso   1.000  C
  C740     1.0000 0.71504  0.33309  0.57997  Biso   1.000  C
  C741     1.0000 0.72935  0.32099  0.58029  Biso   1.000  C
  C742     1.0000 0.73347  0.30937  0.57114  Biso   1.000  C
  C743     1.0000 0.96568  0.00216  0.20582  Biso   1.000  C
  C744     1.0000 0.72350  0.30919  0.56114  Biso   1.000  C
  C745     1.0000 0.67839  0.25457  0.41428  Biso   1.000  C
  C746     1.0000 0.56424  0.83107  0.78787  Biso   1.000  C
  C747     1.0000 0.66803  0.25958  0.40486  Biso   1.000  C
  C748     1.0000 0.65457  0.27286  0.40519  Biso   1.000  C
  C749     1.0000 0.65201  0.28087  0.41545  Biso   1.000  C
  C750     1.0000 0.66238  0.27585  0.42487  Biso   1.000  C
  C751     1.0000 0.67584  0.26257  0.42453  Biso   1.000  C
  C752     1.0000 0.87724  0.07528  0.48817  Biso   1.000  C
  C753     1.0000 0.88814  0.06212  0.48760  Biso   1.000  C
  C754     1.0000 0.64355  0.27819  0.39512  Biso   1.000  C
  C755     1.0000 0.92507  0.95877  0.07024  Biso   1.000  C
  C756     1.0000 0.63455  0.28248  0.38670  Biso   1.000  C
  C757     1.0000 0.57235  0.85637  0.82854  Biso   1.000  C
  C758     1.0000 0.71062  0.34552  0.58976  Biso   1.000  C
  C759     1.0000 0.70695  0.35582  0.59784  Biso   1.000  C
  C760     1.0000 0.91171  0.04053  0.49605  Biso   1.000  C
  C761     1.0000 0.92407  0.02572  0.49543  Biso   1.000  C
  C762     1.0000 0.92688  0.01558  0.48563  Biso   1.000  C
  C763     1.0000 0.91647  0.02125  0.47649  Biso   1.000  C
  C764     1.0000 0.90411  0.03606  0.47713  Biso   1.000  C
  C765     1.0000 0.90135  0.04618  0.48692  Biso   1.000  C
  C766     1.0000 0.60958  0.29933  0.37594  Biso   1.000  C
  C767     1.0000 0.92996  0.95675  0.06105  Biso   1.000  C
  C768     1.0000 0.76298  0.86281  0.24959  Biso   1.000  C
  C769     1.0000 0.59995  0.30393  0.36616  Biso   1.000  C
  C770     1.0000 0.60430  0.29676  0.35632  Biso   1.000  C
  C771     1.0000 0.61870  0.28475  0.35684  Biso   1.000  C
  C772     1.0000 0.62823  0.28019  0.36657  Biso   1.000  C
  C773     1.0000 0.62400  0.28738  0.37638  Biso   1.000  C
  C774     1.0000 0.71246  0.36883  0.61755  Biso   1.000  C
  C775     1.0000 0.70835  0.38068  0.62660  Biso   1.000  C
  C776     1.0000 0.69397  0.39272  0.62624  Biso   1.000  C
  C777     1.0000 0.68397  0.39212  0.61626  Biso   1.000  C
  C778     1.0000 0.68810  0.38027  0.60723  Biso   1.000  C
  C779     1.0000 0.46518  0.46517  0.63105  Biso   1.000  C
  C780     1.0000 0.61876  0.81585  0.81280  Biso   1.000  C
  C781     1.0000 0.94403  0.95583  0.06176  Biso   1.000  C
  C782     1.0000 0.70248  0.36832  0.60759  Biso   1.000  C
  C783     1.0000 0.43484  0.93114  0.15692  Biso   1.000  C
  C784     1.0000 0.44744  0.93326  0.15726  Biso   1.000  C
  C785     1.0000 0.44685  0.94786  0.15724  Biso   1.000  C
  C786     1.0000 0.43283  0.96094  0.15709  Biso   1.000  C
  C787     1.0000 0.41965  0.95957  0.15675  Biso   1.000  C
  C788     1.0000 0.42109  0.94445  0.15672  Biso   1.000  C
  C789     1.0000 0.46432  0.96219  0.16258  Biso   1.000  C
  C790     1.0000 0.47797  0.96252  0.16307  Biso   1.000  C
  C791     1.0000 0.59969  0.80129  0.83833  Biso   1.000  C
  C792     1.0000 0.48914  0.94969  0.15833  Biso   1.000  C
  C793     1.0000 0.97009  0.95243  0.50546  Biso   1.000  C
  C794     1.0000 0.95300  0.95703  0.07206  Biso   1.000  C
  C795     1.0000 0.48594  0.93663  0.15298  Biso   1.000  C
  C796     1.0000 0.47239  0.93625  0.15250  Biso   1.000  C
  C797     1.0000 0.46121  0.94894  0.15738  Biso   1.000  C
  C798     1.0000 0.42785  0.91234  0.16170  Biso   1.000  C
  C799     1.0000 0.42984  0.89715  0.16182  Biso   1.000  C
  C800     1.0000 0.44039  0.88365  0.15701  Biso   1.000  C
  C801     1.0000 0.44877  0.88600  0.15200  Biso   1.000  C
  C802     1.0000 0.59398  0.77588  0.79763  Biso   1.000  C
  C803     1.0000 0.44684  0.90112  0.15188  Biso   1.000  C
  C804     1.0000 0.43640  0.91475  0.15679  Biso   1.000  C
  C805     1.0000 0.39076  0.97210  0.15140  Biso   1.000  C
  C806     1.0000 0.94812  0.95905  0.08125  Biso   1.000  C
  C807     1.0000 0.37658  0.98484  0.15100  Biso   1.000  C
  C808     1.0000 0.37465  0.00126  0.15577  Biso   1.000  C
  C809     1.0000 0.38800  0.00309  0.16060  Biso   1.000  C
  C810     1.0000 0.40284  0.98933  0.16085  Biso   1.000  C
  C811     1.0000 0.40428  0.97383  0.15632  Biso   1.000  C
  C812     1.0000 0.44270  0.86747  0.15718  Biso   1.000  C
  C813     1.0000 0.07473  0.05734  0.83971  Biso   1.000  C
  C814     1.0000 0.44478  0.85397  0.15726  Biso   1.000  C
  C815     1.0000 0.50380  0.94974  0.15891  Biso   1.000  C
  C816     1.0000 0.51604  0.94949  0.15930  Biso   1.000  C
  C817     1.0000 0.35951  0.01490  0.15542  Biso   1.000  C
  C818     1.0000 0.93405  0.95996  0.08054  Biso   1.000  C
  C819     1.0000 0.34697  0.02617  0.15512  Biso   1.000  C
  C820     1.0000 0.46113  0.82502  0.15662  Biso   1.000  C
  C821     1.0000 0.46357  0.80966  0.15667  Biso   1.000  C
  C822     1.0000 0.45235  0.80625  0.15742  Biso   1.000  C
  C823     1.0000 0.43859  0.81888  0.15813  Biso   1.000  C
  C824     1.0000 0.11981  0.03608  0.82188  Biso   1.000  C
  C825     1.0000 0.43615  0.83424  0.15809  Biso   1.000  C
  C826     1.0000 0.44737  0.83765  0.15733  Biso   1.000  C
  C827     1.0000 0.33000  0.05540  0.15684  Biso   1.000  C
  C828     1.0000 0.31582  0.06813  0.15649  Biso   1.000  C
  C829     1.0000 0.30266  0.06596  0.15405  Biso   1.000  C
  C830     1.0000 0.97306  0.01579  0.22478  Biso   1.000  C
  C831     1.0000 0.30447  0.05035  0.15197  Biso   1.000  C
  C832     1.0000 0.31865  0.03761  0.15232  Biso   1.000  C
  C833     1.0000 0.33181  0.03978  0.15476  Biso   1.000  C
  C834     1.0000 0.54305  0.93485  0.15768  Biso   1.000  C
  C835     1.0000 0.06628  0.04963  0.79854  Biso   1.000  C
  C836     1.0000 0.55697  0.93436  0.15806  Biso   1.000  C
  C837     1.0000 0.55940  0.94800  0.16051  Biso   1.000  C
  C838     1.0000 0.54723  0.96216  0.16256  Biso   1.000  C
  C839     1.0000 0.53330  0.96265  0.16218  Biso   1.000  C
  C840     1.0000 0.53087  0.94901  0.15973  Biso   1.000  C
  C841     1.0000 0.45490  0.78994  0.15746  Biso   1.000  C
  C842     1.0000 0.98329  0.02009  0.23364  Biso   1.000  C
  C843     1.0000 0.45687  0.77645  0.15749  Biso   1.000  C
  C844     1.0000 0.57422  0.94750  0.16089  Biso   1.000  C
  C845     1.0000 0.58647  0.94717  0.16120  Biso   1.000  C
  C846     1.0000 0.09261  0.08572  0.80461  Biso   1.000  C
  C847     1.0000 0.28751  0.07958  0.15368  Biso   1.000  C
  C848     1.0000 0.27499  0.09089  0.15337  Biso   1.000  C
  C849     1.0000 0.44711  0.75755  0.15784  Biso   1.000  C
  C850     1.0000 0.44879  0.74249  0.15785  Biso   1.000  C
  C851     1.0000 0.46240  0.72940  0.15756  Biso   1.000  C
  C852     1.0000 0.47429  0.73216  0.15727  Biso   1.000  C
  C853     1.0000 0.47256  0.74730  0.15726  Biso   1.000  C
  C854     1.0000 0.99814  0.01537  0.23342  Biso   1.000  C
  C855     1.0000 0.45892  0.76031  0.15753  Biso   1.000  C
  C856     1.0000 0.61442  0.93343  0.16215  Biso   1.000  C
  C857     1.0000 0.04830  0.10648  0.82248  Biso   1.000  C
  C858     1.0000 0.62813  0.93338  0.16239  Biso   1.000  C
  C859     1.0000 0.62921  0.94691  0.16206  Biso   1.000  C
  C860     1.0000 0.61588  0.96044  0.16149  Biso   1.000  C
  C861     1.0000 0.60223  0.96047  0.16124  Biso   1.000  C
  C862     1.0000 0.60114  0.94699  0.16155  Biso   1.000  C
  C863     1.0000 0.24708  0.10329  0.15295  Biso   1.000  C
  C864     1.0000 0.23299  0.11622  0.15258  Biso   1.000  C
  C865     1.0000 0.23097  0.13124  0.15224  Biso   1.000  C
  C866     1.0000 0.00253  0.00557  0.22332  Biso   1.000  C
  C867     1.0000 0.24386  0.13253  0.15229  Biso   1.000  C
  C868     1.0000 0.10338  0.09110  0.84580  Biso   1.000  C
  C869     1.0000 0.25790  0.11962  0.15266  Biso   1.000  C
  C870     1.0000 0.25992  0.10464  0.15299  Biso   1.000  C
  C871     1.0000 0.18866  0.18107  0.62817  Biso   1.000  C
  C872     1.0000 0.20641  0.19163  0.67044  Biso   1.000  C
  C873     1.0000 0.14985  0.20728  0.65173  Biso   1.000  C
  C874     1.0000 0.17870  0.16056  0.67178  Biso   1.000  C
  C875     1.0000 0.16220  0.14936  0.63083  Biso   1.000  C
  C876     1.0000 0.21838  0.13401  0.64863  Biso   1.000  C
  C877     1.0000 0.66493  0.72201  0.99348  Biso   1.000  C
  C878     1.0000 0.99147  0.00130  0.21419  Biso   1.000  C
  C879     1.0000 0.34641  0.83087  0.81660  Biso   1.000  C
  C880     1.0000 0.66072  0.72756  0.98387  Biso   1.000  C
  C881     1.0000 0.65838  0.74281  0.98353  Biso   1.000  C
  C882     1.0000 0.66003  0.75331  0.99337  Biso   1.000  C
  C883     1.0000 0.66413  0.74897  0.00411  Biso   1.000  C
  C884     1.0000 0.66649  0.73339  0.00387  Biso   1.000  C
  C885     1.0000 0.64503  0.76307  0.97105  Biso   1.000  C
  C886     1.0000 0.64100  0.76730  0.96098  Biso   1.000  C
  C887     1.0000 0.64595  0.75639  0.95202  Biso   1.000  C
  C888     1.0000 0.65518  0.74106  0.95360  Biso   1.000  C
  C889     1.0000 0.65919  0.73679  0.96364  Biso   1.000  C
  C890     1.0000 0.45001  0.46803  0.63002  Biso   1.000  C
  C891     1.0000 0.75435  0.86911  0.24017  Biso   1.000  C
  C892     1.0000 0.97682  0.00646  0.21502  Biso   1.000  C
  C893     1.0000 0.65419  0.74765  0.97266  Biso   1.000  C
  C894     1.0000 0.66507  0.70019  0.00141  Biso   1.000  C
  C895     1.0000 0.66690  0.68469  0.00045  Biso   1.000  C
  C896     1.0000 0.67150  0.67238  0.99106  Biso   1.000  C
  C897     1.0000 0.67399  0.67723  0.98338  Biso   1.000  C
  C898     1.0000 0.67210  0.69279  0.98429  Biso   1.000  C
  C899     1.0000 0.66750  0.70498  0.99298  Biso   1.000  C
  C900     1.0000 0.67456  0.75643  0.02458  Biso   1.000  C
  C901     1.0000 0.67611  0.76748  0.03414  Biso   1.000  C
  C902     1.0000 0.33303  0.84482  0.81703  Biso   1.000  C
  C903     1.0000 0.66891  0.78371  0.03448  Biso   1.000  C
  C904     1.0000 0.80480  0.95851  0.14368  Biso   1.000  C
  C905     1.0000 0.66003  0.78825  0.02470  Biso   1.000  C
  C906     1.0000 0.65849  0.77725  0.01514  Biso   1.000  C
  C907     1.0000 0.66572  0.76093  0.01472  Biso   1.000  C
  C908     1.0000 0.67346  0.65572  0.98975  Biso   1.000  C
  C909     1.0000 0.67511  0.64190  0.98857  Biso   1.000  C
  C910     1.0000 0.64165  0.76079  0.94128  Biso   1.000  C
  C911     1.0000 0.63812  0.76432  0.93233  Biso   1.000  C
  C912     1.0000 0.67057  0.79557  0.04467  Biso   1.000  C
  C913     1.0000 0.31937  0.84479  0.81714  Biso   1.000  C
  C914     1.0000 0.67189  0.80546  0.05306  Biso   1.000  C
  C915     1.0000 0.67615  0.61553  0.97694  Biso   1.000  C
  C916     1.0000 0.94066  0.99958  0.48496  Biso   1.000  C
  C917     1.0000 0.79238  0.95675  0.14433  Biso   1.000  C
  C918     1.0000 0.67805  0.59986  0.97554  Biso   1.000  C
  C919     1.0000 0.68100  0.59303  0.98420  Biso   1.000  C
  C920     1.0000 0.68196  0.60268  0.99434  Biso   1.000  C
  C921     1.0000 0.68006  0.61835  0.99574  Biso   1.000  C
  C922     1.0000 0.67711  0.62518  0.98708  Biso   1.000  C
  C923     1.0000 0.67051  0.83281  0.06290  Biso   1.000  C
  C924     1.0000 0.31965  0.83022  0.81707  Biso   1.000  C
  C925     1.0000 0.67197  0.84404  0.07236  Biso   1.000  C
  C926     1.0000 0.67648  0.84056  0.08264  Biso   1.000  C
  C927     1.0000 0.67944  0.82520  0.08293  Biso   1.000  C
  C928     1.0000 0.67798  0.81397  0.07347  Biso   1.000  C
  C929     1.0000 0.78870  0.95965  0.15413  Biso   1.000  C
  C930     1.0000 0.67347  0.81746  0.06319  Biso   1.000  C
  C931     1.0000 0.63358  0.75740  0.91204  Biso   1.000  C
  C932     1.0000 0.62963  0.76130  0.90187  Biso   1.000  C
  C933     1.0000 0.62583  0.77648  0.90072  Biso   1.000  C
  C934     1.0000 0.62615  0.78757  0.91020  Biso   1.000  C
  C935     1.0000 0.33261  0.81610  0.81678  Biso   1.000  C
  C936     1.0000 0.63009  0.78367  0.92037  Biso   1.000  C
  C937     1.0000 0.63390  0.76850  0.92152  Biso   1.000  C
  C938     1.0000 0.68303  0.57630  0.98272  Biso   1.000  C
  C939     1.0000 0.68473  0.56246  0.98157  Biso   1.000  C
  C940     1.0000 0.62161  0.78062  0.88990  Biso   1.000  C
  C941     1.0000 0.79811  0.96440  0.16325  Biso   1.000  C
  C942     1.0000 0.61809  0.78404  0.88092  Biso   1.000  C
  C943     1.0000 0.67805  0.85259  0.09275  Biso   1.000  C
  C944     1.0000 0.67935  0.86259  0.10107  Biso   1.000  C
  C945     1.0000 0.69160  0.53879  0.98925  Biso   1.000  C
  C946     1.0000 0.34576  0.81678  0.81655  Biso   1.000  C
  C947     1.0000 0.69346  0.52326  0.98825  Biso   1.000  C
  C948     1.0000 0.69069  0.51378  0.97827  Biso   1.000  C
  C949     1.0000 0.68596  0.52076  0.96932  Biso   1.000  C
  C950     1.0000 0.68410  0.53635  0.97034  Biso   1.000  C
  C951     1.0000 0.68683  0.54578  0.98035  Biso   1.000  C
  C952     1.0000 0.60597  0.78115  0.86111  Biso   1.000  C
  C953     1.0000 0.81053  0.96616  0.16261  Biso   1.000  C
  C954     1.0000 0.60171  0.78515  0.85095  Biso   1.000  C
  C955     1.0000 0.60510  0.79634  0.84924  Biso   1.000  C
  C956     1.0000 0.61303  0.80328  0.85822  Biso   1.000  C
  C957     1.0000 0.29059  0.85911  0.81267  Biso   1.000  C
  C958     1.0000 0.61727  0.79927  0.86839  Biso   1.000  C
  C959     1.0000 0.61379  0.78815  0.87008  Biso   1.000  C
  C960     1.0000 0.68459  0.88680  0.11105  Biso   1.000  C
  C961     1.0000 0.68581  0.89843  0.12025  Biso   1.000  C
  C962     1.0000 0.68350  0.89878  0.13006  Biso   1.000  C
  C963     1.0000 0.67992  0.88668  0.13010  Biso   1.000  C
  C964     1.0000 0.67869  0.87502  0.12086  Biso   1.000  C
  C965     1.0000 0.81421  0.96326  0.15281  Biso   1.000  C
  C966     1.0000 0.68092  0.87480  0.11106  Biso   1.000  C
  C967     1.0000 0.69218  0.49713  0.97749  Biso   1.000  C
  C968     1.0000 0.27700  0.87252  0.81308  Biso   1.000  C
  C969     1.0000 0.72783  0.45033  0.99796  Biso   1.000  C
  C970     1.0000 0.67130  0.47731  0.99744  Biso   1.000  C
  C971     1.0000 0.69497  0.42016  0.97606  Biso   1.000  C
  C972     1.0000 0.65765  0.46747  0.95644  Biso   1.000  C
  C973     1.0000 0.71455  0.44048  0.95528  Biso   1.000  C
  C974     1.0000 0.92417  0.38466  0.14189  Biso   1.000  C
  C975     1.0000 0.91291  0.38743  0.13218  Biso   1.000  C
  C976     1.0000 0.89795  0.39908  0.13200  Biso   1.000  C
  C977     1.0000 0.94922  0.95369  0.05200  Biso   1.000  C
  C978     1.0000 0.89459  0.40815  0.14208  Biso   1.000  C
  C979     1.0000 0.27647  0.88749  0.81810  Biso   1.000  C
  C980     1.0000 0.90506  0.40603  0.15202  Biso   1.000  C
  C981     1.0000 0.91970  0.39422  0.15163  Biso   1.000  C
  C982     1.0000 0.87023  0.40857  0.12130  Biso   1.000  C
  C983     1.0000 0.85883  0.41186  0.11187  Biso   1.000  C
  C984     1.0000 0.86183  0.40899  0.10181  Biso   1.000  C
  C985     1.0000 0.87708  0.40243  0.10181  Biso   1.000  C
  C986     1.0000 0.88855  0.39909  0.11125  Biso   1.000  C
  C987     1.0000 0.88556  0.40216  0.12141  Biso   1.000  C
  C988     1.0000 0.95283  0.37249  0.15048  Biso   1.000  C
  C989     1.0000 0.95349  0.95193  0.04389  Biso   1.000  C
  C990     1.0000 0.29036  0.88832  0.82259  Biso   1.000  C
  C991     1.0000 0.96767  0.36082  0.15078  Biso   1.000  C
  C992     1.0000 0.97152  0.34748  0.14268  Biso   1.000  C
  C993     1.0000 0.95943  0.34671  0.13419  Biso   1.000  C
  C994     1.0000 0.94454  0.35841  0.13386  Biso   1.000  C
  C995     1.0000 0.94059  0.37178  0.14203  Biso   1.000  C
  C996     1.0000 0.91074  0.41978  0.17201  Biso   1.000  C
  C997     1.0000 0.90647  0.42932  0.18175  Biso   1.000  C
  C998     1.0000 0.89174  0.43600  0.18299  Biso   1.000  C
  C999     1.0000 0.88156  0.43251  0.17390  Biso   1.000  C
  C1000    1.0000 0.88578  0.42301  0.16415  Biso   1.000  C
  C1001    1.0000 0.44166  0.47835  0.63782  Biso   1.000  C
  C1002    1.0000 0.30402  0.87488  0.82217  Biso   1.000  C
  C1003    1.0000 0.77543  0.95778  0.15482  Biso   1.000  C
  C1004    1.0000 0.90053  0.41631  0.16282  Biso   1.000  C
  C1005    1.0000 0.98756  0.33492  0.14310  Biso   1.000  C
  C1006    1.0000 0.00336  0.32265  0.14361  Biso   1.000  C
  C1007    1.0000 0.84941  0.41273  0.09174  Biso   1.000  C
  C1008    1.0000 0.83904  0.41589  0.08351  Biso   1.000  C
  C1009    1.0000 0.88711  0.44626  0.19340  Biso   1.000  C
  C1010    1.0000 0.88321  0.45476  0.20198  Biso   1.000  C
  C1011    1.0000 0.02477  0.29999  0.13502  Biso   1.000  C
  C1012    1.0000 0.03972  0.28843  0.13554  Biso   1.000  C
  C1013    1.0000 0.75215  0.88387  0.23915  Biso   1.000  C
  C1014    1.0000 0.05042  0.28623  0.14524  Biso   1.000  C
  C1015    1.0000 0.76445  0.95623  0.15541  Biso   1.000  C
  C1016    1.0000 0.04511  0.29641  0.15438  Biso   1.000  C
  C1017    1.0000 0.03017  0.30797  0.15386  Biso   1.000  C
  C1018    1.0000 0.01946  0.31018  0.14416  Biso   1.000  C
  C1019    1.0000 0.86399  0.47671  0.21253  Biso   1.000  C
  C1020    1.0000 0.85954  0.48630  0.22220  Biso   1.000  C
  C1021    1.0000 0.86928  0.48482  0.23230  Biso   1.000  C
  C1022    1.0000 0.88374  0.47317  0.23213  Biso   1.000  C
  C1023    1.0000 0.88819  0.46358  0.22246  Biso   1.000  C
  C1024    1.0000 0.30459  0.85977  0.81728  Biso   1.000  C
  C1025    1.0000 0.87845  0.46505  0.21236  Biso   1.000  C
  C1026    1.0000 0.82822  0.41204  0.06308  Biso   1.000  C
  C1027    1.0000 0.00886  0.01996  0.24285  Biso   1.000  C
  C1028    1.0000 0.81645  0.41567  0.05386  Biso   1.000  C
  C1029    1.0000 0.80206  0.42728  0.05449  Biso   1.000  C
  C1030    1.0000 0.80024  0.43501  0.06498  Biso   1.000  C
  C1031    1.0000 0.81201  0.43139  0.07421  Biso   1.000  C
  C1032    1.0000 0.82640  0.41978  0.07358  Biso   1.000  C
  C1033    1.0000 0.06653  0.27377  0.14580  Biso   1.000  C
  C1034    1.0000 0.07980  0.26351  0.14627  Biso   1.000  C
  C1035    1.0000 0.37197  0.81720  0.81126  Biso   1.000  C
  C1036    1.0000 0.78939  0.43119  0.04457  Biso   1.000  C
  C1037    1.0000 0.77892  0.43445  0.03640  Biso   1.000  C
  C1038    1.0000 0.86452  0.49507  0.24268  Biso   1.000  C
  C1039    1.0000 0.95229  0.94201  0.46312  Biso   1.000  C
  C1040    1.0000 0.01769  0.02382  0.25073  Biso   1.000  C
  C1041    1.0000 0.86065  0.50346  0.25129  Biso   1.000  C
  C1042    1.0000 0.10637  0.24836  0.15660  Biso   1.000  C
  C1043    1.0000 0.12128  0.23670  0.15716  Biso   1.000  C
  C1044    1.0000 0.12683  0.22688  0.14801  Biso   1.000  C
  C1045    1.0000 0.11633  0.22962  0.13825  Biso   1.000  C
  C1046    1.0000 0.38580  0.81651  0.81115  Biso   1.000  C
  C1047    1.0000 0.10143  0.24128  0.13771  Biso   1.000  C
  C1048    1.0000 0.09590  0.25105  0.14686  Biso   1.000  C
  C1049    1.0000 0.75428  0.45333  0.02645  Biso   1.000  C
  C1050    1.0000 0.74233  0.45710  0.01735  Biso   1.000  C
  C1051    1.0000 0.74143  0.44628  0.00768  Biso   1.000  C
  C1052    1.0000 0.97295  0.94774  0.03455  Biso   1.000  C
  C1053    1.0000 0.75338  0.43140  0.00776  Biso   1.000  C
  C1054    1.0000 0.76534  0.42765  0.01688  Biso   1.000  C
  C1055    1.0000 0.76617  0.43848  0.02654  Biso   1.000  C
  C1056    1.0000 0.86266  0.50772  0.27140  Biso   1.000  C
  C1057    1.0000 0.38990  0.82913  0.81595  Biso   1.000  C
  C1058    1.0000 0.85843  0.51678  0.28121  Biso   1.000  C
  C1059    1.0000 0.84736  0.53219  0.28208  Biso   1.000  C
  C1060    1.0000 0.84080  0.53795  0.27245  Biso   1.000  C
  C1061    1.0000 0.84506  0.52883  0.26261  Biso   1.000  C
  C1062    1.0000 0.85609  0.51342  0.26179  Biso   1.000  C
  C1063    1.0000 0.75950  0.65043  0.50640  Biso   1.000  C
  C1064    1.0000 0.97756  0.94612  0.02533  Biso   1.000  C
  C1065    1.0000 0.74437  0.65362  0.50617  Biso   1.000  C
  C1066    1.0000 0.73346  0.65241  0.49634  Biso   1.000  C
  C1067    1.0000 0.73846  0.64764  0.48665  Biso   1.000  C
  C1068    1.0000 0.37927  0.84261  0.82079  Biso   1.000  C
  C1069    1.0000 0.75308  0.64451  0.48629  Biso   1.000  C
  C1070    1.0000 0.76319  0.64610  0.49624  Biso   1.000  C
  C1071    1.0000 0.70519  0.66046  0.48670  Biso   1.000  C
  C1072    1.0000 0.69020  0.66299  0.48570  Biso   1.000  C
  C1073    1.0000 0.68545  0.66114  0.49364  Biso   1.000  C
  C1074    1.0000 0.69686  0.65675  0.50276  Biso   1.000  C
  C1075    1.0000 0.71194  0.65423  0.50380  Biso   1.000  C
  C1076    1.0000 0.96793  0.94654  0.01519  Biso   1.000  C
  C1077    1.0000 0.71678  0.65582  0.49573  Biso   1.000  C
  C1078    1.0000 0.78722  0.64299  0.51730  Biso   1.000  C
  C1079    1.0000 0.36536  0.84335  0.82090  Biso   1.000  C
  C1080    1.0000 0.79858  0.64426  0.52656  Biso   1.000  C
  C1081    1.0000 0.79555  0.65420  0.53635  Biso   1.000  C
  C1082    1.0000 0.78019  0.66268  0.53619  Biso   1.000  C
  C1083    1.0000 0.76875  0.66140  0.52690  Biso   1.000  C
  C1084    1.0000 0.77179  0.65160  0.51699  Biso   1.000  C
  C1085    1.0000 0.77262  0.63010  0.47431  Biso   1.000  C
  C1086    1.0000 0.77692  0.62556  0.46439  Biso   1.000  C
  C1087    1.0000 0.76675  0.63014  0.45494  Biso   1.000  C
  C1088    1.0000 0.95353  0.94857  0.01474  Biso   1.000  C
  C1089    1.0000 0.75201  0.63954  0.45598  Biso   1.000  C
  C1090    1.0000 0.36129  0.83059  0.81622  Biso   1.000  C
  C1091    1.0000 0.74768  0.64408  0.46588  Biso   1.000  C
  C1092    1.0000 0.75783  0.63953  0.47541  Biso   1.000  C
  C1093    1.0000 0.80804  0.65551  0.54625  Biso   1.000  C
  C1094    1.0000 0.81849  0.65643  0.55431  Biso   1.000  C
  C1095    1.0000 0.66918  0.66378  0.49233  Biso   1.000  C
  C1096    1.0000 0.65574  0.66598  0.49109  Biso   1.000  C
  C1097    1.0000 0.77137  0.62528  0.44433  Biso   1.000  C
  C1098    1.0000 0.77519  0.62127  0.43555  Biso   1.000  C
  C1099    1.0000 0.82969  0.66203  0.57475  Biso   1.000  C
  C1100    1.0000 0.94896  0.95017  0.02396  Biso   1.000  C
  C1101    1.0000 0.34155  0.78606  0.81147  Biso   1.000  C
  C1102    1.0000 0.84154  0.66297  0.58375  Biso   1.000  C
  C1103    1.0000 0.85587  0.65944  0.58273  Biso   1.000  C
  C1104    1.0000 0.85744  0.65489  0.57202  Biso   1.000  C
  C1105    1.0000 0.84559  0.65395  0.56302  Biso   1.000  C
  C1106    1.0000 0.83126  0.65748  0.56404  Biso   1.000  C
  C1107    1.0000 0.77027  0.61390  0.41506  Biso   1.000  C
  C1108    1.0000 0.77457  0.60936  0.40514  Biso   1.000  C
  C1109    1.0000 0.78865  0.60706  0.40453  Biso   1.000  C
  C1110    1.0000 0.79818  0.60958  0.41441  Biso   1.000  C
  C1111    1.0000 0.79388  0.61412  0.42433  Biso   1.000  C
  C1112    1.0000 0.90080  0.97828  0.15866  Biso   1.000  C
  C1113    1.0000 0.41100  0.48912  0.66772  Biso   1.000  C
  C1114    1.0000 0.34131  0.77177  0.81135  Biso   1.000  C
  C1115    1.0000 0.95853  0.94988  0.03408  Biso   1.000  C
  C1116    1.0000 0.77980  0.61641  0.42494  Biso   1.000  C
  C1117    1.0000 0.63224  0.67381  0.49806  Biso   1.000  C
  C1118    1.0000 0.61709  0.67632  0.49657  Biso   1.000  C
  C1119    1.0000 0.60793  0.67390  0.48640  Biso   1.000  C
  C1120    1.0000 0.61508  0.66876  0.47784  Biso   1.000  C
  C1121    1.0000 0.63022  0.66625  0.47933  Biso   1.000  C
  C1122    1.0000 0.63939  0.66868  0.48949  Biso   1.000  C
  C1123    1.0000 0.86868  0.66045  0.59245  Biso   1.000  C
  C1124    1.0000 0.87922  0.66127  0.60044  Biso   1.000  C
  C1125    1.0000 0.33198  0.77113  0.81648  Biso   1.000  C
  C1126    1.0000 0.59157  0.67662  0.48480  Biso   1.000  C
  C1127    1.0000 0.74772  0.95707  0.16598  Biso   1.000  C
  C1128    1.0000 0.57811  0.67887  0.48352  Biso   1.000  C
  C1129    1.0000 0.79326  0.60219  0.39391  Biso   1.000  C
  C1130    1.0000 0.79704  0.59813  0.38512  Biso   1.000  C
  C1131    1.0000 0.90355  0.66562  0.60963  Biso   1.000  C
  C1132    1.0000 0.91554  0.66637  0.61856  Biso   1.000  C
  C1133    1.0000 0.91696  0.66385  0.62872  Biso   1.000  C
  C1134    1.0000 0.90542  0.66052  0.62922  Biso   1.000  C
  C1135    1.0000 0.89344  0.65977  0.62028  Biso   1.000  C
  C1136    1.0000 0.75907  0.89196  0.24809  Biso   1.000  C
  C1137    1.0000 0.89207  0.66225  0.61014  Biso   1.000  C
  C1138    1.0000 0.55233  0.67924  0.47204  Biso   1.000  C
  C1139    1.0000 0.73526  0.95546  0.16670  Biso   1.000  C
  C1140    1.0000 0.53723  0.68173  0.47081  Biso   1.000  C
  C1141    1.0000 0.53042  0.68683  0.47957  Biso   1.000  C
  C1142    1.0000 0.53991  0.68924  0.48960  Biso   1.000  C
  C1143    1.0000 0.55495  0.68676  0.49081  Biso   1.000  C
  C1144    1.0000 0.56177  0.68164  0.48209  Biso   1.000  C
  C1145    1.0000 0.81259  0.59634  0.37305  Biso   1.000  C
  C1146    1.0000 0.81686  0.59156  0.36309  Biso   1.000  C
  C1147    1.0000 0.32289  0.78544  0.82174  Biso   1.000  C
  C1148    1.0000 0.81034  0.58332  0.35395  Biso   1.000  C
  C1149    1.0000 0.79928  0.58020  0.35539  Biso   1.000  C
  C1150    1.0000 0.79502  0.58499  0.36534  Biso   1.000  C
  C1151    1.0000 0.72556  0.95106  0.15760  Biso   1.000  C
  C1152    1.0000 0.80157  0.59316  0.37446  Biso   1.000  C
  C1153    1.0000 0.44030  0.69236  0.47617  Biso   1.000  C
  C1154    1.0000 0.45968  0.71275  0.45528  Biso   1.000  C
  C1155    1.0000 0.46913  0.72655  0.49793  Biso   1.000  C
  C1156    1.0000 0.51409  0.68902  0.47860  Biso   1.000  C
  C1157    1.0000 0.49483  0.66693  0.49831  Biso   1.000  C
  C1158    1.0000 0.32308  0.79975  0.82185  Biso   1.000  C
  C1159    1.0000 0.48491  0.65373  0.45745  Biso   1.000  C
  C1160    1.0000 0.33758  0.81409  0.32252  Biso   1.000  C
  C1161    1.0000 0.34333  0.80725  0.31309  Biso   1.000  C
  C1162    1.0000 0.33611  0.81300  0.30336  Biso   1.000  C
  C1163    1.0000 0.90741  0.97291  0.13864  Biso   1.000  C
  C1164    1.0000 0.72908  0.94834  0.14775  Biso   1.000  C
  C1165    1.0000 0.32204  0.82630  0.30324  Biso   1.000  C
  C1166    1.0000 0.31531  0.83387  0.31240  Biso   1.000  C
  C1167    1.0000 0.32354  0.82733  0.32191  Biso   1.000  C
  C1168    1.0000 0.33576  0.80419  0.28269  Biso   1.000  C
  C1169    1.0000 0.33242  0.80050  0.81671  Biso   1.000  C
  C1170    1.0000 0.34292  0.79595  0.27387  Biso   1.000  C
  C1171    1.0000 0.35846  0.78772  0.27518  Biso   1.000  C
  C1172    1.0000 0.36636  0.78839  0.28588  Biso   1.000  C
  C1173    1.0000 0.35926  0.79655  0.29468  Biso   1.000  C
  C1174    1.0000 0.34367  0.80466  0.29347  Biso   1.000  C
  C1175    1.0000 0.33982  0.80796  0.34079  Biso   1.000  C
  C1176    1.0000 0.74155  0.94996  0.14705  Biso   1.000  C
  C1177    1.0000 0.34816  0.80109  0.35007  Biso   1.000  C
  C1178    1.0000 0.36373  0.79299  0.35216  Biso   1.000  C
  C1179    1.0000 0.37046  0.79228  0.34445  Biso   1.000  C
  C1180    1.0000 0.40484  0.82812  0.81585  Biso   1.000  C
  C1181    1.0000 0.36218  0.79908  0.33518  Biso   1.000  C
  C1182    1.0000 0.34654  0.80710  0.33295  Biso   1.000  C
  C1183    1.0000 0.29074  0.85307  0.31946  Biso   1.000  C
  C1184    1.0000 0.27682  0.86645  0.31937  Biso   1.000  C
  C1185    1.0000 0.27079  0.87656  0.31202  Biso   1.000  C
  C1186    1.0000 0.27973  0.87221  0.30471  Biso   1.000  C
  C1187    1.0000 0.29365  0.85880  0.30477  Biso   1.000  C
  C1188    1.0000 0.75119  0.95439  0.15614  Biso   1.000  C
  C1189    1.0000 0.29982  0.84864  0.31218  Biso   1.000  C
  C1190    1.0000 0.37277  0.78550  0.36203  Biso   1.000  C
  C1191    1.0000 0.41726  0.82707  0.81571  Biso   1.000  C
  C1192    1.0000 0.38037  0.77924  0.37014  Biso   1.000  C
  C1193    1.0000 0.36632  0.77872  0.26581  Biso   1.000  C
  C1194    1.0000 0.37300  0.77121  0.25819  Biso   1.000  C
  C1195    1.0000 0.25577  0.89103  0.31199  Biso   1.000  C
  C1196    1.0000 0.24340  0.90292  0.31200  Biso   1.000  C
  C1197    1.0000 0.40401  0.75956  0.38018  Biso   1.000  C
  C1198    1.0000 0.41269  0.75246  0.38930  Biso   1.000  C
  C1199    1.0000 0.40756  0.75697  0.39875  Biso   1.000  C
  C1200    1.0000 0.04211  0.02669  0.26009  Biso   1.000  C
  C1201    1.0000 0.39321  0.76903  0.39851  Biso   1.000  C
  C1202    1.0000 0.26180  0.90170  0.81857  Biso   1.000  C
  C1203    1.0000 0.38453  0.77613  0.38938  Biso   1.000  C
  C1204    1.0000 0.38966  0.77162  0.37993  Biso   1.000  C
  C1205    1.0000 0.21880  0.92315  0.30269  Biso   1.000  C
  C1206    1.0000 0.20488  0.93653  0.30273  Biso   1.000  C
  C1207    1.0000 0.19947  0.94516  0.31212  Biso   1.000  C
  C1208    1.0000 0.20905  0.93938  0.32148  Biso   1.000  C
  C1209    1.0000 0.22297  0.92600  0.32144  Biso   1.000  C
  C1210    1.0000 0.22837  0.91738  0.31204  Biso   1.000  C
  C1211    1.0000 0.39593  0.75068  0.25054  Biso   1.000  C
  C1212    1.0000 0.05159  0.03158  0.26927  Biso   1.000  C
  C1213    1.0000 0.24956  0.91332  0.81891  Biso   1.000  C
  C1214    1.0000 0.40359  0.74217  0.24202  Biso   1.000  C
  C1215    1.0000 0.39702  0.74447  0.23138  Biso   1.000  C
  C1216    1.0000 0.38229  0.75586  0.22985  Biso   1.000  C
  C1217    1.0000 0.37463  0.76437  0.23837  Biso   1.000  C
  C1218    1.0000 0.38120  0.76207  0.24901  Biso   1.000  C
  C1219    1.0000 0.41687  0.74936  0.40855  Biso   1.000  C
  C1220    1.0000 0.42452  0.74309  0.41664  Biso   1.000  C
  C1221    1.0000 0.40526  0.73534  0.22222  Biso   1.000  C
  C1222    1.0000 0.41203  0.72783  0.21464  Biso   1.000  C
  C1223    1.0000 0.18444  0.95960  0.31217  Biso   1.000  C
  C1224    1.0000 0.40666  0.49370  0.67762  Biso   1.000  C
  C1225    1.0000 0.33173  0.75592  0.81634  Biso   1.000  C
  C1226    1.0000 0.04733  0.03862  0.27912  Biso   1.000  C
  C1227    1.0000 0.17207  0.97150  0.31221  Biso   1.000  C
  C1228    1.0000 0.42862  0.74067  0.43600  Biso   1.000  C
  C1229    1.0000 0.43701  0.73359  0.44515  Biso   1.000  C
  C1230    1.0000 0.45106  0.72094  0.44541  Biso   1.000  C
  C1231    1.0000 0.45618  0.71587  0.43588  Biso   1.000  C
  C1232    1.0000 0.44775  0.72297  0.42672  Biso   1.000  C
  C1233    1.0000 0.43369  0.73556  0.42648  Biso   1.000  C
  C1234    1.0000 0.41584  0.72443  0.19591  Biso   1.000  C
  C1235    1.0000 0.42342  0.71617  0.18734  Biso   1.000  C
  C1236    1.0000 0.33152  0.74330  0.81623  Biso   1.000  C
  C1237    1.0000 0.43587  0.70169  0.18767  Biso   1.000  C
  C1238    1.0000 0.03326  0.04041  0.27934  Biso   1.000  C
  C1239    1.0000 0.44021  0.69605  0.19721  Biso   1.000  C
  C1240    1.0000 0.43261  0.70434  0.20578  Biso   1.000  C
  C1241    1.0000 0.42018  0.71882  0.20543  Biso   1.000  C
  C1242    1.0000 0.15195  0.99498  0.32171  Biso   1.000  C
  C1243    1.0000 0.13719  0.00920  0.32178  Biso   1.000  C
  C1244    1.0000 0.12726  0.01462  0.31239  Biso   1.000  C
  C1245    1.0000 0.13237  0.00556  0.30293  Biso   1.000  C
  C1246    1.0000 0.14714  0.99134  0.30288  Biso   1.000  C
  C1247    1.0000 0.43539  0.83882  0.81740  Biso   1.000  C
  C1248    1.0000 0.15705  0.98595  0.31226  Biso   1.000  C
  C1249    1.0000 0.19767  0.20421  0.17124  Biso   1.000  C
  C1250    1.0000 0.02388  0.03554  0.27022  Biso   1.000  C
  C1251    1.0000 0.17231  0.16998  0.17161  Biso   1.000  C
  C1252    1.0000 0.14298  0.21356  0.14868  Biso   1.000  C
  C1253    1.0000 0.16062  0.15477  0.13064  Biso   1.000  C
  C1254    1.0000 0.18670  0.18758  0.12841  Biso   1.000  C
  C1255    1.0000 0.21572  0.14546  0.15179  Biso   1.000  C
  C1256    1.0000 0.25969  0.73562  0.00193  Biso   1.000  C
  C1257    1.0000 0.24477  0.74724  0.00175  Biso   1.000  C
  C1258    1.0000 0.76770  0.88566  0.25751  Biso   1.000  C
  C1259    1.0000 0.23294  0.75015  0.99140  Biso   1.000  C
  C1260    1.0000 0.23765  0.74053  0.98170  Biso   1.000  C
  C1261    1.0000 0.25232  0.72862  0.98128  Biso   1.000  C
  C1262    1.0000 0.02802  0.02865  0.26038  Biso   1.000  C
  C1263    1.0000 0.26291  0.72620  0.99116  Biso   1.000  C
  C1264    1.0000 0.20434  0.76267  0.98251  Biso   1.000  C
  C1265    1.0000 0.18949  0.77435  0.98221  Biso   1.000  C
  C1266    1.0000 0.18550  0.78735  0.99052  Biso   1.000  C
  C1267    1.0000 0.19749  0.78778  0.99921  Biso   1.000  C
  C1268    1.0000 0.21238  0.77608  0.99954  Biso   1.000  C
  C1269    1.0000 0.44946  0.83749  0.81719  Biso   1.000  C
  C1270    1.0000 0.21648  0.76304  0.99117  Biso   1.000  C
  C1271    1.0000 0.28751  0.72504  0.01236  Biso   1.000  C
  C1272    1.0000 0.29900  0.72167  0.02174  Biso   1.000  C
  C1273    1.0000 0.29613  0.72536  0.03195  Biso   1.000  C
  C1274    1.0000 0.67007  0.98551  0.18001  Biso   1.000  C
  C1275    1.0000 0.28090  0.73280  0.03215  Biso   1.000  C
  C1276    1.0000 0.26935  0.73623  0.02276  Biso   1.000  C
  C1277    1.0000 0.27220  0.73238  0.01246  Biso   1.000  C
  C1278    1.0000 0.27155  0.71175  0.96912  Biso   1.000  C
  C1279    1.0000 0.27581  0.70223  0.95938  Biso   1.000  C
  C1280    1.0000 0.46125  0.82294  0.81507  Biso   1.000  C
  C1281    1.0000 0.26566  0.69865  0.95030  Biso   1.000  C
  C1282    1.0000 0.25093  0.70529  0.95154  Biso   1.000  C
  C1283    1.0000 0.24662  0.71486  0.96127  Biso   1.000  C
  C1284    1.0000 0.25681  0.71839  0.97046  Biso   1.000  C
  C1285    1.0000 0.30864  0.72154  0.04197  Biso   1.000  C
  C1286    1.0000 0.89477  0.97148  0.13924  Biso   1.000  C
  C1287    1.0000 0.64384  0.94712  0.16200  Biso   1.000  C
  C1288    1.0000 0.31907  0.71831  0.05017  Biso   1.000  C
  C1289    1.0000 0.16944  0.79993  0.99010  Biso   1.000  C
  C1290    1.0000 0.15618  0.81023  0.98969  Biso   1.000  C
  C1291    1.0000 0.45817  0.80979  0.81318  Biso   1.000  C
  C1292    1.0000 0.27036  0.68834  0.93991  Biso   1.000  C
  C1293    1.0000 0.27434  0.67979  0.93136  Biso   1.000  C
  C1294    1.0000 0.33023  0.72250  0.07055  Biso   1.000  C
  C1295    1.0000 0.34205  0.71881  0.07975  Biso   1.000  C
  C1296    1.0000 0.35623  0.70670  0.07909  Biso   1.000  C
  C1297    1.0000 0.35777  0.69855  0.06861  Biso   1.000  C
  C1298    1.0000 0.34595  0.70224  0.05942  Biso   1.000  C
  C1299    1.0000 0.65639  0.97156  0.13905  Biso   1.000  C
  C1300    1.0000 0.33177  0.71435  0.06007  Biso   1.000  C
  C1301    1.0000 0.26939  0.67033  0.91093  Biso   1.000  C
  C1302    1.0000 0.44410  0.81112  0.81339  Biso   1.000  C
  C1303    1.0000 0.27394  0.66069  0.90130  Biso   1.000  C
  C1304    1.0000 0.28860  0.64955  0.90116  Biso   1.000  C
  C1305    1.0000 0.29843  0.64865  0.91125  Biso   1.000  C
  C1306    1.0000 0.29388  0.65830  0.92088  Biso   1.000  C
  C1307    1.0000 0.27921  0.66944  0.92102  Biso   1.000  C
  C1308    1.0000 0.13476  0.83291  0.99829  Biso   1.000  C
  C1309    1.0000 0.11981  0.84448  0.99779  Biso   1.000  C
  C1310    1.0000 0.10907  0.84672  0.98810  Biso   1.000  C
  C1311    1.0000 0.68372  0.91237  0.13972  Biso   1.000  C
  C1312    1.0000 0.11439  0.83654  0.97896  Biso   1.000  C
  C1313    1.0000 0.43231  0.82567  0.81551  Biso   1.000  C
  C1314    1.0000 0.12933  0.82497  0.97946  Biso   1.000  C
  C1315    1.0000 0.14007  0.82273  0.98915  Biso   1.000  C
  C1316    1.0000 0.36896  0.70271  0.08898  Biso   1.000  C
  C1317    1.0000 0.37948  0.69940  0.09712  Biso   1.000  C
  C1318    1.0000 0.09296  0.85920  0.98756  Biso   1.000  C
  C1319    1.0000 0.07968  0.86948  0.98710  Biso   1.000  C
  C1320    1.0000 0.29348  0.63925  0.89082  Biso   1.000  C
  C1321    1.0000 0.29746  0.63081  0.88224  Biso   1.000  C
  C1322    1.0000 0.40415  0.68043  0.10700  Biso   1.000  C
  C1323    1.0000 0.71176  0.94975  0.15840  Biso   1.000  C
  C1324    1.0000 0.31880  0.72749  0.81744  Biso   1.000  C
  C1325    1.0000 0.41614  0.67661  0.11607  Biso   1.000  C
  C1326    1.0000 0.41711  0.68739  0.12577  Biso   1.000  C
  C1327    1.0000 0.40518  0.70228  0.12572  Biso   1.000  C
  C1328    1.0000 0.39318  0.70609  0.11663  Biso   1.000  C
  C1329    1.0000 0.39228  0.69530  0.10695  Biso   1.000  C
  C1330    1.0000 0.05312  0.88489  0.97682  Biso   1.000  C
  C1331    1.0000 0.03821  0.89656  0.97629  Biso   1.000  C
  C1332    1.0000 0.03262  0.90618  0.98547  Biso   1.000  C
  C1333    1.0000 0.04309  0.90321  0.99521  Biso   1.000  C
  C1334    1.0000 0.05799  0.89153  0.99573  Biso   1.000  C
  C1335    1.0000 0.39194  0.50321  0.67868  Biso   1.000  C
  C1336    1.0000 0.31856  0.71320  0.81732  Biso   1.000  C
  C1337    1.0000 0.69994  0.92620  0.18217  Biso   1.000  C
  C1338    1.0000 0.06357  0.88197  0.98655  Biso   1.000  C
  C1339    1.0000 0.31315  0.60538  0.87101  Biso   1.000  C
  C1340    1.0000 0.31752  0.59621  0.86120  Biso   1.000  C
  C1341    1.0000 0.31108  0.60193  0.85155  Biso   1.000  C
  C1342    1.0000 0.30001  0.61734  0.85238  Biso   1.000  C
  C1343    1.0000 0.29568  0.62645  0.86215  Biso   1.000  C
  C1344    1.0000 0.30212  0.62080  0.87178  Biso   1.000  C
  C1345    1.0000 0.99891  0.97892  0.00310  Biso   1.000  C
  C1346    1.0000 0.01646  0.91952  0.98488  Biso   1.000  C
  C1347    1.0000 0.33076  0.69886  0.81582  Biso   1.000  C
  C1348    1.0000 0.97239  0.94603  0.00527  Biso   1.000  C
  C1349    1.0000 0.82291  0.83026  0.31625  Biso   1.000  C
  C1350    1.0000 0.96139  0.92956  0.96206  Biso   1.000  C
  C1351    1.0000 0.94298  0.98808  0.98169  Biso   1.000  C
  C1352    1.0000 0.98685  0.96356  0.96216  Biso   1.000  C
  C1353    1.0000 0.31304  0.33137  0.32173  Biso   1.000  C
  C1354    1.0000 0.30603  0.32346  0.31230  Biso   1.000  C
  C1355    1.0000 0.31226  0.31493  0.30301  Biso   1.000  C
  C1356    1.0000 0.32651  0.31450  0.30360  Biso   1.000  C
  C1357    1.0000 0.33439  0.32206  0.31277  Biso   1.000  C
  C1358    1.0000 0.34322  0.69947  0.81447  Biso   1.000  C
  C1359    1.0000 0.32715  0.33039  0.32161  Biso   1.000  C
  C1360    1.0000 0.31082  0.29391  0.28502  Biso   1.000  C
  C1361    1.0000 0.82362  0.81570  0.31668  Biso   1.000  C
  C1362    1.0000 0.30307  0.28627  0.27591  Biso   1.000  C
  C1363    1.0000 0.28760  0.29052  0.27374  Biso   1.000  C
  C1364    1.0000 0.28051  0.30306  0.28140  Biso   1.000  C
  C1365    1.0000 0.28822  0.31069  0.29050  Biso   1.000  C
  C1366    1.0000 0.30376  0.30647  0.29278  Biso   1.000  C
  C1367    1.0000 0.31372  0.34381  0.34228  Biso   1.000  C
  C1368    1.0000 0.30698  0.35222  0.35131  Biso   1.000  C
  C1369    1.0000 0.34346  0.71376  0.81460  Biso   1.000  C
  C1370    1.0000 0.29156  0.35823  0.35058  Biso   1.000  C
  C1371    1.0000 0.28339  0.35518  0.34012  Biso   1.000  C
  C1372    1.0000 0.29010  0.34675  0.33107  Biso   1.000  C
  C1373    1.0000 0.83187  0.80808  0.32557  Biso   1.000  C
  C1374    1.0000 0.30558  0.34069  0.33175  Biso   1.000  C
  C1375    1.0000 0.36015  0.32416  0.32294  Biso   1.000  C
  C1376    1.0000 0.37425  0.32379  0.32343  Biso   1.000  C
  C1377    1.0000 0.37965  0.32068  0.31429  Biso   1.000  C
  C1378    1.0000 0.36978  0.31791  0.30458  Biso   1.000  C
  C1379    1.0000 0.35565  0.31824  0.30406  Biso   1.000  C
  C1380    1.0000 0.91639  0.97726  0.14830  Biso   1.000  C
  C1381    1.0000 0.35013  0.32145  0.31323  Biso   1.000  C
  C1382    1.0000 0.28430  0.36731  0.36034  Biso   1.000  C
  C1383    1.0000 0.27831  0.37479  0.36836  Biso   1.000  C
  C1384    1.0000 0.27915  0.28229  0.26391  Biso   1.000  C
  C1385    1.0000 0.83954  0.81588  0.33452  Biso   1.000  C
  C1386    1.0000 0.27214  0.27558  0.25584  Biso   1.000  C
  C1387    1.0000 0.39493  0.32035  0.31490  Biso   1.000  C
  C1388    1.0000 0.40750  0.32011  0.31545  Biso   1.000  C
  C1389    1.0000 0.25686  0.38565  0.37825  Biso   1.000  C
  C1390    1.0000 0.25011  0.39407  0.38728  Biso   1.000  C
  C1391    1.0000 0.76990  0.87090  0.25854  Biso   1.000  C
  C1392    1.0000 0.25703  0.40135  0.39686  Biso   1.000  C
  C1393    1.0000 0.27121  0.39956  0.39672  Biso   1.000  C
  C1394    1.0000 0.27796  0.39115  0.38769  Biso   1.000  C
  C1395    1.0000 0.27104  0.38387  0.37811  Biso   1.000  C
  C1396    1.0000 0.43017  0.31283  0.30757  Biso   1.000  C
  C1397    1.0000 0.83928  0.83066  0.33474  Biso   1.000  C
  C1398    1.0000 0.44431  0.31257  0.30822  Biso   1.000  C
  C1399    1.0000 0.45222  0.31927  0.31751  Biso   1.000  C
  C1400    1.0000 0.44485  0.32626  0.32610  Biso   1.000  C
  C1401    1.0000 0.43072  0.32652  0.32545  Biso   1.000  C
  C1402    1.0000 0.33126  0.72810  0.81609  Biso   1.000  C
  C1403    1.0000 0.42280  0.31982  0.31615  Biso   1.000  C
  C1404    1.0000 0.24864  0.27014  0.24487  Biso   1.000  C
  C1405    1.0000 0.24072  0.26263  0.23582  Biso   1.000  C
  C1406    1.0000 0.24708  0.25180  0.22721  Biso   1.000  C
  C1407    1.0000 0.26201  0.24910  0.22838  Biso   1.000  C
  C1408    1.0000 0.26994  0.25661  0.23743  Biso   1.000  C
  C1409    1.0000 0.89116  0.97407  0.14919  Biso   1.000  C
  C1410    1.0000 0.83081  0.83749  0.32542  Biso   1.000  C
  C1411    1.0000 0.26357  0.26744  0.24605  Biso   1.000  C
  C1412    1.0000 0.24974  0.41043  0.40660  Biso   1.000  C
  C1413    1.0000 0.23320  0.94275  0.82116  Biso   1.000  C
  C1414    1.0000 0.24370  0.41788  0.41460  Biso   1.000  C
  C1415    1.0000 0.23849  0.24368  0.21741  Biso   1.000  C
  C1416    1.0000 0.23142  0.23700  0.20937  Biso   1.000  C
  C1417    1.0000 0.46752  0.31898  0.31822  Biso   1.000  C
  C1418    1.0000 0.48009  0.31873  0.31876  Biso   1.000  C
  C1419    1.0000 0.24133  0.43688  0.43304  Biso   1.000  C
  C1420    1.0000 0.23431  0.44521  0.44197  Biso   1.000  C
  C1421    1.0000 0.22167  0.44414  0.44279  Biso   1.000  C
  C1422    1.0000 0.83393  0.78685  0.33455  Biso   1.000  C
  C1423    1.0000 0.21664  0.43412  0.43400  Biso   1.000  C
  C1424    1.0000 0.21929  0.95579  0.82149  Biso   1.000  C
  C1425    1.0000 0.22365  0.42581  0.42511  Biso   1.000  C
  C1426    1.0000 0.23624  0.42688  0.42428  Biso   1.000  C
  C1427    1.0000 0.20858  0.23009  0.19910  Biso   1.000  C
  C1428    1.0000 0.20063  0.22251  0.19013  Biso   1.000  C
  C1429    1.0000 0.20622  0.21312  0.18089  Biso   1.000  C
  C1430    1.0000 0.22046  0.21195  0.18138  Biso   1.000  C
  C1431    1.0000 0.22840  0.21954  0.19036  Biso   1.000  C
  C1432    1.0000 0.22280  0.22889  0.19960  Biso   1.000  C
  C1433    1.0000 0.50426  0.32342  0.32888  Biso   1.000  C
  C1434    1.0000 0.83375  0.77229  0.33410  Biso   1.000  C
  C1435    1.0000 0.20609  0.95409  0.81994  Biso   1.000  C
  C1436    1.0000 0.51838  0.32309  0.32936  Biso   1.000  C
  C1437    1.0000 0.52475  0.31768  0.32033  Biso   1.000  C
  C1438    1.0000 0.51582  0.31266  0.31082  Biso   1.000  C
  C1439    1.0000 0.50174  0.31299  0.31035  Biso   1.000  C
  C1440    1.0000 0.49537  0.31839  0.31935  Biso   1.000  C
  C1441    1.0000 0.16226  0.23469  0.48822  Biso   1.000  C
  C1442    1.0000 0.15802  0.22535  0.47858  Biso   1.000  C
  C1443    1.0000 0.15582  0.22842  0.46845  Biso   1.000  C
  C1444    1.0000 0.15819  0.24134  0.46817  Biso   1.000  C
  C1445    1.0000 0.16254  0.25105  0.47764  Biso   1.000  C
  C1446    1.0000 0.38180  0.50785  0.66923  Biso   1.000  C
  C1447    1.0000 0.20759  0.93861  0.81806  Biso   1.000  C
  C1448    1.0000 0.83191  0.76186  0.32442  Biso   1.000  C
  C1449    1.0000 0.16445  0.24747  0.48755  Biso   1.000  C
  C1450    1.0000 0.15565  0.21471  0.44869  Biso   1.000  C
  C1451    1.0000 0.15158  0.20463  0.43942  Biso   1.000  C
  C1452    1.0000 0.14278  0.19729  0.43919  Biso   1.000  C
  C1453    1.0000 0.13814  0.20051  0.44859  Biso   1.000  C
  C1454    1.0000 0.14220  0.21053  0.45786  Biso   1.000  C
  C1455    1.0000 0.15114  0.21786  0.45820  Biso   1.000  C
  C1456    1.0000 0.17497  0.23402  0.50805  Biso   1.000  C
  C1457    1.0000 0.17702  0.23049  0.51798  Biso   1.000  C
  C1458    1.0000 0.22150  0.92558  0.81773  Biso   1.000  C
  C1459    1.0000 0.16860  0.22387  0.51937  Biso   1.000  C
  C1460    1.0000 0.83036  0.76680  0.31523  Biso   1.000  C
  C1461    1.0000 0.15804  0.22094  0.51046  Biso   1.000  C
  C1462    1.0000 0.15599  0.22442  0.50052  Biso   1.000  C
  C1463    1.0000 0.16442  0.23104  0.49905  Biso   1.000  C
  C1464    1.0000 0.17541  0.27010  0.48533  Biso   1.000  C
  C1465    1.0000 0.17758  0.28313  0.48518  Biso   1.000  C
  C1466    1.0000 0.16952  0.29188  0.47705  Biso   1.000  C
  C1467    1.0000 0.15921  0.28695  0.46901  Biso   1.000  C
  C1468    1.0000 0.15703  0.27388  0.46911  Biso   1.000  C
  C1469    1.0000 0.23470  0.92728  0.81927  Biso   1.000  C
  C1470    1.0000 0.16503  0.26511  0.47731  Biso   1.000  C
  C1471    1.0000 0.17078  0.22009  0.52987  Biso   1.000  C
  C1472    1.0000 0.83050  0.78132  0.31565  Biso   1.000  C
  C1473    1.0000 0.17256  0.21692  0.53859  Biso   1.000  C
  C1474    1.0000 0.13852  0.18648  0.42942  Biso   1.000  C
  C1475    1.0000 0.13492  0.17748  0.42136  Biso   1.000  C
  C1476    1.0000 0.17183  0.30579  0.47700  Biso   1.000  C
  C1477    1.0000 0.17381  0.31734  0.47702  Biso   1.000  C
  C1478    1.0000 0.17066  0.20168  0.54962  Biso   1.000  C
  C1479    1.0000 0.17267  0.19802  0.55949  Biso   1.000  C
  C1480    1.0000 0.47628  0.82153  0.81483  Biso   1.000  C
  C1481    1.0000 0.17878  0.20561  0.56917  Biso   1.000  C
  C1482    1.0000 0.18280  0.21700  0.56860  Biso   1.000  C
  C1483    1.0000 0.18079  0.22066  0.55873  Biso   1.000  C
  C1484    1.0000 0.83219  0.79195  0.32531  Biso   1.000  C
  C1485    1.0000 0.17469  0.21306  0.54906  Biso   1.000  C
  C1486    1.0000 0.17306  0.33646  0.46765  Biso   1.000  C
  C1487    1.0000 0.17535  0.34953  0.46770  Biso   1.000  C
  C1488    1.0000 0.18092  0.35795  0.47720  Biso   1.000  C
  C1489    1.0000 0.18410  0.35272  0.48663  Biso   1.000  C
  C1490    1.0000 0.18180  0.33965  0.48658  Biso   1.000  C
  C1491    1.0000 0.48869  0.82043  0.81463  Biso   1.000  C
  C1492    1.0000 0.17623  0.33124  0.47708  Biso   1.000  C
  C1493    1.0000 0.12819  0.15422  0.41257  Biso   1.000  C
  C1494    1.0000 0.12405  0.14400  0.40346  Biso   1.000  C
  C1495    1.0000 0.12212  0.14575  0.39308  Biso   1.000  C
  C1496    1.0000 0.80700  0.85403  0.30641  Biso   1.000  C
  C1497    1.0000 0.12451  0.15814  0.39219  Biso   1.000  C
  C1498    1.0000 0.12864  0.16835  0.40130  Biso   1.000  C
  C1499    1.0000 0.13057  0.16661  0.41168  Biso   1.000  C
  C1500    1.0000 0.18093  0.20167  0.57961  Biso   1.000  C
  C1501    1.0000 0.18271  0.19829  0.58825  Biso   1.000  C
  C1502    1.0000 0.19122  0.96803  0.82029  Biso   1.000  C
  C1503    1.0000 0.11765  0.13496  0.38339  Biso   1.000  C
  C1504    1.0000 0.11387  0.12612  0.37530  Biso   1.000  C
  C1505    1.0000 0.18335  0.37183  0.47724  Biso   1.000  C
  C1506    1.0000 0.18533  0.38335  0.47721  Biso   1.000  C
  C1507    1.0000 0.18880  0.17857  0.59912  Biso   1.000  C
  C1508    1.0000 0.79838  0.86068  0.29710  Biso   1.000  C
  C1509    1.0000 0.19042  0.17443  0.60870  Biso   1.000  C
  C1510    1.0000 0.18817  0.18556  0.61816  Biso   1.000  C
  C1511    1.0000 0.18434  0.20102  0.61761  Biso   1.000  C
  C1512    1.0000 0.18271  0.20514  0.60799  Biso   1.000  C
  C1513    1.0000 0.89714  0.87085  0.39938  Biso   1.000  C
  C1514    1.0000 0.18481  0.19400  0.59855  Biso   1.000  C
  C1515    1.0000 0.10058  0.12143  0.35604  Biso   1.000  C
  C1516    1.0000 0.09586  0.11189  0.34675  Biso   1.000  C
  C1517    1.0000 0.09951  0.09613  0.34642  Biso   1.000  C
  C1518    1.0000 0.10818  0.09036  0.35585  Biso   1.000  C
  C1519    1.0000 0.11290  0.09997  0.36517  Biso   1.000  C
  C1520    1.0000 0.79606  0.85150  0.28691  Biso   1.000  C
  C1521    1.0000 0.10914  0.11572  0.36545  Biso   1.000  C
  C1522    1.0000 0.19203  0.40669  0.48641  Biso   1.000  C
  C1523    1.0000 0.19398  0.41984  0.48615  Biso   1.000  C
  C1524    1.0000 0.17893  0.97960  0.82058  Biso   1.000  C
  C1525    1.0000 0.19162  0.42409  0.47647  Biso   1.000  C
  C1526    1.0000 0.18730  0.41450  0.46710  Biso   1.000  C
  C1527    1.0000 0.18537  0.40139  0.46738  Biso   1.000  C
  C1528    1.0000 0.18763  0.39721  0.47702  Biso   1.000  C
  C1529    1.0000 0.42516  0.48119  0.63724  Biso   1.000  C
  C1530    1.0000 0.41436  0.47956  0.62742  Biso   1.000  C
  C1531    1.0000 0.39925  0.48271  0.62719  Biso   1.000  C
  C1532    1.0000 0.33051  0.68366  0.81569  Biso   1.000  C
  C1533    1.0000 0.33031  0.67103  0.81558  Biso   1.000  C
  C1534    1.0000 0.38610  0.50327  0.65931  Biso   1.000  C
  C1535    1.0000 0.51688  0.80585  0.81596  Biso   1.000  C
  C1536    1.0000 0.53081  0.80488  0.81571  Biso   1.000  C
  C1537    1.0000 0.53225  0.81732  0.81382  Biso   1.000  C
  C1538    1.0000 0.51894  0.83073  0.81221  Biso   1.000  C
  C1539    1.0000 0.50506  0.83167  0.81247  Biso   1.000  C
  C1540    1.0000 0.50362  0.81928  0.81435  Biso   1.000  C
  C1541    1.0000 0.15098  0.99227  0.82013  Biso   1.000  C
  C1542    1.0000 0.90495  0.87846  0.40831  Biso   1.000  C
  C1543    1.0000 0.13631  0.00625  0.82046  Biso   1.000  C
  C1544    1.0000 0.13481  0.02159  0.82160  Biso   1.000  C
  C1545    1.0000 0.81378  0.83775  0.30610  Biso   1.000  C
  C1546    1.0000 0.14799  0.02289  0.82240  Biso   1.000  C
  C1547    1.0000 0.16263  0.00893  0.82207  Biso   1.000  C
  C1548    1.0000 0.16412  0.99364  0.82093  Biso   1.000  C
  C1549    1.0000 0.34230  0.64150  0.81389  Biso   1.000  C
  C1550    1.0000 0.34215  0.62717  0.81379  Biso   1.000  C
  C1551    1.0000 0.32978  0.62646  0.81524  Biso   1.000  C
  C1552    1.0000 0.31756  0.64081  0.81678  Biso   1.000  C
  C1553    1.0000 0.31773  0.65513  0.81688  Biso   1.000  C
  C1554    1.0000 0.90413  0.89333  0.40878  Biso   1.000  C
  C1555    1.0000 0.33010  0.65580  0.81544  Biso   1.000  C
  C1556    1.0000 0.40088  0.49374  0.65819  Biso   1.000  C
  C1557    1.0000 0.32994  0.53607  0.81606  Biso   1.000  C
  C1558    1.0000 0.34355  0.55645  0.79062  Biso   1.000  C
  C1559    1.0000 0.29106  0.58505  0.79985  Biso   1.000  C
  C1560    1.0000 0.32971  0.61090  0.81524  Biso   1.000  C
  C1561    1.0000 0.31603  0.59263  0.84080  Biso   1.000  C
  C1562    1.0000 0.36861  0.56087  0.83174  Biso   1.000  C
  C1563    1.0000 0.41267  0.89413  0.63036  Biso   1.000  C
  C1564    1.0000 0.42223  0.89036  0.64030  Biso   1.000  C
  C1565    1.0000 0.41998  0.90050  0.65026  Biso   1.000  C
  C1566    1.0000 0.89498  0.90008  0.39973  Biso   1.000  C
  C1567    1.0000 0.48955  0.46943  0.64120  Biso   1.000  C
  C1568    1.0000 0.40732  0.91505  0.65010  Biso   1.000  C
  C1569    1.0000 0.39710  0.91973  0.64046  Biso   1.000  C
  C1570    1.0000 0.40007  0.90887  0.63067  Biso   1.000  C
  C1571    1.0000 0.42676  0.90049  0.67066  Biso   1.000  C
  C1572    1.0000 0.43696  0.89566  0.68020  Biso   1.000  C
  C1573    1.0000 0.45201  0.88576  0.68047  Biso   1.000  C
  C1574    1.0000 0.45634  0.88100  0.67071  Biso   1.000  C
  C1575    1.0000 0.44619  0.88577  0.66118  Biso   1.000  C
  C1576    1.0000 0.43104  0.89562  0.66081  Biso   1.000  C
  C1577    1.0000 0.40527  0.88084  0.61053  Biso   1.000  C
  C1578    1.0000 0.50302  0.46709  0.64244  Biso   1.000  C
  C1579    1.0000 0.88717  0.89247  0.39080  Biso   1.000  C
  C1580    1.0000 0.40879  0.86950  0.60112  Biso   1.000  C
  C1581    1.0000 0.42347  0.85902  0.60035  Biso   1.000  C
  C1582    1.0000 0.43440  0.86064  0.60947  Biso   1.000  C
  C1583    1.0000 0.43093  0.87189  0.61886  Biso   1.000  C
  C1584    1.0000 0.41624  0.88232  0.61978  Biso   1.000  C
  C1585    1.0000 0.37014  0.93903  0.63280  Biso   1.000  C
  C1586    1.0000 0.35771  0.95382  0.63324  Biso   1.000  C
  C1587    1.0000 0.35772  0.96664  0.64162  Biso   1.000  C
  C1588    1.0000 0.37097  0.96375  0.64950  Biso   1.000  C
  C1589    1.0000 0.35078  0.47746  0.58729  Biso   1.000  C
  C1590    1.0000 0.38338  0.94900  0.64908  Biso   1.000  C
  C1591    1.0000 0.88799  0.87760  0.39033  Biso   1.000  C
  C1592    1.0000 0.38345  0.93603  0.64074  Biso   1.000  C
  C1593    1.0000 0.42741  0.84675  0.59040  Biso   1.000  C
  C1594    1.0000 0.43089  0.83650  0.58225  Biso   1.000  C
  C1595    1.0000 0.46293  0.88051  0.69059  Biso   1.000  C
  C1596    1.0000 0.47207  0.87609  0.69893  Biso   1.000  C
  C1597    1.0000 0.34442  0.98252  0.64218  Biso   1.000  C
  C1598    1.0000 0.33350  0.99567  0.64271  Biso   1.000  C
  C1599    1.0000 0.44962  0.81209  0.57273  Biso   1.000  C
  C1600    1.0000 0.80292  0.83530  0.28654  Biso   1.000  C
  C1601    1.0000 0.34036  0.47650  0.57923  Biso   1.000  C
  C1602    1.0000 0.45372  0.80046  0.56359  Biso   1.000  C
  C1603    1.0000 0.44368  0.80011  0.55364  Biso   1.000  C
  C1604    1.0000 0.82384  0.71051  0.31308  Biso   1.000  C
  C1605    1.0000 0.42931  0.81208  0.55336  Biso   1.000  C
  C1606    1.0000 0.42520  0.82371  0.56250  Biso   1.000  C
  C1607    1.0000 0.43524  0.82406  0.57245  Biso   1.000  C
  C1608    1.0000 0.31857  0.02252  0.65305  Biso   1.000  C
  C1609    1.0000 0.30629  0.03739  0.65370  Biso   1.000  C
  C1610    1.0000 0.29495  0.04231  0.64473  Biso   1.000  C
  C1611    1.0000 0.29667  0.03141  0.63507  Biso   1.000  C
  C1612    1.0000 0.38733  0.50813  0.68930  Biso   1.000  C
  C1613    1.0000 0.30896  0.01654  0.63442  Biso   1.000  C
  C1614    1.0000 0.32030  0.01162  0.64339  Biso   1.000  C
  C1615    1.0000 0.49654  0.85736  0.70862  Biso   1.000  C
  C1616    1.0000 0.82349  0.69595  0.31232  Biso   1.000  C
  C1617    1.0000 0.50693  0.85232  0.71803  Biso   1.000  C
  C1618    1.0000 0.50445  0.86038  0.72830  Biso   1.000  C
  C1619    1.0000 0.49105  0.87372  0.72866  Biso   1.000  C
  C1620    1.0000 0.48067  0.87876  0.71924  Biso   1.000  C
  C1621    1.0000 0.48314  0.87071  0.70898  Biso   1.000  C
  C1622    1.0000 0.44809  0.78765  0.54386  Biso   1.000  C
  C1623    1.0000 0.38352  0.51220  0.69808  Biso   1.000  C
  C1624    1.0000 0.45176  0.77732  0.53579  Biso   1.000  C
  C1625    1.0000 0.51549  0.85502  0.73836  Biso   1.000  C
  C1626    1.0000 0.52451  0.85071  0.74677  Biso   1.000  C
  C1627    1.0000 0.28177  0.05827  0.64542  Biso   1.000  C
  C1628    1.0000 0.83022  0.68784  0.32088  Biso   1.000  C
  C1629    1.0000 0.27088  0.07145  0.64599  Biso   1.000  C
  C1630    1.0000 0.44628  0.76418  0.51610  Biso   1.000  C
  C1631    1.0000 0.45043  0.75228  0.50708  Biso   1.000  C
  C1632    1.0000 0.46484  0.74028  0.50747  Biso   1.000  C
  C1633    1.0000 0.47482  0.74098  0.51744  Biso   1.000  C
  C1634    1.0000 0.52675  0.45853  0.63551  Biso   1.000  C
  C1635    1.0000 0.47065  0.75287  0.52645  Biso   1.000  C
  C1636    1.0000 0.45625  0.76478  0.52607  Biso   1.000  C
  C1637    1.0000 0.53085  0.85297  0.76690  Biso   1.000  C
  C1638    1.0000 0.54039  0.84839  0.77662  Biso   1.000  C
  C1639    1.0000 0.55479  0.83637  0.77713  Biso   1.000  C
  C1640    1.0000 0.86994  0.98055  0.15820  Biso   1.000  C
  C1641    1.0000 0.83731  0.69516  0.33024  Biso   1.000  C
  C1642    1.0000 0.55912  0.82922  0.76729  Biso   1.000  C
  C1643    1.0000 0.54949  0.83384  0.75751  Biso   1.000  C
  C1644    1.0000 0.53507  0.84579  0.75708  Biso   1.000  C
  C1645    1.0000 0.54191  0.45599  0.63700  Biso   1.000  C
  C1646    1.0000 0.24730  0.09303  0.63754  Biso   1.000  C
  C1647    1.0000 0.23494  0.10784  0.63816  Biso   1.000  C
  C1648    1.0000 0.23218  0.11802  0.64796  Biso   1.000  C
  C1649    1.0000 0.24262  0.11238  0.65710  Biso   1.000  C
  C1650    1.0000 0.25497  0.09755  0.65646  Biso   1.000  C
  C1651    1.0000 0.25769  0.08740  0.64667  Biso   1.000  C
  C1652    1.0000 0.33554  0.30386  0.81735  Biso   1.000  C
  C1653    1.0000 0.83766  0.70973  0.33100  Biso   1.000  C
  C1654    1.0000 0.32766  0.29660  0.80819  Biso   1.000  C
  C1655    1.0000 0.31919  0.30340  0.79885  Biso   1.000  C
  C1656    1.0000 0.55088  0.45906  0.64713  Biso   1.000  C
  C1657    1.0000 0.31893  0.31818  0.79906  Biso   1.000  C
  C1658    1.0000 0.32658  0.32601  0.80800  Biso   1.000  C
  C1659    1.0000 0.33482  0.31841  0.81691  Biso   1.000  C
  C1660    1.0000 0.29798  0.30324  0.78159  Biso   1.000  C
  C1661    1.0000 0.29015  0.29565  0.77266  Biso   1.000  C
  C1662    1.0000 0.29429  0.27939  0.77038  Biso   1.000  C
  C1663    1.0000 0.30681  0.27120  0.77765  Biso   1.000  C
  C1664    1.0000 0.31465  0.27875  0.78660  Biso   1.000  C
  C1665    1.0000 0.83094  0.71784  0.32244  Biso   1.000  C
  C1666    1.0000 0.31055  0.29509  0.78895  Biso   1.000  C
  C1667    1.0000 0.84382  0.85528  0.34702  Biso   1.000  C
  C1668    1.0000 0.34690  0.30560  0.83781  Biso   1.000  C
  C1669    1.0000 0.35548  0.29900  0.84710  Biso   1.000  C
  C1670    1.0000 0.36240  0.28281  0.84678  Biso   1.000  C
  C1671    1.0000 0.36012  0.27357  0.83660  Biso   1.000  C
  C1672    1.0000 0.35149  0.28016  0.82727  Biso   1.000  C
  C1673    1.0000 0.34466  0.29643  0.82754  Biso   1.000  C
  C1674    1.0000 0.32791  0.35278  0.81793  Biso   1.000  C
  C1675    1.0000 0.32807  0.36729  0.81835  Biso   1.000  C
  C1676    1.0000 0.32657  0.37222  0.80917  Biso   1.000  C
  C1677    1.0000 0.74295  0.89063  0.22907  Biso   1.000  C
  C1678    1.0000 0.54353  0.46486  0.65565  Biso   1.000  C
  C1679    1.0000 0.32475  0.36178  0.79949  Biso   1.000  C
  C1680    1.0000 0.32456  0.34723  0.79903  Biso   1.000  C
  C1681    1.0000 0.32625  0.34214  0.80826  Biso   1.000  C
  C1682    1.0000 0.37168  0.27588  0.85679  Biso   1.000  C
  C1683    1.0000 0.37934  0.27031  0.86513  Biso   1.000  C
  C1684    1.0000 0.28588  0.27123  0.76077  Biso   1.000  C
  C1685    1.0000 0.27895  0.26449  0.75285  Biso   1.000  C
  C1686    1.0000 0.32690  0.38777  0.80978  Biso   1.000  C
  C1687    1.0000 0.32722  0.40064  0.81040  Biso   1.000  C
  C1688    1.0000 0.39059  0.24904  0.87641  Biso   1.000  C
  C1689    1.0000 0.52838  0.46739  0.65416  Biso   1.000  C
  C1690    1.0000 0.73538  0.89634  0.22077  Biso   1.000  C
  C1691    1.0000 0.39923  0.24282  0.88587  Biso   1.000  C
  C1692    1.0000 0.40636  0.25085  0.89470  Biso   1.000  C
  C1693    1.0000 0.40436  0.26545  0.89353  Biso   1.000  C
  C1694    1.0000 0.39573  0.27166  0.88407  Biso   1.000  C
  C1695    1.0000 0.38859  0.26364  0.87524  Biso   1.000  C
  C1696    1.0000 0.32063  0.42454  0.80275  Biso   1.000  C
  C1697    1.0000 0.32101  0.43910  0.80353  Biso   1.000  C
  C1698    1.0000 0.32839  0.44622  0.81282  Biso   1.000  C
  C1699    1.0000 0.33539  0.43792  0.82129  Biso   1.000  C
  C1700    1.0000 0.51940  0.46433  0.64404  Biso   1.000  C
  C1701    1.0000 0.33501  0.42336  0.82051  Biso   1.000  C
  C1702    1.0000 0.82985  0.67224  0.32008  Biso   1.000  C
  C1703    1.0000 0.32762  0.41623  0.81122  Biso   1.000  C
  C1704    1.0000 0.27138  0.24142  0.74279  Biso   1.000  C
  C1705    1.0000 0.26358  0.23380  0.73386  Biso   1.000  C
  C1706    1.0000 0.25444  0.24052  0.72480  Biso   1.000  C
  C1707    1.0000 0.25361  0.25540  0.72526  Biso   1.000  C
  C1708    1.0000 0.26141  0.26302  0.73419  Biso   1.000  C
  C1709    1.0000 0.27056  0.25629  0.74325  Biso   1.000  C
  C1710    1.0000 0.41557  0.24418  0.90481  Biso   1.000  C
  C1711    1.0000 0.39552  0.48719  0.63736  Biso   1.000  C
  C1712    1.0000 0.36487  0.51938  0.70936  Biso   1.000  C
  C1713    1.0000 0.42314  0.23854  0.91314  Biso   1.000  C
  C1714    1.0000 0.24607  0.23230  0.71520  Biso   1.000  C
  C1715    1.0000 0.82957  0.65936  0.31948  Biso   1.000  C
  C1716    1.0000 0.23920  0.22545  0.70731  Biso   1.000  C
  C1717    1.0000 0.32879  0.46182  0.81364  Biso   1.000  C
  C1718    1.0000 0.32909  0.47470  0.81427  Biso   1.000  C
  C1719    1.0000 0.44198  0.23707  0.93131  Biso   1.000  C
  C1720    1.0000 0.45038  0.23018  0.94057  Biso   1.000  C
  C1721    1.0000 0.44939  0.21725  0.94213  Biso   1.000  C
  C1722    1.0000 0.43950  0.21174  0.93390  Biso   1.000  C
  C1723    1.0000 0.36058  0.52397  0.71929  Biso   1.000  C
  C1724    1.0000 0.43116  0.21861  0.92471  Biso   1.000  C
  C1725    1.0000 0.43214  0.23145  0.92311  Biso   1.000  C
  C1726    1.0000 0.22058  0.22394  0.68909  Biso   1.000  C
  C1727    1.0000 0.91251  0.90152  0.41837  Biso   1.000  C
  C1728    1.0000 0.21287  0.21598  0.68032  Biso   1.000  C
  C1729    1.0000 0.21506  0.20050  0.67969  Biso   1.000  C
  C1730    1.0000 0.22547  0.19360  0.68843  Biso   1.000  C
  C1731    1.0000 0.23314  0.20155  0.69716  Biso   1.000  C
  C1732    1.0000 0.23095  0.21699  0.69781  Biso   1.000  C
  C1733    1.0000 0.32462  0.49689  0.80577  Biso   1.000  C
  C1734    1.0000 0.37010  0.52657  0.72915  Biso   1.000  C
  C1735    1.0000 0.32483  0.51138  0.80623  Biso   1.000  C
  C1736    1.0000 0.32983  0.52024  0.81583  Biso   1.000  C
  C1737    1.0000 0.33462  0.51362  0.82498  Biso   1.000  C
  C1738    1.0000 0.33439  0.49906  0.82450  Biso   1.000  C
  C1739    1.0000 0.91940  0.90835  0.42626  Biso   1.000  C
  C1740    1.0000 0.32938  0.49027  0.81488  Biso   1.000  C
  C1741    1.0000 0.73956  0.17354  0.97697  Biso   1.000  C
  C1742    1.0000 0.73813  0.18866  0.97699  Biso   1.000  C
  C1743    1.0000 0.72440  0.20200  0.97682  Biso   1.000  C
  C1744    1.0000 0.71179  0.19992  0.97650  Biso   1.000  C
  C1745    1.0000 0.38416  0.52431  0.72851  Biso   1.000  C
  C1746    1.0000 0.71234  0.18535  0.97654  Biso   1.000  C
  C1747    1.0000 0.72635  0.17223  0.97666  Biso   1.000  C
  C1748    1.0000 0.71243  0.23202  0.98188  Biso   1.000  C
  C1749    1.0000 0.71047  0.24715  0.98175  Biso   1.000  C
  C1750    1.0000 0.71878  0.24952  0.97669  Biso   1.000  C
  C1751    1.0000 0.72723  0.91650  0.20935  Biso   1.000  C
  C1752    1.0000 0.72932  0.23602  0.97186  Biso   1.000  C
  C1753    1.0000 0.73134  0.22082  0.97200  Biso   1.000  C
  C1754    1.0000 0.72284  0.21840  0.97694  Biso   1.000  C
  C1755    1.0000 0.75642  0.14370  0.97303  Biso   1.000  C
  C1756    1.0000 0.38845  0.51971  0.71858  Biso   1.000  C
  C1757    1.0000 0.77050  0.13076  0.97330  Biso   1.000  C
  C1758    1.0000 0.78394  0.13252  0.97796  Biso   1.000  C
  C1759    1.0000 0.78252  0.14794  0.98236  Biso   1.000  C
  C1760    1.0000 0.76849  0.16088  0.98209  Biso   1.000  C
  C1761    1.0000 0.75492  0.15924  0.97738  Biso   1.000  C
  C1762    1.0000 0.69469  0.17121  0.97123  Biso   1.000  C
  C1763    1.0000 0.85748  0.97879  0.15876  Biso   1.000  C
  C1764    1.0000 0.71888  0.92345  0.20019  Biso   1.000  C
  C1765    1.0000 0.68098  0.17102  0.97076  Biso   1.000  C
  C1766    1.0000 0.66989  0.18390  0.97554  Biso   1.000  C
  C1767    1.0000 0.37893  0.51711  0.70871  Biso   1.000  C
  C1768    1.0000 0.67323  0.19687  0.98091  Biso   1.000  C
  C1769    1.0000 0.68684  0.19711  0.98137  Biso   1.000  C
  C1770    1.0000 0.69794  0.18438  0.97645  Biso   1.000  C
  C1771    1.0000 0.79902  0.11874  0.97825  Biso   1.000  C
  C1772    1.0000 0.81154  0.10741  0.97852  Biso   1.000  C
  C1773    1.0000 0.71642  0.26571  0.97650  Biso   1.000  C
  C1774    1.0000 0.71429  0.27924  0.97640  Biso   1.000  C
  C1775    1.0000 0.65516  0.18402  0.97498  Biso   1.000  C
  C1776    1.0000 0.70910  0.91786  0.19189  Biso   1.000  C
  C1777    1.0000 0.64285  0.18441  0.97461  Biso   1.000  C
  C1778    1.0000 0.32922  0.47080  0.55877  Biso   1.000  C
  C1779    1.0000 0.83980  0.09581  0.98078  Biso   1.000  C
  C1780    1.0000 0.85397  0.08305  0.98110  Biso   1.000  C
  C1781    1.0000 0.85584  0.06750  0.97952  Biso   1.000  C
  C1782    1.0000 0.84273  0.06544  0.97760  Biso   1.000  C
  C1783    1.0000 0.82856  0.07820  0.97728  Biso   1.000  C
  C1784    1.0000 0.82669  0.09375  0.97885  Biso   1.000  C
  C1785    1.0000 0.61578  0.19933  0.97607  Biso   1.000  C
  C1786    1.0000 0.60178  0.20000  0.97572  Biso   1.000  C
  C1787    1.0000 0.59928  0.18644  0.97348  Biso   1.000  C
  C1788    1.0000 0.70824  0.90479  0.19334  Biso   1.000  C
  C1789    1.0000 0.85167  0.86281  0.35597  Biso   1.000  C
  C1790    1.0000 0.61144  0.17219  0.97161  Biso   1.000  C
  C1791    1.0000 0.62544  0.17153  0.97197  Biso   1.000  C
  C1792    1.0000 0.62794  0.18508  0.97420  Biso   1.000  C
  C1793    1.0000 0.72278  0.29904  0.97550  Biso   1.000  C
  C1794    1.0000 0.72028  0.31442  0.97544  Biso   1.000  C
  C1795    1.0000 0.70651  0.32702  0.97620  Biso   1.000  C
  C1796    1.0000 0.69536  0.32357  0.97701  Biso   1.000  C
  C1797    1.0000 0.69786  0.30819  0.97707  Biso   1.000  C
  C1798    1.0000 0.71163  0.29558  0.97631  Biso   1.000  C
  C1799    1.0000 0.87100  0.05384  0.97988  Biso   1.000  C
  C1800    1.0000 0.31739  0.46983  0.54976  Biso   1.000  C
  C1801    1.0000 0.71665  0.89782  0.20256  Biso   1.000  C
  C1802    1.0000 0.88352  0.04252  0.98017  Biso   1.000  C
  C1803    1.0000 0.70390  0.34336  0.97614  Biso   1.000  C
  C1804    1.0000 0.70188  0.35687  0.97610  Biso   1.000  C
  C1805    1.0000 0.58438  0.18713  0.97313  Biso   1.000  C
  C1806    1.0000 0.57208  0.18760  0.97285  Biso   1.000  C
  C1807    1.0000 0.90073  0.01376  0.98087  Biso   1.000  C
  C1808    1.0000 0.91481  0.00088  0.98122  Biso   1.000  C
  C1809    1.0000 0.92766  0.00223  0.98125  Biso   1.000  C
  C1810    1.0000 0.92554  0.01729  0.98090  Biso   1.000  C
  C1811    1.0000 0.30303  0.47339  0.55075  Biso   1.000  C
  C1812    1.0000 0.91143  0.03018  0.98055  Biso   1.000  C
  C1813    1.0000 0.72637  0.90352  0.21083  Biso   1.000  C
  C1814    1.0000 0.89863  0.02877  0.98053  Biso   1.000  C
  C1815    1.0000 0.68617  0.38604  0.97637  Biso   1.000  C
  C1816    1.0000 0.68443  0.40119  0.97634  Biso   1.000  C
  C1817    1.0000 0.69629  0.40394  0.97598  Biso   1.000  C
  C1818    1.0000 0.70988  0.39083  0.97564  Biso   1.000  C
  C1819    1.0000 0.71158  0.37578  0.97567  Biso   1.000  C
  C1820    1.0000 0.69980  0.37301  0.97604  Biso   1.000  C
  C1821    1.0000 0.55616  0.17450  0.97285  Biso   1.000  C
  C1822    1.0000 0.40563  0.48880  0.64731  Biso   1.000  C
  C1823    1.0000 0.30143  0.47801  0.56146  Biso   1.000  C
  C1824    1.0000 0.54247  0.17464  0.97263  Biso   1.000  C
  C1825    1.0000 0.52918  0.18823  0.97207  Biso   1.000  C
  C1826    1.0000 0.83424  0.63709  0.32797  Biso   1.000  C
  C1827    1.0000 0.53035  0.20170  0.97171  Biso   1.000  C
  C1828    1.0000 0.54411  0.20153  0.97194  Biso   1.000  C
  C1829    1.0000 0.55735  0.18792  0.97253  Biso   1.000  C
  C1830    1.0000 0.06740  0.05033  0.33029  Biso   1.000  C
  C1831    1.0000 0.05671  0.04503  0.28910  Biso   1.000  C
  C1832    1.0000 0.04011  0.09999  0.31307  Biso   1.000  C
  C1833    1.0000 0.08532  0.07883  0.29531  Biso   1.000  C
  C1834    1.0000 0.31325  0.47898  0.57047  Biso   1.000  C
  C1835    1.0000 0.09358  0.08632  0.33637  Biso   1.000  C
  C1836    1.0000 0.11198  0.02942  0.31247  Biso   1.000  C
  C1837    1.0000 0.84581  0.80213  0.81192  Biso   1.000  C
  C1838    1.0000 0.83405  0.62258  0.32752  Biso   1.000  C
  C1839    1.0000 0.83170  0.80312  0.81206  Biso   1.000  C
  C1840    1.0000 0.82446  0.81150  0.82089  Biso   1.000  C
  C1841    1.0000 0.83234  0.81907  0.83004  Biso   1.000  C
  C1842    1.0000 0.84660  0.81863  0.83062  Biso   1.000  C
  C1843    1.0000 0.85282  0.81006  0.82133  Biso   1.000  C
  C1844    1.0000 0.80319  0.81530  0.82958  Biso   1.000  C
  C1845    1.0000 0.32760  0.47542  0.56948  Biso   1.000  C
  C1846    1.0000 0.78907  0.81561  0.82905  Biso   1.000  C
  C1847    1.0000 0.77922  0.81283  0.81934  Biso   1.000  C
  C1848    1.0000 0.78462  0.80974  0.81020  Biso   1.000  C
  C1849    1.0000 0.79872  0.80939  0.81071  Biso   1.000  C
  C1850    1.0000 0.82891  0.61380  0.31794  Biso   1.000  C
  C1851    1.0000 0.80872  0.81210  0.82042  Biso   1.000  C
  C1852    1.0000 0.86873  0.78666  0.80257  Biso   1.000  C
  C1853    1.0000 0.87542  0.77819  0.79353  Biso   1.000  C
  C1854    1.0000 0.86723  0.77514  0.78308  Biso   1.000  C
  C1855    1.0000 0.85181  0.78121  0.78235  Biso   1.000  C
  C1856    1.0000 0.56725  0.45632  0.64873  Biso   1.000  C
  C1857    1.0000 0.84509  0.78966  0.79138  Biso   1.000  C
  C1858    1.0000 0.85325  0.79277  0.80191  Biso   1.000  C
  C1859    1.0000 0.87064  0.82288  0.84308  Biso   1.000  C
  C1860    1.0000 0.87837  0.83054  0.85216  Biso   1.000  C
  C1861    1.0000 0.87129  0.84311  0.85981  Biso   1.000  C
  C1862    1.0000 0.82396  0.62050  0.30881  Biso   1.000  C
  C1863    1.0000 0.85583  0.84737  0.85765  Biso   1.000  C
  C1864    1.0000 0.84806  0.83971  0.84857  Biso   1.000  C
  C1865    1.0000 0.85510  0.82712  0.84082  Biso   1.000  C
  C1866    1.0000 0.87447  0.76601  0.77332  Biso   1.000  C
  C1867    1.0000 0.58072  0.45406  0.65001  Biso   1.000  C
  C1868    1.0000 0.88043  0.75849  0.76529  Biso   1.000  C
  C1869    1.0000 0.76395  0.81313  0.81871  Biso   1.000  C
  C1870    1.0000 0.75138  0.81335  0.81813  Biso   1.000  C
  C1871    1.0000 0.87976  0.85136  0.86961  Biso   1.000  C
  C1872    1.0000 0.88679  0.85809  0.87764  Biso   1.000  C
  C1873    1.0000 0.88071  0.74211  0.74598  Biso   1.000  C
  C1874    1.0000 0.82416  0.63506  0.30928  Biso   1.000  C
  C1875    1.0000 0.88743  0.73364  0.73694  Biso   1.000  C
  C1876    1.0000 0.90162  0.73179  0.73679  Biso   1.000  C
  C1877    1.0000 0.90858  0.73905  0.74634  Biso   1.000  C
  C1878    1.0000 0.29025  0.47235  0.54102  Biso   1.000  C
  C1879    1.0000 0.90187  0.74751  0.75538  Biso   1.000  C
  C1880    1.0000 0.88768  0.74936  0.75554  Biso   1.000  C
  C1881    1.0000 0.88954  0.87598  0.89648  Biso   1.000  C
  C1882    1.0000 0.89748  0.88351  0.90550  Biso   1.000  C
  C1883    1.0000 0.91192  0.88192  0.90618  Biso   1.000  C
  C1884    1.0000 0.91775  0.87220  0.89710  Biso   1.000  C
  C1885    1.0000 0.90981  0.86467  0.88808  Biso   1.000  C
  C1886    1.0000 0.85175  0.96859  0.15093  Biso   1.000  C
  C1887    1.0000 0.82931  0.64378  0.31888  Biso   1.000  C
  C1888    1.0000 0.89538  0.86625  0.88741  Biso   1.000  C
  C1889    1.0000 0.27971  0.47149  0.53302  Biso   1.000  C
  C1890    1.0000 0.72811  0.80708  0.80804  Biso   1.000  C
  C1891    1.0000 0.71398  0.80731  0.80736  Biso   1.000  C
  C1892    1.0000 0.70668  0.81409  0.81598  Biso   1.000  C
  C1893    1.0000 0.71466  0.82061  0.82533  Biso   1.000  C
  C1894    1.0000 0.72879  0.82038  0.82602  Biso   1.000  C
  C1895    1.0000 0.73609  0.81360  0.81740  Biso   1.000  C
  C1896    1.0000 0.90888  0.72266  0.72704  Biso   1.000  C
  C1897    1.0000 0.91490  0.71517  0.71903  Biso   1.000  C
  C1898    1.0000 0.69139  0.81434  0.81524  Biso   1.000  C
  C1899    1.0000 0.92566  0.93213  0.43634  Biso   1.000  C
  C1900    1.0000 0.36551  0.53151  0.73979  Biso   1.000  C
  C1901    1.0000 0.67883  0.81456  0.81467  Biso   1.000  C
  C1902    1.0000 0.92053  0.89006  0.91594  Biso   1.000  C
  C1903    1.0000 0.92761  0.89675  0.92396  Biso   1.000  C
  C1904    1.0000 0.93476  0.70739  0.70840  Biso   1.000  C
  C1905    1.0000 0.94174  0.69906  0.69951  Biso   1.000  C
  C1906    1.0000 0.93686  0.68880  0.69084  Biso   1.000  C
  C1907    1.0000 0.92438  0.68754  0.69178  Biso   1.000  C
  C1908    1.0000 0.91738  0.69591  0.70071  Biso   1.000  C
  C1909    1.0000 0.92233  0.70614  0.70936  Biso   1.000  C
  C1910    1.0000 0.65727  0.82008  0.82309  Biso   1.000  C
  C1911    1.0000 0.86422  0.85459  0.36320  Biso   1.000  C
  C1912    1.0000 0.93335  0.94005  0.44507  Biso   1.000  C
  C1913    1.0000 0.64320  0.82038  0.82261  Biso   1.000  C
  C1914    1.0000 0.63420  0.81552  0.81307  Biso   1.000  C
  C1915    1.0000 0.64049  0.81032  0.80402  Biso   1.000  C
  C1916    1.0000 0.65460  0.81002  0.80451  Biso   1.000  C
  C1917    1.0000 0.66355  0.81488  0.81407  Biso   1.000  C
  C1918    1.0000 0.95058  0.90345  0.93427  Biso   1.000  C
  C1919    1.0000 0.95853  0.91105  0.94323  Biso   1.000  C
  C1920    1.0000 0.95282  0.92069  0.95239  Biso   1.000  C
  C1921    1.0000 0.93847  0.92210  0.95182  Biso   1.000  C
  C1922    1.0000 0.36174  0.53561  0.74859  Biso   1.000  C
  C1923    1.0000 0.93053  0.91450  0.94286  Biso   1.000  C
  C1924    1.0000 0.94360  0.93320  0.45387  Biso   1.000  C
  C1925    1.0000 0.93624  0.90489  0.93371  Biso   1.000  C
  C1926    1.0000 0.84477  0.29994  0.82180  Biso   1.000  C
  C1927    1.0000 0.83651  0.30640  0.81227  Biso   1.000  C
  C1928    1.0000 0.82240  0.31954  0.81160  Biso   1.000  C
  C1929    1.0000 0.81660  0.32637  0.82101  Biso   1.000  C
  C1930    1.0000 0.82383  0.32070  0.83077  Biso   1.000  C
  C1931    1.0000 0.83799  0.30749  0.83094  Biso   1.000  C
  C1932    1.0000 0.79774  0.33433  0.79888  Biso   1.000  C
  C1933    1.0000 0.42023  0.48573  0.64694  Biso   1.000  C
  C1934    1.0000 0.60651  0.45354  0.66154  Biso   1.000  C
  C1935    1.0000 0.78942  0.34107  0.78960  Biso   1.000  C
  C1936    1.0000 0.79611  0.34044  0.78188  Biso   1.000  C
  C1937    1.0000 0.94560  0.91781  0.45331  Biso   1.000  C
  C1938    1.0000 0.81170  0.33247  0.78400  Biso   1.000  C
  C1939    1.0000 0.82008  0.32566  0.79330  Biso   1.000  C
  C1940    1.0000 0.81340  0.32646  0.80115  Biso   1.000  C
  C1941    1.0000 0.86660  0.27518  0.82955  Biso   1.000  C
  C1942    1.0000 0.88060  0.26186  0.82967  Biso   1.000  C
  C1943    1.0000 0.88954  0.25755  0.82237  Biso   1.000  C
  C1944    1.0000 0.88342  0.26758  0.81496  Biso   1.000  C
  C1945    1.0000 0.62162  0.45106  0.66280  Biso   1.000  C
  C1946    1.0000 0.86943  0.28087  0.81481  Biso   1.000  C
  C1947    1.0000 0.86035  0.28527  0.82209  Biso   1.000  C
  C1948    1.0000 0.82407  0.32962  0.85142  Biso   1.000  C
  C1949    1.0000 0.93787  0.90988  0.44454  Biso   1.000  C
  C1950    1.0000 0.81684  0.33784  0.86021  Biso   1.000  C
  C1951    1.0000 0.80127  0.34593  0.85885  Biso   1.000  C
  C1952    1.0000 0.79343  0.34513  0.84813  Biso   1.000  C
  C1953    1.0000 0.80060  0.33699  0.83937  Biso   1.000  C
  C1954    1.0000 0.81621  0.32902  0.84063  Biso   1.000  C
  C1955    1.0000 0.90465  0.24318  0.82247  Biso   1.000  C
  C1956    1.0000 0.62844  0.44608  0.65406  Biso   1.000  C
  C1957    1.0000 0.91709  0.23136  0.82251  Biso   1.000  C
  C1958    1.0000 0.78702  0.34787  0.77199  Biso   1.000  C
  C1959    1.0000 0.77937  0.35407  0.76386  Biso   1.000  C
  C1960    1.0000 0.79334  0.35492  0.86818  Biso   1.000  C
  C1961    1.0000 0.92766  0.91678  0.43575  Biso   1.000  C
  C1962    1.0000 0.78660  0.36242  0.87577  Biso   1.000  C
  C1963    1.0000 0.93767  0.20835  0.81317  Biso   1.000  C
  C1964    1.0000 0.95167  0.19506  0.81319  Biso   1.000  C
  C1965    1.0000 0.96127  0.18942  0.82258  Biso   1.000  C
  C1966    1.0000 0.95580  0.19808  0.83195  Biso   1.000  C
  C1967    1.0000 0.61895  0.44381  0.64401  Biso   1.000  C
  C1968    1.0000 0.94180  0.21136  0.83192  Biso   1.000  C
  C1969    1.0000 0.93220  0.21701  0.82253  Biso   1.000  C
  C1970    1.0000 0.76355  0.38288  0.88332  Biso   1.000  C
  C1971    1.0000 0.75582  0.39137  0.89181  Biso   1.000  C
  C1972    1.0000 0.76233  0.38912  0.90246  Biso   1.000  C
  C1973    1.0000 0.19294  0.43872  0.47599  Biso   1.000  C
  C1974    1.0000 0.77709  0.37779  0.90405  Biso   1.000  C
  C1975    1.0000 0.78483  0.36930  0.89556  Biso   1.000  C
  C1976    1.0000 0.77831  0.37155  0.88491  Biso   1.000  C
  C1977    1.0000 0.77502  0.35693  0.74452  Biso   1.000  C
  C1978    1.0000 0.60389  0.44629  0.64276  Biso   1.000  C
  C1979    1.0000 0.76628  0.36398  0.73538  Biso   1.000  C
  C1980    1.0000 0.75200  0.37617  0.73519  Biso   1.000  C
  C1981    1.0000 0.74701  0.38087  0.74472  Biso   1.000  C
  C1982    1.0000 0.75575  0.37382  0.75386  Biso   1.000  C
  C1983    1.0000 0.77002  0.36163  0.75405  Biso   1.000  C
  C1984    1.0000 0.97638  0.17507  0.82260  Biso   1.000  C
  C1985    1.0000 0.17172  0.49663  0.49547  Biso   1.000  C
  C1986    1.0000 0.98882  0.16326  0.82261  Biso   1.000  C
  C1987    1.0000 0.74264  0.38372  0.72538  Biso   1.000  C
  C1988    1.0000 0.73493  0.38994  0.71726  Biso   1.000  C
  C1989    1.0000 0.59706  0.45128  0.65147  Biso   1.000  C
  C1990    1.0000 0.75402  0.39824  0.91159  Biso   1.000  C
  C1991    1.0000 0.74718  0.40574  0.91912  Biso   1.000  C
  C1992    1.0000 0.01391  0.14369  0.83203  Biso   1.000  C
  C1993    1.0000 0.02789  0.13038  0.83201  Biso   1.000  C
  C1994    1.0000 0.03298  0.12124  0.82256  Biso   1.000  C
  C1995    1.0000 0.02297  0.12647  0.81313  Biso   1.000  C
  C1996    1.0000 0.00900  0.13978  0.81316  Biso   1.000  C
  C1997    1.0000 0.22827  0.46882  0.49516  Biso   1.000  C
  C1998    1.0000 0.00393  0.14890  0.82260  Biso   1.000  C
  C1999    1.0000 0.71154  0.40987  0.70715  Biso   1.000  C
  C2000    1.0000 0.25543  0.46704  0.52384  Biso   1.000  C
  C2001    1.0000 0.70304  0.41694  0.69798  Biso   1.000  C
  C2002    1.0000 0.70816  0.41196  0.68846  Biso   1.000  C
  C2003    1.0000 0.72230  0.39946  0.68874  Biso   1.000  C
  C2004    1.0000 0.73077  0.39242  0.69790  Biso   1.000  C
  C2005    1.0000 0.72569  0.39742  0.70741  Biso   1.000  C
  C2006    1.0000 0.74330  0.40921  0.93785  Biso   1.000  C
  C2007    1.0000 0.73564  0.41745  0.94638  Biso   1.000  C
  C2008    1.0000 0.72309  0.43185  0.94597  Biso   1.000  C
  C2009    1.0000 0.85914  0.96026  0.14249  Biso   1.000  C
  C2010    1.0000 0.19388  0.51135  0.47244  Biso   1.000  C
  C2011    1.0000 0.24345  0.46626  0.51492  Biso   1.000  C
  C2012    1.0000 0.71874  0.43742  0.93641  Biso   1.000  C
  C2013    1.0000 0.72642  0.42914  0.92787  Biso   1.000  C
  C2014    1.0000 0.73894  0.41474  0.92830  Biso   1.000  C
  C2015    1.0000 0.95255  0.39877  0.65677  Biso   1.000  C
  C2016    1.0000 0.95317  0.41290  0.65702  Biso   1.000  C
  C2017    1.0000 0.94075  0.42741  0.65733  Biso   1.000  C
  C2018    1.0000 0.92707  0.42763  0.65730  Biso   1.000  C
  C2019    1.0000 0.92546  0.41396  0.65703  Biso   1.000  C
  C2020    1.0000 0.93845  0.39953  0.65663  Biso   1.000  C
  C2021    1.0000 0.93067  0.45477  0.65286  Biso   1.000  C
  C2022    1.0000 0.24198  0.46879  0.50475  Biso   1.000  C
  C2023    1.0000 0.21355  0.45330  0.45240  Biso   1.000  C
  C2024    1.0000 0.93233  0.46832  0.65310  Biso   1.000  C
  C2025    1.0000 0.94562  0.47017  0.65821  Biso   1.000  C
  C2026    1.0000 0.95715  0.45793  0.66312  Biso   1.000  C
  C2027    1.0000 0.95554  0.44438  0.66287  Biso   1.000  C
  C2028    1.0000 0.94227  0.44237  0.65771  Biso   1.000  C
  C2029    1.0000 0.96732  0.36864  0.65130  Biso   1.000  C
  C2030    1.0000 0.98086  0.35506  0.65082  Biso   1.000  C
  C2031    1.0000 0.99484  0.35554  0.65575  Biso   1.000  C
  C2032    1.0000 0.99453  0.37025  0.66131  Biso   1.000  C
  C2033    1.0000 0.86839  0.83832  0.36090  Biso   1.000  C
  C2034    1.0000 0.98109  0.38378  0.66177  Biso   1.000  C
  C2035    1.0000 0.15695  0.48380  0.45451  Biso   1.000  C
  C2036    1.0000 0.96702  0.38350  0.65669  Biso   1.000  C
  C2037    1.0000 0.90524  0.40301  0.65241  Biso   1.000  C
  C2038    1.0000 0.89091  0.40463  0.65236  Biso   1.000  C
  C2039    1.0000 0.88059  0.41848  0.65719  Biso   1.000  C
  C2040    1.0000 0.88546  0.43054  0.66216  Biso   1.000  C
  C2041    1.0000 0.89970  0.42897  0.66220  Biso   1.000  C
  C2042    1.0000 0.91008  0.41521  0.65725  Biso   1.000  C
  C2043    1.0000 0.00942  0.34128  0.65520  Biso   1.000  C
  C2044    1.0000 0.37153  0.49006  0.61627  Biso   1.000  C
  C2045    1.0000 0.25348  0.47217  0.50423  Biso   1.000  C
  C2046    1.0000 0.02164  0.32967  0.65484  Biso   1.000  C
  C2047    1.0000 0.94748  0.48448  0.65845  Biso   1.000  C
  C2048    1.0000 0.23344  0.71863  0.47655  Biso   1.000  C
  C2049    1.0000 0.94914  0.49631  0.65868  Biso   1.000  C
  C2050    1.0000 0.86520  0.42045  0.65713  Biso   1.000  C
  C2051    1.0000 0.85242  0.42229  0.65714  Biso   1.000  C
  C2052    1.0000 0.04976  0.31757  0.65653  Biso   1.000  C
  C2053    1.0000 0.06368  0.30458  0.65621  Biso   1.000  C
  C2054    1.0000 0.06510  0.28908  0.65379  Biso   1.000  C
  C2055    1.0000 0.05183  0.28727  0.65172  Biso   1.000  C
  C2056    1.0000 0.26547  0.47295  0.51317  Biso   1.000  C
  C2057    1.0000 0.03790  0.30026  0.65205  Biso   1.000  C
  C2058    1.0000 0.03649  0.31577  0.65446  Biso   1.000  C
  C2059    1.0000 0.82551  0.43959  0.65907  Biso   1.000  C
  C2060    1.0000 0.22047  0.73308  0.47696  Biso   1.000  C
  C2061    1.0000 0.81105  0.44181  0.65914  Biso   1.000  C
  C2062    1.0000 0.80719  0.42921  0.65732  Biso   1.000  C
  C2063    1.0000 0.81862  0.41427  0.65544  Biso   1.000  C
  C2064    1.0000 0.83308  0.41205  0.65537  Biso   1.000  C
  C2065    1.0000 0.83695  0.42464  0.65719  Biso   1.000  C
  C2066    1.0000 0.96526  0.50994  0.66005  Biso   1.000  C
  C2067    1.0000 0.26688  0.47047  0.52332  Biso   1.000  C
  C2068    1.0000 0.96722  0.52332  0.66035  Biso   1.000  C
  C2069    1.0000 0.95520  0.53787  0.65958  Biso   1.000  C
  C2070    1.0000 0.94115  0.53846  0.65851  Biso   1.000  C
  C2071    1.0000 0.93919  0.52508  0.65821  Biso   1.000  C
  C2072    1.0000 0.20634  0.73388  0.47680  Biso   1.000  C
  C2073    1.0000 0.95121  0.51053  0.65897  Biso   1.000  C
  C2074    1.0000 0.07997  0.27519  0.65346  Biso   1.000  C
  C2075    1.0000 0.09224  0.26363  0.65318  Biso   1.000  C
  C2076    1.0000 0.95725  0.55211  0.65991  Biso   1.000  C
  C2077    1.0000 0.95886  0.56399  0.66018  Biso   1.000  C
  C2078    1.0000 0.36378  0.54883  0.76837  Biso   1.000  C
  C2079    1.0000 0.79172  0.43157  0.65740  Biso   1.000  C
  C2080    1.0000 0.77896  0.43343  0.65747  Biso   1.000  C
  C2081    1.0000 0.10857  0.23461  0.65295  Biso   1.000  C
  C2082    1.0000 0.12223  0.22131  0.65262  Biso   1.000  C
  C2083    1.0000 0.13514  0.22210  0.65217  Biso   1.000  C
  C2084    1.0000 0.20569  0.71975  0.47653  Biso   1.000  C
  C2085    1.0000 0.13356  0.23705  0.65208  Biso   1.000  C
  C2086    1.0000 0.11982  0.25039  0.65241  Biso   1.000  C
  C2087    1.0000 0.10696  0.24952  0.65285  Biso   1.000  C
  C2088    1.0000 0.94877  0.59318  0.66147  Biso   1.000  C
  C2089    1.0000 0.35953  0.55366  0.77832  Biso   1.000  C
  C2090    1.0000 0.95018  0.60683  0.66169  Biso   1.000  C
  C2091    1.0000 0.96347  0.60642  0.66096  Biso   1.000  C
  C2092    1.0000 0.97532  0.59163  0.66002  Biso   1.000  C
  C2093    1.0000 0.97388  0.57794  0.65980  Biso   1.000  C
  C2094    1.0000 0.96056  0.57844  0.66050  Biso   1.000  C
  C2095    1.0000 0.76099  0.42300  0.65807  Biso   1.000  C
  C2096    1.0000 0.21809  0.70522  0.47620  Biso   1.000  C
  C2097    1.0000 0.74672  0.42472  0.65812  Biso   1.000  C
  C2098    1.0000 0.73414  0.43904  0.65766  Biso   1.000  C
  C2099    1.0000 0.73675  0.45157  0.65716  Biso   1.000  C
  C2100    1.0000 0.34847  0.55058  0.77980  Biso   1.000  C
  C2101    1.0000 0.75108  0.44982  0.65711  Biso   1.000  C
  C2102    1.0000 0.76360  0.43547  0.65755  Biso   1.000  C
  C2103    1.0000 0.50117  0.66587  0.17705  Biso   1.000  C
  C2104    1.0000 0.46654  0.63642  0.15601  Biso   1.000  C
  C2105    1.0000 0.44432  0.69304  0.17832  Biso   1.000  C
  C2106    1.0000 0.43073  0.68328  0.13547  Biso   1.000  C
  C2107    1.0000 0.46374  0.71317  0.15746  Biso   1.000  C
  C2108    1.0000 0.23179  0.70497  0.47626  Biso   1.000  C
  C2109    1.0000 0.48734  0.65604  0.13601  Biso   1.000  C
  C2110    1.0000 0.49484  0.38565  0.13028  Biso   1.000  C
  C2111    1.0000 0.34194  0.54231  0.77068  Biso   1.000  C
  C2112    1.0000 0.49874  0.38119  0.14031  Biso   1.000  C
  C2113    1.0000 0.50033  0.39150  0.15024  Biso   1.000  C
  C2114    1.0000 0.49791  0.40676  0.14997  Biso   1.000  C
  C2115    1.0000 0.49379  0.41214  0.14034  Biso   1.000  C
  C2116    1.0000 0.49240  0.40130  0.13055  Biso   1.000  C
  C2117    1.0000 0.49959  0.39725  0.17012  Biso   1.000  C
  C2118    1.0000 0.50363  0.39286  0.18011  Biso   1.000  C
  C2119    1.0000 0.51283  0.37749  0.18161  Biso   1.000  C
  C2120    1.0000 0.17781  0.74894  0.47181  Biso   1.000  C
  C2121    1.0000 0.51772  0.36666  0.17260  Biso   1.000  C
  C2122    1.0000 0.34621  0.53748  0.76071  Biso   1.000  C
  C2123    1.0000 0.51366  0.37102  0.16257  Biso   1.000  C
  C2124    1.0000 0.50453  0.38649  0.16105  Biso   1.000  C
  C2125    1.0000 0.48369  0.37845  0.10993  Biso   1.000  C
  C2126    1.0000 0.48207  0.36749  0.10032  Biso   1.000  C
  C2127    1.0000 0.48991  0.35125  0.09975  Biso   1.000  C
  C2128    1.0000 0.49950  0.34658  0.10933  Biso   1.000  C
  C2129    1.0000 0.50112  0.35748  0.11894  Biso   1.000  C
  C2130    1.0000 0.49322  0.37381  0.11961  Biso   1.000  C
  C2131    1.0000 0.49416  0.43368  0.13319  Biso   1.000  C
  C2132    1.0000 0.87159  0.96202  0.14189  Biso   1.000  C
  C2133    1.0000 0.35723  0.54063  0.75926  Biso   1.000  C
  C2134    1.0000 0.16439  0.76250  0.47228  Biso   1.000  C
  C2135    1.0000 0.49227  0.44925  0.13412  Biso   1.000  C
  C2136    1.0000 0.48717  0.46123  0.14268  Biso   1.000  C
  C2137    1.0000 0.48391  0.45687  0.15019  Biso   1.000  C
  C2138    1.0000 0.48581  0.44137  0.14930  Biso   1.000  C
  C2139    1.0000 0.49113  0.42920  0.14083  Biso   1.000  C
  C2140    1.0000 0.48818  0.33946  0.08953  Biso   1.000  C
  C2141    1.0000 0.48683  0.32961  0.08112  Biso   1.000  C
  C2142    1.0000 0.51716  0.37297  0.19232  Biso   1.000  C
  C2143    1.0000 0.52071  0.36935  0.20124  Biso   1.000  C
  C2144    1.0000 0.64480  0.44389  0.65513  Biso   1.000  C
  C2145    1.0000 0.48526  0.47784  0.14386  Biso   1.000  C
  C2146    1.0000 0.16413  0.77719  0.47784  Biso   1.000  C
  C2147    1.0000 0.48364  0.49165  0.14500  Biso   1.000  C
  C2148    1.0000 0.48788  0.30238  0.07125  Biso   1.000  C
  C2149    1.0000 0.48640  0.29118  0.06178  Biso   1.000  C
  C2150    1.0000 0.48218  0.29459  0.05150  Biso   1.000  C
  C2151    1.0000 0.47953  0.30986  0.05123  Biso   1.000  C
  C2152    1.0000 0.48101  0.32106  0.06070  Biso   1.000  C
  C2153    1.0000 0.48523  0.31765  0.07098  Biso   1.000  C
  C2154    1.0000 0.48264  0.51801  0.15660  Biso   1.000  C
  C2155    1.0000 0.36020  0.48875  0.60699  Biso   1.000  C
  C2156    1.0000 0.86054  0.83076  0.35196  Biso   1.000  C
  C2157    1.0000 0.48075  0.53367  0.15800  Biso   1.000  C
  C2158    1.0000 0.47777  0.54051  0.14932  Biso   1.000  C
  C2159    1.0000 0.17812  0.77763  0.48278  Biso   1.000  C
  C2160    1.0000 0.47678  0.53085  0.13919  Biso   1.000  C
  C2161    1.0000 0.47867  0.51518  0.13779  Biso   1.000  C
  C2162    1.0000 0.48165  0.50835  0.14647  Biso   1.000  C
  C2163    1.0000 0.52817  0.35005  0.21310  Biso   1.000  C
  C2164    1.0000 0.53214  0.34607  0.22324  Biso   1.000  C
  C2165    1.0000 0.53305  0.35695  0.23277  Biso   1.000  C
  C2166    1.0000 0.52983  0.37199  0.23169  Biso   1.000  C
  C2167    1.0000 0.68975  0.40639  0.63582  Biso   1.000  C
  C2168    1.0000 0.52587  0.37597  0.22155  Biso   1.000  C
  C2169    1.0000 0.52495  0.36509  0.21202  Biso   1.000  C
  C2170    1.0000 0.48059  0.28259  0.04139  Biso   1.000  C
  C2171    1.0000 0.19165  0.76402  0.48229  Biso   1.000  C
  C2172    1.0000 0.47927  0.27261  0.03306  Biso   1.000  C
  C2173    1.0000 0.53729  0.35272  0.24356  Biso   1.000  C
  C2174    1.0000 0.54083  0.34923  0.25253  Biso   1.000  C
  C2175    1.0000 0.47573  0.55723  0.15079  Biso   1.000  C
  C2176    1.0000 0.47403  0.57107  0.15194  Biso   1.000  C
  C2177    1.0000 0.48011  0.26007  0.01331  Biso   1.000  C
  C2178    1.0000 0.66407  0.46582  0.63554  Biso   1.000  C
  C2179    1.0000 0.47885  0.24842  0.00406  Biso   1.000  C
  C2180    1.0000 0.47504  0.23647  0.00405  Biso   1.000  C
  C2181    1.0000 0.47253  0.23695  0.01383  Biso   1.000  C
  C2182    1.0000 0.47378  0.24857  0.02303  Biso   1.000  C
  C2183    1.0000 0.19190  0.74917  0.47690  Biso   1.000  C
  C2184    1.0000 0.47768  0.26042  0.02307  Biso   1.000  C
  C2185    1.0000 0.55297  0.35207  0.27233  Biso   1.000  C
  C2186    1.0000 0.55725  0.34803  0.28248  Biso   1.000  C
  C2187    1.0000 0.55390  0.33679  0.28417  Biso   1.000  C
  C2188    1.0000 0.54599  0.32985  0.27518  Biso   1.000  C
  C2189    1.0000 0.71863  0.44046  0.65758  Biso   1.000  C
  C2190    1.0000 0.54172  0.33390  0.26502  Biso   1.000  C
  C2191    1.0000 0.54516  0.34506  0.26335  Biso   1.000  C
  C2192    1.0000 0.46718  0.59473  0.14425  Biso   1.000  C
  C2193    1.0000 0.46531  0.61026  0.14525  Biso   1.000  C
  C2194    1.0000 0.46806  0.61975  0.15523  Biso   1.000  C
  C2195    1.0000 0.25923  0.70360  0.47142  Biso   1.000  C
  C2196    1.0000 0.47276  0.61279  0.16419  Biso   1.000  C
  C2197    1.0000 0.47463  0.59719  0.16316  Biso   1.000  C
  C2198    1.0000 0.47193  0.58775  0.15316  Biso   1.000  C
  C2199    1.0000 0.54021  0.31732  0.32060  Biso   1.000  C
  C2200    1.0000 0.67397  0.47926  0.67634  Biso   1.000  C
  C2201    1.0000 0.56497  0.35722  0.33582  Biso   1.000  C
  C2202    1.0000 0.59484  0.30204  0.34558  Biso   1.000  C
  C2203    1.0000 0.61173  0.31651  0.31985  Biso   1.000  C
  C2204    1.0000 0.58664  0.27682  0.30481  Biso   1.000  C
  C2205    1.0000 0.55933  0.33184  0.29508  Biso   1.000  C
  C2206    1.0000 0.83956  0.28957  0.31698  Biso   1.000  C
  C2207    1.0000 0.27348  0.70203  0.47147  Biso   1.000  C
  C2208    1.0000 0.83920  0.30416  0.31702  Biso   1.000  C
  C2209    1.0000 0.82618  0.31821  0.31724  Biso   1.000  C
  C2210    1.0000 0.81306  0.31745  0.31743  Biso   1.000  C
  C2211    1.0000 0.69943  0.42014  0.67858  Biso   1.000  C
  C2212    1.0000 0.81248  0.30333  0.31740  Biso   1.000  C
  C2213    1.0000 0.82594  0.28943  0.31704  Biso   1.000  C
  C2214    1.0000 0.81713  0.34826  0.32247  Biso   1.000  C
  C2215    1.0000 0.81734  0.36256  0.32257  Biso   1.000  C
  C2216    1.0000 0.82669  0.36320  0.31746  Biso   1.000  C
  C2217    1.0000 0.83582  0.34888  0.31223  Biso   1.000  C
  C2218    1.0000 0.83566  0.33457  0.31213  Biso   1.000  C
  C2219    1.0000 0.27834  0.71410  0.47643  Biso   1.000  C
  C2220    1.0000 0.82631  0.33383  0.31726  Biso   1.000  C
  C2221    1.0000 0.85516  0.25952  0.31202  Biso   1.000  C
  C2222    1.0000 0.25057  0.16195  0.99480  Biso   1.000  C
  C2223    1.0000 0.86890  0.24618  0.31165  Biso   1.000  C
  C2224    1.0000 0.88272  0.24718  0.31622  Biso   1.000  C
  C2225    1.0000 0.88202  0.26220  0.32126  Biso   1.000  C
  C2226    1.0000 0.86835  0.27551  0.32161  Biso   1.000  C
  C2227    1.0000 0.85443  0.27468  0.31692  Biso   1.000  C
  C2228    1.0000 0.79366  0.29068  0.31309  Biso   1.000  C
  C2229    1.0000 0.77977  0.29133  0.31315  Biso   1.000  C
  C2230    1.0000 0.76904  0.30479  0.31792  Biso   1.000  C
  C2231    1.0000 0.26800  0.72796  0.48125  Biso   1.000  C
  C2232    1.0000 0.77304  0.31748  0.32270  Biso   1.000  C
  C2233    1.0000 0.24158  0.15764  0.98511  Biso   1.000  C
  C2234    1.0000 0.78685  0.31688  0.32263  Biso   1.000  C
  C2235    1.0000 0.79762  0.30351  0.31775  Biso   1.000  C
  C2236    1.0000 0.89748  0.23310  0.31580  Biso   1.000  C
  C2237    1.0000 0.90980  0.22159  0.31552  Biso   1.000  C
  C2238    1.0000 0.82692  0.37840  0.31758  Biso   1.000  C
  C2239    1.0000 0.82714  0.39101  0.31767  Biso   1.000  C
  C2240    1.0000 0.75412  0.30571  0.31797  Biso   1.000  C
  C2241    1.0000 0.74171  0.30668  0.31808  Biso   1.000  C
  C2242    1.0000 0.93786  0.20966  0.31679  Biso   1.000  C
  C2243    1.0000 0.25367  0.72958  0.48119  Biso   1.000  C
  C2244    1.0000 0.24444  0.15511  0.97503  Biso   1.000  C
  C2245    1.0000 0.95186  0.19675  0.31653  Biso   1.000  C
  C2246    1.0000 0.95354  0.18122  0.31467  Biso   1.000  C
  C2247    1.0000 0.94043  0.17932  0.31310  Biso   1.000  C
  C2248    1.0000 0.92643  0.19223  0.31337  Biso   1.000  C
  C2249    1.0000 0.92476  0.20777  0.31522  Biso   1.000  C
  C2250    1.0000 0.71467  0.32250  0.31999  Biso   1.000  C
  C2251    1.0000 0.70062  0.32375  0.32015  Biso   1.000  C
  C2252    1.0000 0.69775  0.31055  0.31858  Biso   1.000  C
  C2253    1.0000 0.70975  0.29604  0.31683  Biso   1.000  C
  C2254    1.0000 0.72381  0.29479  0.31666  Biso   1.000  C
  C2255    1.0000 0.25716  0.15669  0.97478  Biso   1.000  C
  C2256    1.0000 0.87744  0.97221  0.14974  Biso   1.000  C
  C2257    1.0000 0.24884  0.71737  0.47635  Biso   1.000  C
  C2258    1.0000 0.72667  0.30799  0.31824  Biso   1.000  C
  C2259    1.0000 0.83972  0.40674  0.31615  Biso   1.000  C
  C2260    1.0000 0.83997  0.42101  0.31626  Biso   1.000  C
  C2261    1.0000 0.82792  0.43539  0.31800  Biso   1.000  C
  C2262    1.0000 0.81560  0.43485  0.31964  Biso   1.000  C
  C2263    1.0000 0.81535  0.42057  0.31954  Biso   1.000  C
  C2264    1.0000 0.82740  0.40619  0.31779  Biso   1.000  C
  C2265    1.0000 0.96850  0.16740  0.31439  Biso   1.000  C
  C2266    1.0000 0.36326  0.47880  0.59721  Biso   1.000  C
  C2267    1.0000 0.26681  0.16088  0.98427  Biso   1.000  C
  C2268    1.0000 0.98085  0.15591  0.31416  Biso   1.000  C
  C2269    1.0000 0.82818  0.45058  0.31812  Biso   1.000  C
  C2270    1.0000 0.22808  0.67784  0.48063  Biso   1.000  C
  C2271    1.0000 0.82839  0.46318  0.31821  Biso   1.000  C
  C2272    1.0000 0.68273  0.31187  0.31877  Biso   1.000  C
  C2273    1.0000 0.67032  0.31291  0.31894  Biso   1.000  C
  C2274    1.0000 0.99720  0.12662  0.31264  Biso   1.000  C
  C2275    1.0000 0.01194  0.11286  0.31237  Biso   1.000  C
  C2276    1.0000 0.02506  0.11442  0.31331  Biso   1.000  C
  C2277    1.0000 0.02354  0.12982  0.31453  Biso   1.000  C
  C2278    1.0000 0.84794  0.83894  0.34464  Biso   1.000  C
  C2279    1.0000 0.00974  0.14311  0.31482  Biso   1.000  C
  C2280    1.0000 0.99568  0.14190  0.31385  Biso   1.000  C
  C2281    1.0000 0.81647  0.49272  0.31995  Biso   1.000  C
  C2282    1.0000 0.22636  0.66431  0.48037  Biso   1.000  C
  C2283    1.0000 0.81663  0.50702  0.32003  Biso   1.000  C
  C2284    1.0000 0.82897  0.50769  0.31848  Biso   1.000  C
  C2285    1.0000 0.84113  0.49332  0.31686  Biso   1.000  C
  C2286    1.0000 0.84094  0.47902  0.31678  Biso   1.000  C
  C2287    1.0000 0.82861  0.47839  0.31832  Biso   1.000  C
  C2288    1.0000 0.65399  0.30164  0.32113  Biso   1.000  C
  C2289    1.0000 0.26321  0.16342  0.99421  Biso   1.000  C
  C2290    1.0000 0.64012  0.30253  0.32135  Biso   1.000  C
  C2291    1.0000 0.62677  0.31585  0.31962  Biso   1.000  C
  C2292    1.0000 0.62817  0.32826  0.31765  Biso   1.000  C
  C2293    1.0000 0.64210  0.32734  0.31743  Biso   1.000  C
  C2294    1.0000 0.21304  0.66252  0.47526  Biso   1.000  C
  C2295    1.0000 0.65540  0.31400  0.31917  Biso   1.000  C
  C2296    1.0000 0.79008  0.57313  0.30199  Biso   1.000  C
  C2297    1.0000 0.84252  0.54145  0.29287  Biso   1.000  C
  C2298    1.0000 0.82881  0.59796  0.31771  Biso   1.000  C
  C2299    1.0000 0.86784  0.54897  0.33389  Biso   1.000  C
  C2300    1.0000 0.23864  0.14077  0.95557  Biso   1.000  C
  C2301    1.0000 0.81526  0.57751  0.34314  Biso   1.000  C
  C2302    1.0000 0.82907  0.52323  0.31848  Biso   1.000  C
  C2303    1.0000 0.08323  0.07080  0.56995  Biso   1.000  C
  C2304    1.0000 0.07554  0.06340  0.56429  Biso   1.000  C
  C2305    1.0000 0.09289  0.08533  0.58774  Biso   1.000  C
  C2306    1.0000 0.20154  0.67480  0.47037  Biso   1.000  C
  C2307    1.0000 0.10159  0.09373  0.59416  Biso   1.000  C
  C2308    1.0000 0.11026  0.09689  0.58991  Biso   1.000  C
  C2309    1.0000 0.10986  0.09128  0.57894  Biso   1.000  C
  C2310    1.0000 0.10116  0.08288  0.57252  Biso   1.000  C
  C2311    1.0000 0.22876  0.13640  0.94647  Biso   1.000  C
  C2312    1.0000 0.09248  0.07972  0.57678  Biso   1.000  C
  C2313    1.0000 0.06603  0.04868  0.54653  Biso   1.000  C
  C2314    1.0000 0.05733  0.04029  0.54011  Biso   1.000  C
  C2315    1.0000 0.04850  0.03732  0.54434  Biso   1.000  C
  C2316    1.0000 0.04875  0.04311  0.55527  Biso   1.000  C
  C2317    1.0000 0.05745  0.05151  0.56169  Biso   1.000  C
  C2318    1.0000 0.20321  0.68833  0.47063  Biso   1.000  C
  C2319    1.0000 0.06628  0.05448  0.55747  Biso   1.000  C
  C2320    1.0000 0.11947  0.10586  0.59675  Biso   1.000  C
  C2321    1.0000 0.12704  0.11335  0.60248  Biso   1.000  C
  C2322    1.0000 0.21361  0.14194  0.94618  Biso   1.000  C
  C2323    1.0000 0.03929  0.02835  0.53750  Biso   1.000  C
  C2324    1.0000 0.03171  0.02086  0.53178  Biso   1.000  C
  C2325    1.0000 0.13154  0.13359  0.61851  Biso   1.000  C
  C2326    1.0000 0.13990  0.14219  0.62522  Biso   1.000  C
  C2327    1.0000 0.15316  0.14011  0.62325  Biso   1.000  C
  C2328    1.0000 0.15764  0.12899  0.61420  Biso   1.000  C
  C2329    1.0000 0.14923  0.12038  0.60748  Biso   1.000  C
  C2330    1.0000 0.21651  0.69028  0.47580  Biso   1.000  C
  C2331    1.0000 0.13601  0.12249  0.60951  Biso   1.000  C
  C2332    1.0000 0.00941  0.01399  0.52677  Biso   1.000  C
  C2333    1.0000 0.20874  0.15215  0.95533  Biso   1.000  C
  C2334    1.0000 0.00100  0.00536  0.52009  Biso   1.000  C
  C2335    1.0000 0.00574  0.99341  0.51058  Biso   1.000  C
  C2336    1.0000 0.01907  0.99120  0.50866  Biso   1.000  C
  C2337    1.0000 0.02745  0.99979  0.51533  Biso   1.000  C
  C2338    1.0000 0.02271  0.01174  0.52479  Biso   1.000  C
  C2339    1.0000 0.01779  0.01030  0.39639  Biso   1.000  C
  C2340    1.0000 0.02266  0.01350  0.39075  Biso   1.000  C
  C2341    1.0000 0.99631  0.00955  0.40091  Biso   1.000  C
  C2342    1.0000 0.29374  0.71214  0.47650  Biso   1.000  C
  C2343    1.0000 0.99123  0.00567  0.40754  Biso   1.000  C
  C2344    1.0000 0.21856  0.15648  0.96441  Biso   1.000  C
  C2345    1.0000 0.00160  0.99846  0.41678  Biso   1.000  C
  C2346    1.0000 0.01657  0.99550  0.41890  Biso   1.000  C
  C2347    1.0000 0.02205  0.99923  0.41245  Biso   1.000  C
  C2348    1.0000 0.01209  0.00642  0.40317  Biso   1.000  C
  C2349    1.0000 0.04337  0.01488  0.38663  Biso   1.000  C
  C2350    1.0000 0.04894  0.01853  0.38018  Biso   1.000  C
  C2351    1.0000 0.03970  0.02463  0.37108  Biso   1.000  C
  C2352    1.0000 0.02484  0.02705  0.36850  Biso   1.000  C
  C2353    1.0000 0.01927  0.02340  0.37493  Biso   1.000  C
  C2354    1.0000 0.30651  0.71031  0.47650  Biso   1.000  C
  C2355    1.0000 0.23381  0.15082  0.96484  Biso   1.000  C
  C2356    1.0000 0.02851  0.01730  0.38403  Biso   1.000  C
  C2357    1.0000 0.99641  0.99432  0.42375  Biso   1.000  C
  C2358    1.0000 0.99272  0.99059  0.42985  Biso   1.000  C
  C2359    1.0000 0.04542  0.02850  0.36431  Biso   1.000  C
  C2360    1.0000 0.04988  0.03187  0.35850  Biso   1.000  C
  C2361    1.0000 0.00159  0.97749  0.44557  Biso   1.000  C
  C2362    1.0000 0.99821  0.97312  0.45351  Biso   1.000  C
  C2363    1.0000 0.98353  0.97668  0.45330  Biso   1.000  C
  C2364    1.0000 0.97211  0.98439  0.44535  Biso   1.000  C
  C2365    1.0000 0.97497  0.98886  0.43765  Biso   1.000  C
  C2366    1.0000 0.25700  0.16111  0.01494  Biso   1.000  C
  C2367    1.0000 0.14958  0.79149  0.47840  Biso   1.000  C
  C2368    1.0000 0.98940  0.98573  0.43754  Biso   1.000  C
  C2369    1.0000 0.04479  0.04121  0.34212  Biso   1.000  C
  C2370    1.0000 0.04902  0.04561  0.33527  Biso   1.000  C
  C2371    1.0000 0.06331  0.04498  0.33753  Biso   1.000  C
  C2372    1.0000 0.07330  0.03971  0.34677  Biso   1.000  C
  C2373    1.0000 0.06900  0.03532  0.35363  Biso   1.000  C
  C2374    1.0000 0.05469  0.03611  0.35134  Biso   1.000  C
  C2375    1.0000 0.57533  0.07240  0.06370  Biso   1.000  C
  C2376    1.0000 0.58247  0.06346  0.07014  Biso   1.000  C
  H1       1.0000 0.92555  0.97934  0.14795  Biso   1.000  H
  H2       1.0000 0.08769  0.63793  0.73348  Biso   1.000  H
  H3       1.0000 0.10817  0.07202  0.06654  Biso   1.000  H
  H4       1.0000 0.95506  0.18905  0.80562  Biso   1.000  H
  H5       1.0000 0.96252  0.19449  0.83953  Biso   1.000  H
  H6       1.0000 0.93841  0.21738  0.83950  Biso   1.000  H
  H7       1.0000 0.93539  0.96028  0.13429  Biso   1.000  H
  H8       1.0000 0.22122  0.74373  0.47701  Biso   1.000  H
  H9       1.0000 0.75781  0.38524  0.87530  Biso   1.000  H
  H10      1.0000 0.74444  0.39994  0.88998  Biso   1.000  H
  H11      1.0000 0.78284  0.37543  0.91208  Biso   1.000  H
  H12      1.0000 0.79621  0.36073  0.89739  Biso   1.000  H
  H13      1.0000 0.78596  0.34756  0.74412  Biso   1.000  H
  H14      1.0000 0.03690  0.98752  0.03246  Biso   1.000  H
  H15      1.0000 0.77082  0.35977  0.72827  Biso   1.000  H
  H16      1.0000 0.73607  0.39024  0.74512  Biso   1.000  H
  H17      1.0000 0.75121  0.37802  0.76097  Biso   1.000  H
  H18      1.0000 0.01085  0.15008  0.83966  Biso   1.000  H
  H19      1.0000 0.03487  0.12720  0.83965  Biso   1.000  H
  H20      1.0000 0.19537  0.72017  0.47708  Biso   1.000  H
  H21      1.0000 0.02594  0.12013  0.80547  Biso   1.000  H
  H22      1.0000 0.00196  0.14300  0.80554  Biso   1.000  H
  H23      1.0000 0.70695  0.41434  0.71426  Biso   1.000  H
  H24      1.0000 0.69228  0.42663  0.69843  Biso   1.000  H
  H25      1.0000 0.40664  0.67285  0.47717  Biso   1.000  H
  H26      1.0000 0.72709  0.39502  0.68173  Biso   1.000  H
  H27      1.0000 0.74163  0.38285  0.69755  Biso   1.000  H
  H28      1.0000 0.75287  0.39815  0.93875  Biso   1.000  H
  H29      1.0000 0.73969  0.41230  0.95346  Biso   1.000  H
  H30      1.0000 0.70911  0.44841  0.93543  Biso   1.000  H
  H31      1.0000 0.72241  0.43413  0.92071  Biso   1.000  H
  H32      1.0000 0.17699  0.73806  0.46717  Biso   1.000  H
  H33      1.0000 0.93772  0.38887  0.65660  Biso   1.000  H
  H34      1.0000 0.96347  0.41251  0.65646  Biso   1.000  H
  H35      1.0000 0.91746  0.43875  0.65745  Biso   1.000  H
  H36      1.0000 0.02244  0.97221  0.02106  Biso   1.000  H
  H37      1.0000 0.92017  0.45392  0.64857  Biso   1.000  H
  H38      1.0000 0.92306  0.47753  0.64915  Biso   1.000  H
  H39      1.0000 0.96765  0.45888  0.66725  Biso   1.000  H
  H40      1.0000 0.96488  0.43545  0.66703  Biso   1.000  H
  H41      1.0000 0.95692  0.36748  0.64711  Biso   1.000  H
  H42      1.0000 0.98040  0.34393  0.64640  Biso   1.000  H
  H43      1.0000 0.00499  0.37134  0.66539  Biso   1.000  H
  H44      1.0000 0.15392  0.76145  0.46820  Biso   1.000  H
  H45      1.0000 0.98188  0.39468  0.66640  Biso   1.000  H
  H46      1.0000 0.91249  0.39204  0.64833  Biso   1.000  H
  H47      1.0000 0.99630  0.00888  0.00212  Biso   1.000  H
  H48      1.0000 0.88781  0.39482  0.64837  Biso   1.000  H
  H49      1.0000 0.87805  0.44151  0.66614  Biso   1.000  H
  H50      1.0000 0.90262  0.43883  0.66643  Biso   1.000  H
  H51      1.0000 0.04935  0.32932  0.65846  Biso   1.000  H
  H52      1.0000 0.07358  0.30671  0.65788  Biso   1.000  H
  H53      1.0000 0.05224  0.27552  0.64981  Biso   1.000  H
  H54      1.0000 0.02801  0.29813  0.65038  Biso   1.000  H
  H55      1.0000 0.82780  0.44981  0.66054  Biso   1.000  H
  H56      1.0000 0.17863  0.78874  0.48720  Biso   1.000  H
  H57      1.0000 0.80269  0.45367  0.66065  Biso   1.000  H
  H58      1.0000 0.01082  0.02409  0.01351  Biso   1.000  H
  H59      1.0000 0.81633  0.40404  0.65398  Biso   1.000  H
  H60      1.0000 0.84144  0.40019  0.65387  Biso   1.000  H
  H61      1.0000 0.97492  0.49888  0.66068  Biso   1.000  H
  H62      1.0000 0.97834  0.52231  0.66120  Biso   1.000  H
  H63      1.0000 0.93149  0.54952  0.65788  Biso   1.000  H
  H64      1.0000 0.92807  0.52610  0.65736  Biso   1.000  H
  H65      1.0000 0.09899  0.23321  0.65328  Biso   1.000  H
  H66      1.0000 0.12260  0.21014  0.65270  Biso   1.000  H
  H67      1.0000 0.14308  0.23851  0.65172  Biso   1.000  H
  H68      1.0000 0.20206  0.76514  0.48648  Biso   1.000  H
  H69      1.0000 0.14904  0.11021  0.12004  Biso   1.000  H
  H70      1.0000 0.11925  0.26166  0.65231  Biso   1.000  H
  H71      1.0000 0.93822  0.59413  0.66203  Biso   1.000  H
  H72      1.0000 0.94056  0.61793  0.66240  Biso   1.000  H
  H73      1.0000 0.98587  0.59056  0.65938  Biso   1.000  H
  H74      1.0000 0.98335  0.56672  0.65902  Biso   1.000  H
  H75      1.0000 0.77022  0.41159  0.65842  Biso   1.000  H
  H76      1.0000 0.74558  0.41448  0.65850  Biso   1.000  H
  H77      1.0000 0.72755  0.46299  0.65677  Biso   1.000  H
  H78      1.0000 0.75238  0.45994  0.65670  Biso   1.000  H
  H79      1.0000 0.48939  0.40513  0.12306  Biso   1.000  H
  H80      1.0000 0.16335  0.12558  0.13149  Biso   1.000  H
  H81      1.0000 0.25633  0.69372  0.46720  Biso   1.000  H
  H82      1.0000 0.50001  0.36966  0.14042  Biso   1.000  H
  H83      1.0000 0.49990  0.41444  0.15750  Biso   1.000  H
  H84      1.0000 0.49219  0.40935  0.16952  Biso   1.000  H
  H85      1.0000 0.49945  0.40169  0.18684  Biso   1.000  H
  H86      1.0000 0.52491  0.35456  0.17336  Biso   1.000  H
  H87      1.0000 0.51809  0.36209  0.15597  Biso   1.000  H
  H88      1.0000 0.47702  0.39080  0.10975  Biso   1.000  H
  H89      1.0000 0.47443  0.37185  0.09316  Biso   1.000  H
  H90      1.0000 0.50597  0.33416  0.10940  Biso   1.000  H
  H91      1.0000 0.13733  0.16124  0.11245  Biso   1.000  H
  H92      1.0000 0.50901  0.35283  0.12592  Biso   1.000  H
  H93      1.0000 0.28090  0.69106  0.46751  Biso   1.000  H
  H94      1.0000 0.49844  0.42493  0.12648  Biso   1.000  H
  H95      1.0000 0.49497  0.45197  0.12804  Biso   1.000  H
  H96      1.0000 0.47978  0.46569  0.15693  Biso   1.000  H
  H97      1.0000 0.48277  0.43904  0.15537  Biso   1.000  H
  H98      1.0000 0.49119  0.29903  0.07897  Biso   1.000  H
  H99      1.0000 0.48861  0.27956  0.06252  Biso   1.000  H
  H100     1.0000 0.47622  0.31321  0.04351  Biso   1.000  H
  H101     1.0000 0.47880  0.33269  0.05996  Biso   1.000  H
  H102     1.0000 0.12304  0.14574  0.10101  Biso   1.000  H
  H103     1.0000 0.48492  0.51333  0.16362  Biso   1.000  H
  H104     1.0000 0.48163  0.54061  0.16604  Biso   1.000  H
  H105     1.0000 0.27110  0.73777  0.48523  Biso   1.000  H
  H106     1.0000 0.47449  0.53553  0.13217  Biso   1.000  H
  H107     1.0000 0.47778  0.50825  0.12975  Biso   1.000  H
  H108     1.0000 0.52761  0.34119  0.20593  Biso   1.000  H
  H109     1.0000 0.53454  0.33423  0.22365  Biso   1.000  H
  H110     1.0000 0.53040  0.38084  0.23885  Biso   1.000  H
  H111     1.0000 0.52346  0.38780  0.22114  Biso   1.000  H
  H112     1.0000 0.48320  0.26893  0.01284  Biso   1.000  H
  H113     1.0000 0.10381  0.62093  0.70468  Biso   1.000  H
  H114     1.0000 0.01693  0.02332  0.91928  Biso   1.000  H
  H115     1.0000 0.48113  0.24869  0.99683  Biso   1.000  H
  H116     1.0000 0.46968  0.22801  0.01448  Biso   1.000  H
  H117     1.0000 0.47179  0.24819  0.03035  Biso   1.000  H
  H118     1.0000 0.24641  0.74055  0.48525  Biso   1.000  H
  H119     1.0000 0.55591  0.36079  0.27144  Biso   1.000  H
  H120     1.0000 0.56345  0.35377  0.28910  Biso   1.000  H
  H121     1.0000 0.54316  0.32097  0.27594  Biso   1.000  H
  H122     1.0000 0.53568  0.32811  0.25829  Biso   1.000  H
  H123     1.0000 0.46493  0.58797  0.13630  Biso   1.000  H
  H124     1.0000 0.46171  0.61484  0.13797  Biso   1.000  H
  H125     1.0000 0.00845  0.01461  0.93034  Biso   1.000  H
  H126     1.0000 0.47518  0.61943  0.17215  Biso   1.000  H
  H127     1.0000 0.47836  0.59238  0.17036  Biso   1.000  H
  H128     1.0000 0.82594  0.27848  0.31722  Biso   1.000  H
  H129     1.0000 0.84929  0.30462  0.31684  Biso   1.000  H
  H130     1.0000 0.94242  0.95706  0.11784  Biso   1.000  H
  H131     1.0000 0.23860  0.67863  0.48492  Biso   1.000  H
  H132     1.0000 0.80290  0.32804  0.31713  Biso   1.000  H
  H133     1.0000 0.80981  0.34860  0.32679  Biso   1.000  H
  H134     1.0000 0.81007  0.37336  0.32678  Biso   1.000  H
  H135     1.0000 0.84323  0.34877  0.30809  Biso   1.000  H
  H136     1.0000 0.02067  0.96824  0.91022  Biso   1.000  H
  H137     1.0000 0.84284  0.32395  0.30773  Biso   1.000  H
  H138     1.0000 0.84493  0.25788  0.30813  Biso   1.000  H
  H139     1.0000 0.86872  0.23482  0.30763  Biso   1.000  H
  H140     1.0000 0.89233  0.26371  0.32504  Biso   1.000  H
  H141     1.0000 0.86887  0.28665  0.32587  Biso   1.000  H
  H142     1.0000 0.80127  0.27996  0.30906  Biso   1.000  H
  H143     1.0000 0.23561  0.65507  0.48431  Biso   1.000  H
  H144     1.0000 0.77733  0.28107  0.30931  Biso   1.000  H
  H145     1.0000 0.76527  0.32819  0.32661  Biso   1.000  H
  H146     1.0000 0.78912  0.32718  0.32670  Biso   1.000  H
  H147     1.0000 0.88928  0.97868  0.11845  Biso   1.000  H
  H148     1.0000 0.93727  0.22142  0.31827  Biso   1.000  H
  H149     1.0000 0.96161  0.19897  0.31780  Biso   1.000  H
  H150     1.0000 0.94103  0.16756  0.31163  Biso   1.000  H
  H151     1.0000 0.91669  0.19002  0.31210  Biso   1.000  H
  H152     1.0000 0.71621  0.33315  0.32126  Biso   1.000  H
  H153     1.0000 0.69177  0.33532  0.32155  Biso   1.000  H
  H154     1.0000 0.70822  0.28539  0.31556  Biso   1.000  H
  H155     1.0000 0.19102  0.67389  0.46624  Biso   1.000  H
  H156     1.0000 0.73266  0.28322  0.31527  Biso   1.000  H
  H157     1.0000 0.84935  0.39587  0.31476  Biso   1.000  H
  H158     1.0000 0.03992  0.87144  0.48149  Biso   1.000  H
  H159     1.0000 0.84979  0.42083  0.31494  Biso   1.000  H
  H160     1.0000 0.80597  0.44571  0.32103  Biso   1.000  H
  H161     1.0000 0.80553  0.42076  0.32085  Biso   1.000  H
  H162     1.0000 0.98747  0.12464  0.31188  Biso   1.000  H
  H163     1.0000 0.01237  0.10130  0.31142  Biso   1.000  H
  H164     1.0000 0.03331  0.13171  0.31530  Biso   1.000  H
  H165     1.0000 0.00945  0.15462  0.31578  Biso   1.000  H
  H166     1.0000 0.80663  0.49284  0.32117  Biso   1.000  H
  H167     1.0000 0.19389  0.69728  0.46649  Biso   1.000  H
  H168     1.0000 0.80685  0.51776  0.32131  Biso   1.000  H
  H169     1.0000 0.02914  0.97696  0.89915  Biso   1.000  H
  H170     1.0000 0.85102  0.49305  0.31561  Biso   1.000  H
  H171     1.0000 0.85065  0.46820  0.31549  Biso   1.000  H
  H172     1.0000 0.66389  0.29099  0.32254  Biso   1.000  H
  H173     1.0000 0.63991  0.29246  0.32292  Biso   1.000  H
  H174     1.0000 0.61832  0.33892  0.31623  Biso   1.000  H
  H175     1.0000 0.64247  0.33732  0.31587  Biso   1.000  H
  H176     1.0000 0.08634  0.08317  0.59140  Biso   1.000  H
  H177     1.0000 0.10154  0.09787  0.60264  Biso   1.000  H
  H178     1.0000 0.11640  0.09345  0.57528  Biso   1.000  H
  H179     1.0000 0.31762  0.73244  0.48015  Biso   1.000  H
  H180     1.0000 0.04389  0.99423  0.87903  Biso   1.000  H
  H181     1.0000 0.10119  0.07875  0.56404  Biso   1.000  H
  H182     1.0000 0.07271  0.05070  0.54289  Biso   1.000  H
  H183     1.0000 0.05750  0.03600  0.53166  Biso   1.000  H
  H184     1.0000 0.04208  0.04109  0.55892  Biso   1.000  H
  H185     1.0000 0.05729  0.05579  0.57015  Biso   1.000  H
  H186     1.0000 0.12136  0.13563  0.62041  Biso   1.000  H
  H187     1.0000 0.13584  0.15060  0.63212  Biso   1.000  H
  H188     1.0000 0.16784  0.12683  0.61229  Biso   1.000  H
  H189     1.0000 0.15316  0.11186  0.60057  Biso   1.000  H
  H190     1.0000 0.00544  0.02264  0.53362  Biso   1.000  H
  H191     1.0000 0.05230  0.00325  0.86811  Biso   1.000  H
  H192     1.0000 0.34273  0.72862  0.48006  Biso   1.000  H
  H193     1.0000 0.99075  0.00761  0.52198  Biso   1.000  H
  H194     1.0000 0.02319  0.98267  0.50182  Biso   1.000  H
  H195     1.0000 0.03769  0.99762  0.51346  Biso   1.000  H
  H196     1.0000 0.98862  0.01487  0.39410  Biso   1.000  H
  H197     1.0000 0.97955  0.00797  0.40589  Biso   1.000  H
  H198     1.0000 0.02415  0.99017  0.42574  Biso   1.000  H
  H199     1.0000 0.03379  0.99679  0.41429  Biso   1.000  H
  H200     1.0000 0.05069  0.01011  0.39373  Biso   1.000  H
  H201     1.0000 0.06058  0.01659  0.38229  Biso   1.000  H
  H202     1.0000 0.04120  0.04812  0.88890  Biso   1.000  H
  H203     1.0000 0.01752  0.03182  0.36140  Biso   1.000  H
  H204     1.0000 0.35613  0.67900  0.47266  Biso   1.000  H
  H205     1.0000 0.00763  0.02535  0.37283  Biso   1.000  H
  H206     1.0000 0.01301  0.97483  0.44574  Biso   1.000  H
  H207     1.0000 0.00742  0.96710  0.45951  Biso   1.000  H
  H208     1.0000 0.96064  0.98724  0.44516  Biso   1.000  H
  H209     1.0000 0.96574  0.99500  0.43171  Biso   1.000  H
  H210     1.0000 0.03357  0.04187  0.34026  Biso   1.000  H
  H211     1.0000 0.04088  0.04964  0.32817  Biso   1.000  H
  H212     1.0000 0.08451  0.03913  0.34879  Biso   1.000  H
  H213     1.0000 0.03279  0.03910  0.89982  Biso   1.000  H
  H214     1.0000 0.07685  0.03135  0.36084  Biso   1.000  H
  H215     1.0000 0.56001  0.10391  0.06790  Biso   1.000  H
  H216     1.0000 0.33102  0.68282  0.47275  Biso   1.000  H
  H217     1.0000 0.54573  0.12181  0.05495  Biso   1.000  H
  H218     1.0000 0.55712  0.08292  0.02914  Biso   1.000  H
  H219     1.0000 0.57140  0.06502  0.04209  Biso   1.000  H
  H220     1.0000 0.59862  0.03211  0.06599  Biso   1.000  H
  H221     1.0000 0.61292  0.01418  0.07892  Biso   1.000  H
  H222     1.0000 0.59990  0.05274  0.10463  Biso   1.000  H
  H223     1.0000 0.58560  0.07067  0.09170  Biso   1.000  H
  H224     1.0000 0.12942  0.61536  0.71538  Biso   1.000  H
  H225     1.0000 0.00910  0.95092  0.93317  Biso   1.000  H
  H226     1.0000 0.54237  0.12132  0.00891  Biso   1.000  H
  H227     1.0000 0.52863  0.13834  0.99559  Biso   1.000  H
  H228     1.0000 0.49455  0.16597  0.01364  Biso   1.000  H
  H229     1.0000 0.18351  0.63386  0.47245  Biso   1.000  H
  H230     1.0000 0.50850  0.14875  0.02692  Biso   1.000  H
  H231     1.0000 0.64960  0.98707  0.10684  Biso   1.000  H
  H232     1.0000 0.66389  0.96940  0.12066  Biso   1.000  H
  H233     1.0000 0.62956  0.99679  0.13856  Biso   1.000  H
  H234     1.0000 0.61552  0.01401  0.12543  Biso   1.000  H
  H235     1.0000 0.09048  0.57705  0.55212  Biso   1.000  H
  H236     1.0000 0.00104  0.94363  0.94601  Biso   1.000  H
  H237     1.0000 0.10714  0.56471  0.53944  Biso   1.000  H
  H238     1.0000 0.11715  0.51950  0.54421  Biso   1.000  H
  H239     1.0000 0.10049  0.53184  0.55690  Biso   1.000  H
  H240     1.0000 0.06971  0.55542  0.58170  Biso   1.000  H
  H241     1.0000 0.17998  0.61049  0.47189  Biso   1.000  H
  H242     1.0000 0.05305  0.56776  0.59439  Biso   1.000  H
  H243     1.0000 0.04116  0.61277  0.58828  Biso   1.000  H
  H244     1.0000 0.05783  0.60043  0.57560  Biso   1.000  H
  H245     1.0000 0.15751  0.49993  0.52641  Biso   1.000  H
  H246     1.0000 0.17394  0.48732  0.51366  Biso   1.000  H
  H247     1.0000 0.98207  0.99239  0.96043  Biso   1.000  H
  H248     1.0000 0.14648  0.52463  0.49608  Biso   1.000  H
  H249     1.0000 0.13013  0.53714  0.50889  Biso   1.000  H
  H250     1.0000 0.00170  0.63231  0.60660  Biso   1.000  H
  H251     1.0000 0.98460  0.64553  0.61975  Biso   1.000  H
  H252     1.0000 0.01312  0.60726  0.63712  Biso   1.000  H
  H253     1.0000 0.98976  0.99970  0.94841  Biso   1.000  H
  H254     1.0000 0.06894  0.01907  0.84904  Biso   1.000  H
  H255     1.0000 0.01610  0.89462  0.48206  Biso   1.000  H
  H256     1.0000 0.07686  0.02794  0.83788  Biso   1.000  H
  H257     1.0000 0.06243  0.07419  0.85716  Biso   1.000  H
  H258     1.0000 0.05460  0.06503  0.86820  Biso   1.000  H
  H259     1.0000 0.63644  0.59381  0.73932  Biso   1.000  H
  H260     1.0000 0.23949  0.61901  0.79153  Biso   1.000  H
  H261     1.0000 0.64364  0.56704  0.72851  Biso   1.000  H
  H262     1.0000 0.65202  0.58214  0.70564  Biso   1.000  H
  H263     1.0000 0.64482  0.60890  0.71645  Biso   1.000  H
  H264     1.0000 0.63070  0.65979  0.73672  Biso   1.000  H
  H265     1.0000 0.62352  0.68657  0.74750  Biso   1.000  H
  H266     1.0000 0.61612  0.67136  0.77080  Biso   1.000  H
  H267     1.0000 0.03652  0.92283  0.48073  Biso   1.000  H
  H268     1.0000 0.62330  0.64457  0.76002  Biso   1.000  H
  H269     1.0000 0.67140  0.53074  0.68786  Biso   1.000  H
  H270     1.0000 0.67870  0.50465  0.67652  Biso   1.000  H
  H271     1.0000 0.23042  0.60668  0.47631  Biso   1.000  H
  H272     1.0000 0.65935  0.49096  0.69326  Biso   1.000  H
  H273     1.0000 0.65208  0.51729  0.70463  Biso   1.000  H
  H274     1.0000 0.61362  0.73622  0.76929  Biso   1.000  H
  H275     1.0000 0.60654  0.76298  0.77983  Biso   1.000  H
  H276     1.0000 0.59176  0.75024  0.80039  Biso   1.000  H
  H277     1.0000 0.59890  0.72348  0.78976  Biso   1.000  H
  H278     1.0000 0.11803  0.15790  0.22675  Biso   1.000  H
  H279     1.0000 0.06012  0.89972  0.48017  Biso   1.000  H
  H280     1.0000 0.12642  0.16653  0.21557  Biso   1.000  H
  H281     1.0000 0.16327  0.12190  0.21273  Biso   1.000  H
  H282     1.0000 0.26523  0.61284  0.80203  Biso   1.000  H
  H283     1.0000 0.15489  0.11328  0.22391  Biso   1.000  H
  H284     1.0000 0.13872  0.09675  0.24275  Biso   1.000  H
  H285     1.0000 0.13040  0.08779  0.25377  Biso   1.000  H
  H286     1.0000 0.09552  0.13345  0.25896  Biso   1.000  H
  H287     1.0000 0.10384  0.14241  0.24794  Biso   1.000  H
  H288     1.0000 0.16963  0.13428  0.18588  Biso   1.000  H
  H289     1.0000 0.17744  0.14101  0.17350  Biso   1.000  H
  H290     1.0000 0.15802  0.18971  0.18781  Biso   1.000  H
  H291     1.0000 0.22013  0.53878  0.47147  Biso   1.000  H
  H292     1.0000 0.15028  0.18264  0.20019  Biso   1.000  H
  H293     1.0000 0.27905  0.56704  0.78246  Biso   1.000  H
  H294     1.0000 0.09089  0.11725  0.28597  Biso   1.000  H
  H295     1.0000 0.08308  0.10829  0.29715  Biso   1.000  H
  H296     1.0000 0.09762  0.06207  0.27787  Biso   1.000  H
  H297     1.0000 0.10534  0.07130  0.26680  Biso   1.000  H
  H298     1.0000 0.57282  0.59904  0.08260  Biso   1.000  H
  H299     1.0000 0.55612  0.61566  0.09512  Biso   1.000  H
  H300     1.0000 0.53761  0.58186  0.08672  Biso   1.000  H
  H301     1.0000 0.55431  0.56524  0.07420  Biso   1.000  H
  H302     1.0000 0.58615  0.53372  0.05113  Biso   1.000  H
  H303     1.0000 0.21785  0.51495  0.47109  Biso   1.000  H
  H304     1.0000 0.25339  0.57330  0.77205  Biso   1.000  H
  H305     1.0000 0.60286  0.51710  0.03861  Biso   1.000  H
  H306     1.0000 0.62030  0.55164  0.04621  Biso   1.000  H
  H307     1.0000 0.60359  0.56825  0.05873  Biso   1.000  H
  H308     1.0000 0.50145  0.61735  0.10592  Biso   1.000  H
  H309     1.0000 0.48481  0.63309  0.11841  Biso   1.000  H
  H310     1.0000 0.51283  0.65774  0.13533  Biso   1.000  H
  H311     1.0000 0.52941  0.64185  0.12274  Biso   1.000  H
  H312     1.0000 0.65686  0.51608  0.02739  Biso   1.000  H
  H313     1.0000 0.67356  0.50043  0.01495  Biso   1.000  H
  H314     1.0000 0.64595  0.47529  0.99812  Biso   1.000  H
  H315     1.0000 0.05345  0.61614  0.69006  Biso   1.000  H
  H316     1.0000 0.17236  0.54211  0.47372  Biso   1.000  H
  H317     1.0000 0.62930  0.49110  0.01068  Biso   1.000  H
  H318     1.0000 0.66345  0.60529  0.26189  Biso   1.000  H
  H319     1.0000 0.68909  0.59710  0.27283  Biso   1.000  H
  H320     1.0000 0.70222  0.60943  0.25114  Biso   1.000  H
  H321     1.0000 0.67658  0.61762  0.24020  Biso   1.000  H
  H322     1.0000 0.62680  0.63312  0.21873  Biso   1.000  H
  H323     1.0000 0.60117  0.64133  0.20777  Biso   1.000  H
  H324     1.0000 0.58779  0.62991  0.22980  Biso   1.000  H
  H325     1.0000 0.61342  0.62170  0.24075  Biso   1.000  H
  H326     1.0000 0.02812  0.62130  0.67917  Biso   1.000  H
  H327     1.0000 0.75163  0.59516  0.27304  Biso   1.000  H
  H328     1.0000 0.17483  0.56600  0.47408  Biso   1.000  H
  H329     1.0000 0.77723  0.58702  0.28383  Biso   1.000  H
  H330     1.0000 0.76515  0.57132  0.30431  Biso   1.000  H
  H331     1.0000 0.73954  0.57951  0.29346  Biso   1.000  H
  H332     1.0000 0.53847  0.64194  0.20598  Biso   1.000  H
  H333     1.0000 0.51314  0.65020  0.19458  Biso   1.000  H
  H334     1.0000 0.52587  0.66987  0.17710  Biso   1.000  H
  H335     1.0000 0.55101  0.66160  0.18847  Biso   1.000  H
  H336     1.0000 0.60902  0.15001  0.25979  Biso   1.000  H
  H337     1.0000 0.89661  0.97495  0.10187  Biso   1.000  H
  H338     1.0000 0.01346  0.66912  0.69550  Biso   1.000  H
  H339     1.0000 0.60103  0.17652  0.27093  Biso   1.000  H
  H340     1.0000 0.62840  0.18697  0.25938  Biso   1.000  H
  H341     1.0000 0.00167  0.91877  0.65518  Biso   1.000  H
  H342     1.0000 0.63639  0.16046  0.24824  Biso   1.000  H
  H343     1.0000 0.64783  0.11212  0.22504  Biso   1.000  H
  H344     1.0000 0.65573  0.08562  0.21387  Biso   1.000  H
  H345     1.0000 0.63544  0.07230  0.22999  Biso   1.000  H
  H346     1.0000 0.62755  0.09880  0.24116  Biso   1.000  H
  H347     1.0000 0.62159  0.22518  0.29620  Biso   1.000  H
  H348     1.0000 0.61390  0.25158  0.30726  Biso   1.000  H
  H349     1.0000 0.03889  0.66384  0.70639  Biso   1.000  H
  H350     1.0000 0.57015  0.26431  0.28696  Biso   1.000  H
  H351     1.0000 0.57800  0.23784  0.27597  Biso   1.000  H
  H352     1.0000 0.63662  0.03616  0.19211  Biso   1.000  H
  H353     1.0000 0.99178  0.87792  0.63879  Biso   1.000  H
  H354     1.0000 0.64297  0.01043  0.18033  Biso   1.000  H
  H355     1.0000 0.68868  0.99689  0.19708  Biso   1.000  H
  H356     1.0000 0.68210  0.02289  0.20889  Biso   1.000  H
  H357     1.0000 0.55463  0.47544  0.39336  Biso   1.000  H
  H358     1.0000 0.56180  0.44866  0.38257  Biso   1.000  H
  H359     1.0000 0.51632  0.45953  0.36632  Biso   1.000  H
  H360     1.0000 0.54452  0.96790  0.89323  Biso   1.000  H
  H361     1.0000 0.50916  0.48630  0.37711  Biso   1.000  H
  H362     1.0000 0.49557  0.53721  0.39748  Biso   1.000  H
  H363     1.0000 0.48837  0.56397  0.40830  Biso   1.000  H
  H364     1.0000 0.53377  0.55298  0.42482  Biso   1.000  H
  H365     1.0000 0.94404  0.97014  0.16225  Biso   1.000  H
  H366     1.0000 0.00265  0.88971  0.67377  Biso   1.000  H
  H367     1.0000 0.54097  0.52622  0.41400  Biso   1.000  H
  H368     1.0000 0.54529  0.39676  0.36422  Biso   1.000  H
  H369     1.0000 0.55240  0.37003  0.35363  Biso   1.000  H
  H370     1.0000 0.56714  0.38293  0.33315  Biso   1.000  H
  H371     1.0000 0.55254  0.94139  0.88209  Biso   1.000  H
  H372     1.0000 0.55998  0.40966  0.34381  Biso   1.000  H
  H373     1.0000 0.50687  0.61580  0.42915  Biso   1.000  H
  H374     1.0000 0.49958  0.64210  0.44056  Biso   1.000  H
  H375     1.0000 0.48014  0.62832  0.45716  Biso   1.000  H
  H376     1.0000 0.48745  0.60226  0.44578  Biso   1.000  H
  H377     1.0000 0.99132  0.49717  0.38209  Biso   1.000  H
  H378     1.0000 0.00973  0.86275  0.67208  Biso   1.000  H
  H379     1.0000 0.96566  0.50288  0.37144  Biso   1.000  H
  H380     1.0000 0.95913  0.54982  0.37341  Biso   1.000  H
  H381     1.0000 0.98478  0.54411  0.38406  Biso   1.000  H
  H382     1.0000 0.53585  0.96141  0.85401  Biso   1.000  H
  H383     1.0000 0.03517  0.53242  0.40355  Biso   1.000  H
  H384     1.0000 0.06082  0.52675  0.41420  Biso   1.000  H
  H385     1.0000 0.06613  0.48110  0.41458  Biso   1.000  H
  H386     1.0000 0.04048  0.48677  0.40392  Biso   1.000  H
  H387     1.0000 0.90564  0.56068  0.36159  Biso   1.000  H
  H388     1.0000 0.87995  0.56700  0.35122  Biso   1.000  H
  H389     1.0000 0.89361  0.52110  0.33176  Biso   1.000  H
  H390     1.0000 0.00522  0.83944  0.67206  Biso   1.000  H
  H391     1.0000 0.91937  0.51488  0.34223  Biso   1.000  H
  H392     1.0000 0.12029  0.46924  0.42708  Biso   1.000  H
  H393     1.0000 0.13097  0.83462  0.48256  Biso   1.000  H
  H394     1.0000 0.14570  0.46378  0.43802  Biso   1.000  H
  H395     1.0000 0.13134  0.51167  0.45424  Biso   1.000  H
  H396     1.0000 0.10602  0.51700  0.44329  Biso   1.000  H
  H397     1.0000 0.97445  0.84530  0.64187  Biso   1.000  H
  H398     1.0000 0.97775  0.86795  0.64150  Biso   1.000  H
  H399     1.0000 0.01123  0.91249  0.64014  Biso   1.000  H
  H400     1.0000 0.00743  0.91885  0.62285  Biso   1.000  H
  H401     1.0000 0.97451  0.89909  0.60865  Biso   1.000  H
  H402     1.0000 0.97775  0.89313  0.62582  Biso   1.000  H
  H403     1.0000 0.02088  0.92112  0.66920  Biso   1.000  H
  H404     1.0000 0.52783  0.98793  0.86514  Biso   1.000  H
  H405     1.0000 0.96093  0.97798  0.17793  Biso   1.000  H
  H406     1.0000 0.02766  0.93878  0.68519  Biso   1.000  H
  H407     1.0000 0.00387  0.93121  0.70193  Biso   1.000  H
  H408     1.0000 0.99658  0.91377  0.68587  Biso   1.000  H
  H409     1.0000 0.97561  0.90294  0.57474  Biso   1.000  H
  H410     1.0000 0.97205  0.90941  0.55743  Biso   1.000  H
  H411     1.0000 0.98831  0.94499  0.57394  Biso   1.000  H
  H412     1.0000 0.99187  0.93852  0.59123  Biso   1.000  H
  H413     1.0000 0.02815  0.95668  0.73377  Biso   1.000  H
  H414     1.0000 0.03540  0.97469  0.74961  Biso   1.000  H
  H415     1.0000 0.50955  0.04002  0.88697  Biso   1.000  H
  H416     1.0000 0.03733  0.99900  0.72913  Biso   1.000  H
  H417     1.0000 0.92490  0.00673  0.19380  Biso   1.000  H
  H418     1.0000 0.03008  0.98099  0.71329  Biso   1.000  H
  H419     1.0000 0.97426  0.79661  0.63947  Biso   1.000  H
  H420     1.0000 0.97020  0.77373  0.63929  Biso   1.000  H
  H421     1.0000 0.98598  0.77923  0.67331  Biso   1.000  H
  H422     1.0000 0.99003  0.80211  0.67349  Biso   1.000  H
  H423     1.0000 0.96823  0.96382  0.54164  Biso   1.000  H
  H424     1.0000 0.96548  0.97118  0.52503  Biso   1.000  H
  H425     1.0000 0.97637  0.92333  0.50887  Biso   1.000  H
  H426     1.0000 0.50164  0.06652  0.89815  Biso   1.000  H
  H427     1.0000 0.97907  0.91614  0.52564  Biso   1.000  H
  H428     1.0000 0.97636  0.73842  0.67354  Biso   1.000  H
  H429     1.0000 0.90763  0.99929  0.17797  Biso   1.000  H
  H430     1.0000 0.97307  0.71562  0.67412  Biso   1.000  H
  H431     1.0000 0.96176  0.70542  0.63976  Biso   1.000  H
  H432     1.0000 0.96510  0.72840  0.63931  Biso   1.000  H
  H433     1.0000 0.04048  0.04070  0.76259  Biso   1.000  H
  H434     1.0000 0.04880  0.05752  0.77875  Biso   1.000  H
  H435     1.0000 0.07045  0.01900  0.79538  Biso   1.000  H
  H436     1.0000 0.06212  0.00246  0.77928  Biso   1.000  H
  H437     1.0000 0.52347  0.04653  0.92642  Biso   1.000  H
  H438     1.0000 0.76609  0.22123  0.51043  Biso   1.000  H
  H439     1.0000 0.75350  0.21056  0.47590  Biso   1.000  H
  H440     1.0000 0.72748  0.25447  0.49322  Biso   1.000  H
  H441     1.0000 0.91406  0.95941  0.06928  Biso   1.000  H
  H442     1.0000 0.70836  0.25155  0.47953  Biso   1.000  H
  H443     1.0000 0.69099  0.25991  0.46306  Biso   1.000  H
  H444     1.0000 0.72600  0.23367  0.44604  Biso   1.000  H
  H445     1.0000 0.74371  0.22549  0.46255  Biso   1.000  H
  H446     1.0000 0.78980  0.20375  0.50746  Biso   1.000  H
  H447     1.0000 0.81111  0.17824  0.50672  Biso   1.000  H
  H448     1.0000 0.22689  0.58330  0.47576  Biso   1.000  H
  H449     1.0000 0.53137  0.02004  0.91525  Biso   1.000  H
  H450     1.0000 0.78715  0.16025  0.47741  Biso   1.000  H
  H451     1.0000 0.76568  0.18541  0.47814  Biso   1.000  H
  H452     1.0000 0.76516  0.24505  0.52299  Biso   1.000  H
  H453     1.0000 0.75899  0.26449  0.53929  Biso   1.000  H
  H454     1.0000 0.92259  0.95589  0.05322  Biso   1.000  H
  H455     1.0000 0.71280  0.28032  0.52422  Biso   1.000  H
  H456     1.0000 0.71866  0.26085  0.50809  Biso   1.000  H
  H457     1.0000 0.83224  0.11420  0.47324  Biso   1.000  H
  H458     1.0000 0.85356  0.08845  0.47211  Biso   1.000  H
  H459     1.0000 0.87048  0.09891  0.50582  Biso   1.000  H
  H460     1.0000 0.58092  0.89539  0.85733  Biso   1.000  H
  H461     1.0000 0.84916  0.12466  0.50694  Biso   1.000  H
  H462     1.0000 0.70097  0.32179  0.55331  Biso   1.000  H
  H463     1.0000 0.69383  0.34196  0.56921  Biso   1.000  H
  H464     1.0000 0.73757  0.32049  0.58780  Biso   1.000  H
  H465     1.0000 0.74472  0.30031  0.57191  Biso   1.000  H
  H466     1.0000 0.96402  0.95638  0.07302  Biso   1.000  H
  H467     1.0000 0.68865  0.24419  0.41354  Biso   1.000  H
  H468     1.0000 0.67059  0.25293  0.39712  Biso   1.000  H
  H469     1.0000 0.64176  0.29125  0.41619  Biso   1.000  H
  H470     1.0000 0.65982  0.28251  0.43261  Biso   1.000  H
  H471     1.0000 0.58881  0.86890  0.84638  Biso   1.000  H
  H472     1.0000 0.91025  0.04777  0.50389  Biso   1.000  H
  H473     1.0000 0.93164  0.02221  0.50285  Biso   1.000  H
  H474     1.0000 0.91790  0.01413  0.46862  Biso   1.000  H
  H475     1.0000 0.89653  0.03971  0.46974  Biso   1.000  H
  H476     1.0000 0.60571  0.30535  0.38334  Biso   1.000  H
  H477     1.0000 0.58903  0.31343  0.36635  Biso   1.000  H
  H478     1.0000 0.95548  0.95991  0.08908  Biso   1.000  H
  H479     1.0000 0.62289  0.27871  0.34957  Biso   1.000  H
  H480     1.0000 0.63927  0.27088  0.36643  Biso   1.000  H
  H481     1.0000 0.72379  0.35992  0.61834  Biso   1.000  H
  H482     1.0000 0.54510  0.88158  0.82600  Biso   1.000  H
  H483     1.0000 0.71673  0.38049  0.63400  Biso   1.000  H
  H484     1.0000 0.67270  0.40113  0.61533  Biso   1.000  H
  H485     1.0000 0.67987  0.38053  0.59973  Biso   1.000  H
  H486     1.0000 0.41137  0.94296  0.15657  Biso   1.000  H
  H487     1.0000 0.45816  0.92338  0.15804  Biso   1.000  H
  H488     1.0000 0.43211  0.97218  0.15683  Biso   1.000  H
  H489     1.0000 0.45626  0.97238  0.16661  Biso   1.000  H
  H490     1.0000 0.88766  0.96831  0.13184  Biso   1.000  H
  H491     1.0000 0.96172  0.01992  0.22557  Biso   1.000  H
  H492     1.0000 0.47989  0.97299  0.16732  Biso   1.000  H
  H493     1.0000 0.53738  0.90800  0.83703  Biso   1.000  H
  H494     1.0000 0.49416  0.92643  0.14908  Biso   1.000  H
  H495     1.0000 0.47066  0.92575  0.14804  Biso   1.000  H
  H496     1.0000 0.41970  0.92233  0.16577  Biso   1.000  H
  H497     1.0000 0.42305  0.89592  0.16583  Biso   1.000  H
  H498     1.0000 0.45701  0.87589  0.14807  Biso   1.000  H
  H499     1.0000 0.45358  0.90204  0.14767  Biso   1.000  H
  H500     1.0000 0.39100  0.96056  0.14748  Biso   1.000  H
  H501     1.0000 0.36672  0.98249  0.14700  Biso   1.000  H
  H502     1.0000 0.38763  0.01474  0.16431  Biso   1.000  H
  H503     1.0000 0.97946  0.02733  0.24091  Biso   1.000  H
  H504     1.0000 0.52151  0.09914  0.94216  Biso   1.000  H
  H505     1.0000 0.41272  0.99157  0.16497  Biso   1.000  H
  H506     1.0000 0.47018  0.82710  0.15602  Biso   1.000  H
  H507     1.0000 0.47445  0.80023  0.15610  Biso   1.000  H
  H508     1.0000 0.42954  0.81680  0.15873  Biso   1.000  H
  H509     1.0000 0.42527  0.84367  0.15865  Biso   1.000  H
  H510     1.0000 0.33979  0.05782  0.15877  Biso   1.000  H
  H511     1.0000 0.31512  0.07997  0.15818  Biso   1.000  H
  H512     1.0000 0.29468  0.04793  0.15003  Biso   1.000  H
  H513     1.0000 0.31935  0.02578  0.15063  Biso   1.000  H
  H514     1.0000 0.54175  0.92393  0.15574  Biso   1.000  H
  H515     1.0000 0.10678  0.85729  0.48314  Biso   1.000  H
  H516     1.0000 0.01386  0.00144  0.22253  Biso   1.000  H
  H517     1.0000 0.56605  0.92308  0.15640  Biso   1.000  H
  H518     1.0000 0.54852  0.97308  0.16449  Biso   1.000  H
  H519     1.0000 0.52421  0.97394  0.16383  Biso   1.000  H
  H520     1.0000 0.43631  0.76728  0.15806  Biso   1.000  H
  H521     1.0000 0.43913  0.74116  0.15807  Biso   1.000  H
  H522     1.0000 0.48510  0.72247  0.15702  Biso   1.000  H
  H523     1.0000 0.48208  0.74888  0.15702  Biso   1.000  H
  H524     1.0000 0.61417  0.92263  0.16239  Biso   1.000  H
  H525     1.0000 0.63804  0.92250  0.16279  Biso   1.000  H
  H526     1.0000 0.51520  0.12485  0.95395  Biso   1.000  H
  H527     1.0000 0.61591  0.97132  0.16117  Biso   1.000  H
  H528     1.0000 0.99483  0.99407  0.20678  Biso   1.000  H
  H529     1.0000 0.59226  0.97129  0.16077  Biso   1.000  H
  H530     1.0000 0.24794  0.09196  0.15320  Biso   1.000  H
  H531     1.0000 0.22351  0.11436  0.15256  Biso   1.000  H
  H532     1.0000 0.24315  0.14379  0.15203  Biso   1.000  H
  H533     1.0000 0.26744  0.12140  0.15267  Biso   1.000  H
  H534     1.0000 0.66940  0.72953  0.01134  Biso   1.000  H
  H535     1.0000 0.65861  0.71995  0.97634  Biso   1.000  H
  H536     1.0000 0.65899  0.76469  0.99311  Biso   1.000  H
  H537     1.0000 0.46956  0.13865  0.93698  Biso   1.000  H
  H538     1.0000 0.64056  0.77206  0.97761  Biso   1.000  H
  H539     1.0000 0.63378  0.77938  0.96015  Biso   1.000  H
  H540     1.0000 0.80712  0.95610  0.13587  Biso   1.000  H
  H541     1.0000 0.65940  0.73217  0.94692  Biso   1.000  H
  H542     1.0000 0.66662  0.72472  0.96431  Biso   1.000  H
  H543     1.0000 0.66146  0.70882  0.00837  Biso   1.000  H
  H544     1.0000 0.66483  0.68173  0.00674  Biso   1.000  H
  H545     1.0000 0.67755  0.66864  0.97638  Biso   1.000  H
  H546     1.0000 0.67462  0.69513  0.97796  Biso   1.000  H
  H547     1.0000 0.68073  0.74409  0.02498  Biso   1.000  H
  H548     1.0000 0.47611  0.11266  0.92516  Biso   1.000  H
  H549     1.0000 0.68319  0.76321  0.04146  Biso   1.000  H
  H550     1.0000 0.65409  0.80066  0.02444  Biso   1.000  H
  H551     1.0000 0.65119  0.78181  0.00798  Biso   1.000  H
  H552     1.0000 0.78548  0.95304  0.13699  Biso   1.000  H
  H553     1.0000 0.67389  0.62021  0.96993  Biso   1.000  H
  H554     1.0000 0.67718  0.59292  0.96749  Biso   1.000  H
  H555     1.0000 0.68423  0.59800  0.00135  Biso   1.000  H
  H556     1.0000 0.68093  0.62528  0.00379  Biso   1.000  H
  H557     1.0000 0.66697  0.83623  0.05517  Biso   1.000  H
  H558     1.0000 0.66952  0.85573  0.07160  Biso   1.000  H
  H559     1.0000 0.02928  0.59521  0.62423  Biso   1.000  H
  H560     1.0000 0.11173  0.11654  0.73784  Biso   1.000  H
  H561     1.0000 0.68298  0.82179  0.09066  Biso   1.000  H
  H562     1.0000 0.68043  0.80228  0.07422  Biso   1.000  H
  H563     1.0000 0.63645  0.74546  0.91251  Biso   1.000  H
  H564     1.0000 0.62955  0.75227  0.89475  Biso   1.000  H
  H565     1.0000 0.79579  0.96681  0.17107  Biso   1.000  H
  H566     1.0000 0.62328  0.79952  0.90973  Biso   1.000  H
  H567     1.0000 0.63018  0.79270  0.92749  Biso   1.000  H
  H568     1.0000 0.69387  0.54554  0.99720  Biso   1.000  H
  H569     1.0000 0.69708  0.51867  0.99553  Biso   1.000  H
  H570     1.0000 0.68352  0.51413  0.96135  Biso   1.000  H
  H571     1.0000 0.10213  0.11028  0.74959  Biso   1.000  H
  H572     1.0000 0.68035  0.54118  0.96315  Biso   1.000  H
  H573     1.0000 0.60298  0.77247  0.86201  Biso   1.000  H
  H574     1.0000 0.59549  0.77942  0.84433  Biso   1.000  H
  H575     1.0000 0.61589  0.81213  0.85745  Biso   1.000  H
  H576     1.0000 0.62332  0.80505  0.87511  Biso   1.000  H
  H577     1.0000 0.81743  0.96987  0.16995  Biso   1.000  H
  H578     1.0000 0.68642  0.88728  0.10370  Biso   1.000  H
  H579     1.0000 0.68847  0.90749  0.11956  Biso   1.000  H
  H580     1.0000 0.67780  0.88631  0.13736  Biso   1.000  H
  H581     1.0000 0.67579  0.86604  0.12136  Biso   1.000  H
  H582     1.0000 0.13886  0.11264  0.77535  Biso   1.000  H
  H583     1.0000 0.92763  0.39206  0.15915  Biso   1.000  H
  H584     1.0000 0.91583  0.38041  0.12462  Biso   1.000  H
  H585     1.0000 0.88367  0.41760  0.14218  Biso   1.000  H
  H586     1.0000 0.86674  0.41094  0.12864  Biso   1.000  H
  H587     1.0000 0.84732  0.41679  0.11249  Biso   1.000  H
  H588     1.0000 0.88027  0.39988  0.09430  Biso   1.000  H
  H589     1.0000 0.98079  0.94746  0.04225  Biso   1.000  H
  H590     1.0000 0.90000  0.39428  0.11053  Biso   1.000  H
  H591     1.0000 0.95112  0.38247  0.15705  Biso   1.000  H
  H592     1.0000 0.97640  0.36233  0.15757  Biso   1.000  H
  H593     1.0000 0.14845  0.11889  0.76360  Biso   1.000  H
  H594     1.0000 0.96149  0.33674  0.12762  Biso   1.000  H
  H595     1.0000 0.93594  0.35664  0.12707  Biso   1.000  H
  H596     1.0000 0.92231  0.41532  0.17169  Biso   1.000  H
  H597     1.0000 0.91492  0.43159  0.18848  Biso   1.000  H
  H598     1.0000 0.86998  0.43722  0.17433  Biso   1.000  H
  H599     1.0000 0.87719  0.42070  0.15760  Biso   1.000  H
  H600     1.0000 0.01717  0.30097  0.12724  Biso   1.000  H
  H601     1.0000 0.98882  0.94475  0.02621  Biso   1.000  H
  H602     1.0000 0.04297  0.28102  0.12814  Biso   1.000  H
  H603     1.0000 0.05271  0.29543  0.16217  Biso   1.000  H
  H604     1.0000 0.16613  0.12951  0.74199  Biso   1.000  H
  H605     1.0000 0.02692  0.31538  0.16127  Biso   1.000  H
  H606     1.0000 0.85591  0.47845  0.20498  Biso   1.000  H
  H607     1.0000 0.84819  0.49509  0.22177  Biso   1.000  H
  H608     1.0000 0.89182  0.47141  0.23967  Biso   1.000  H
  H609     1.0000 0.89953  0.45477  0.22289  Biso   1.000  H
  H610     1.0000 0.83904  0.40293  0.06197  Biso   1.000  H
  H611     1.0000 0.81869  0.40920  0.04601  Biso   1.000  H
  H612     1.0000 0.78942  0.44413  0.06610  Biso   1.000  H
  H613     1.0000 0.89875  0.97979  0.16640  Biso   1.000  H
  H614     1.0000 0.94550  0.94914  0.00714  Biso   1.000  H
  H615     1.0000 0.17534  0.13594  0.73007  Biso   1.000  H
  H616     1.0000 0.80976  0.43786  0.08205  Biso   1.000  H
  H617     1.0000 0.10295  0.25541  0.16403  Biso   1.000  H
  H618     1.0000 0.12858  0.23531  0.16502  Biso   1.000  H
  H619     1.0000 0.11963  0.22248  0.13081  Biso   1.000  H
  H620     1.0000 0.09400  0.24262  0.12988  Biso   1.000  H
  H621     1.0000 0.75416  0.46230  0.03364  Biso   1.000  H
  H622     1.0000 0.73351  0.46881  0.01800  Biso   1.000  H
  H623     1.0000 0.75347  0.42233  0.00065  Biso   1.000  H
  H624     1.0000 0.77413  0.41591  0.01636  Biso   1.000  H
  H625     1.0000 0.87126  0.49589  0.27132  Biso   1.000  H
  H626     1.0000 0.13773  0.13469  0.70488  Biso   1.000  H
  H627     1.0000 0.93764  0.95183  0.02320  Biso   1.000  H
  H628     1.0000 0.86397  0.51145  0.28827  Biso   1.000  H
  H629     1.0000 0.83208  0.54971  0.27247  Biso   1.000  H
  H630     1.0000 0.83951  0.53394  0.25544  Biso   1.000  H
  H631     1.0000 0.77410  0.64448  0.49601  Biso   1.000  H
  H632     1.0000 0.74106  0.65709  0.51373  Biso   1.000  H
  H633     1.0000 0.73094  0.64569  0.47914  Biso   1.000  H
  H634     1.0000 0.70752  0.66254  0.48016  Biso   1.000  H
  H635     1.0000 0.68208  0.66652  0.47846  Biso   1.000  H
  H636     1.0000 0.69412  0.65511  0.50930  Biso   1.000  H
  H637     1.0000 0.08557  0.82630  0.47640  Biso   1.000  H
  H638     1.0000 0.72000  0.65064  0.51104  Biso   1.000  H
  H639     1.0000 0.75480  0.96055  0.17330  Biso   1.000  H
  H640     1.0000 0.79087  0.63471  0.51024  Biso   1.000  H
  H641     1.0000 0.81012  0.63719  0.52601  Biso   1.000  H
  H642     1.0000 0.77688  0.67062  0.54346  Biso   1.000  H
  H643     1.0000 0.75725  0.66856  0.52750  Biso   1.000  H
  H644     1.0000 0.78115  0.62579  0.48119  Biso   1.000  H
  H645     1.0000 0.78851  0.61821  0.46411  Biso   1.000  H
  H646     1.0000 0.74361  0.64354  0.44895  Biso   1.000  H
  H647     1.0000 0.73609  0.65161  0.46601  Biso   1.000  H
  H648     1.0000 0.12853  0.12828  0.71679  Biso   1.000  H
  H649     1.0000 0.81899  0.66495  0.57624  Biso   1.000  H
  H650     1.0000 0.83939  0.66657  0.59174  Biso   1.000  H
  H651     1.0000 0.73318  0.95781  0.17458  Biso   1.000  H
  H652     1.0000 0.86814  0.65197  0.57053  Biso   1.000  H
  H653     1.0000 0.84774  0.65034  0.55503  Biso   1.000  H
  H654     1.0000 0.75921  0.61548  0.41499  Biso   1.000  H
  H655     1.0000 0.76669  0.60759  0.39776  Biso   1.000  H
  H656     1.0000 0.80924  0.60799  0.41447  Biso   1.000  H
  H657     1.0000 0.80176  0.61588  0.43170  Biso   1.000  H
  H658     1.0000 0.63853  0.67596  0.50617  Biso   1.000  H
  H659     1.0000 0.12638  0.09404  0.79442  Biso   1.000  H
  H660     1.0000 0.61244  0.68028  0.50360  Biso   1.000  H
  H661     1.0000 0.60879  0.66662  0.46973  Biso   1.000  H
  H662     1.0000 0.63488  0.66229  0.47229  Biso   1.000  H
  H663     1.0000 0.72202  0.94496  0.14038  Biso   1.000  H
  H664     1.0000 0.90335  0.66766  0.60209  Biso   1.000  H
  H665     1.0000 0.92399  0.66887  0.61740  Biso   1.000  H
  H666     1.0000 0.90567  0.65827  0.63670  Biso   1.000  H
  H667     1.0000 0.88505  0.65708  0.62135  Biso   1.000  H
  H668     1.0000 0.55674  0.67525  0.46489  Biso   1.000  H
  H669     1.0000 0.53081  0.67945  0.46278  Biso   1.000  H
  H670     1.0000 0.17903  0.60481  0.73612  Biso   1.000  H
  H671     1.0000 0.11913  0.08640  0.80664  Biso   1.000  H
  H672     1.0000 0.53567  0.69308  0.49682  Biso   1.000  H
  H673     1.0000 0.56146  0.68887  0.49884  Biso   1.000  H
  H674     1.0000 0.81809  0.60263  0.37983  Biso   1.000  H
  H675     1.0000 0.82555  0.59432  0.36260  Biso   1.000  H
  H676     1.0000 0.74369  0.94774  0.13920  Biso   1.000  H
  H677     1.0000 0.79379  0.57381  0.34870  Biso   1.000  H
  H678     1.0000 0.78643  0.58216  0.36592  Biso   1.000  H
  H679     1.0000 0.31924  0.83294  0.32913  Biso   1.000  H
  H680     1.0000 0.35348  0.79667  0.31321  Biso   1.000  H
  H681     1.0000 0.31625  0.83080  0.29587  Biso   1.000  H
  H682     1.0000 0.07546  0.09683  0.78610  Biso   1.000  H
  H683     1.0000 0.32370  0.81000  0.28097  Biso   1.000  H
  H684     1.0000 0.33607  0.79597  0.26579  Biso   1.000  H
  H685     1.0000 0.37842  0.78244  0.28752  Biso   1.000  H
  H686     1.0000 0.36640  0.79661  0.30264  Biso   1.000  H
  H687     1.0000 0.32781  0.81377  0.33968  Biso   1.000  H
  H688     1.0000 0.04581  0.02139  0.25259  Biso   1.000  H
  H689     1.0000 0.34223  0.80208  0.35573  Biso   1.000  H
  H690     1.0000 0.38248  0.78630  0.34561  Biso   1.000  H
  H691     1.0000 0.36840  0.79818  0.32977  Biso   1.000  H
  H692     1.0000 0.29420  0.84593  0.32536  Biso   1.000  H
  H693     1.0000 0.08305  0.10447  0.77393  Biso   1.000  H
  H694     1.0000 0.27059  0.86891  0.32525  Biso   1.000  H
  H695     1.0000 0.27589  0.87941  0.29877  Biso   1.000  H
  H696     1.0000 0.29978  0.85663  0.29891  Biso   1.000  H
  H697     1.0000 0.40865  0.75551  0.37313  Biso   1.000  H
  H698     1.0000 0.42370  0.74319  0.38895  Biso   1.000  H
  H699     1.0000 0.38857  0.77308  0.40556  Biso   1.000  H
  H700     1.0000 0.06231  0.03000  0.26858  Biso   1.000  H
  H701     1.0000 0.37353  0.78540  0.38973  Biso   1.000  H
  H702     1.0000 0.22214  0.91716  0.29510  Biso   1.000  H
  H703     1.0000 0.19816  0.94022  0.29517  Biso   1.000  H
  H704     1.0000 0.19317  0.13963  0.70248  Biso   1.000  H
  H705     1.0000 0.20570  0.94537  0.32906  Biso   1.000  H
  H706     1.0000 0.22968  0.92232  0.32900  Biso   1.000  H
  H707     1.0000 0.40172  0.74828  0.25856  Biso   1.000  H
  H708     1.0000 0.41496  0.73355  0.24381  Biso   1.000  H
  H709     1.0000 0.37651  0.75827  0.22183  Biso   1.000  H
  H710     1.0000 0.36327  0.77299  0.23658  Biso   1.000  H
  H711     1.0000 0.41782  0.75034  0.43636  Biso   1.000  H
  H712     1.0000 0.02924  0.04584  0.28671  Biso   1.000  H
  H713     1.0000 0.43222  0.73811  0.45217  Biso   1.000  H
  H714     1.0000 0.46688  0.70606  0.43542  Biso   1.000  H
  H715     1.0000 0.19870  0.14707  0.68897  Biso   1.000  H
  H716     1.0000 0.45233  0.71842  0.41960  Biso   1.000  H
  H717     1.0000 0.40634  0.73555  0.19507  Biso   1.000  H
  H718     1.0000 0.41939  0.72138  0.18029  Biso   1.000  H
  H719     1.0000 0.44976  0.68498  0.19812  Biso   1.000  H
  H720     1.0000 0.43660  0.69928  0.21291  Biso   1.000  H
  H721     1.0000 0.15891  0.99164  0.32932  Biso   1.000  H
  H722     1.0000 0.13421  0.01545  0.32945  Biso   1.000  H
  H723     1.0000 0.12548  0.00885  0.29530  Biso   1.000  H
  H724     1.0000 0.01305  0.03729  0.27082  Biso   1.000  H
  H725     1.0000 0.15020  0.98505  0.29523  Biso   1.000  H
  H726     1.0000 0.15216  0.16431  0.67374  Biso   1.000  H
  H727     1.0000 0.27367  0.71649  0.99096  Biso   1.000  H
  H728     1.0000 0.24177  0.75432  0.00928  Biso   1.000  H
  H729     1.0000 0.22980  0.74268  0.97415  Biso   1.000  H
  H730     1.0000 0.20613  0.75297  0.97576  Biso   1.000  H
  H731     1.0000 0.18086  0.77310  0.97525  Biso   1.000  H
  H732     1.0000 0.19534  0.79747  0.00596  Biso   1.000  H
  H733     1.0000 0.22089  0.77756  0.00652  Biso   1.000  H
  H734     1.0000 0.29092  0.72197  0.00489  Biso   1.000  H
  H735     1.0000 0.31050  0.71601  0.02095  Biso   1.000  H
  H736     1.0000 0.87352  0.98890  0.16448  Biso   1.000  H
  H737     1.0000 0.14703  0.15685  0.68715  Biso   1.000  H
  H738     1.0000 0.83076  0.84838  0.32510  Biso   1.000  H
  H739     1.0000 0.27780  0.73601  0.03978  Biso   1.000  H
  H740     1.0000 0.25792  0.74177  0.02366  Biso   1.000  H
  H741     1.0000 0.28012  0.71413  0.97566  Biso   1.000  H
  H742     1.0000 0.28737  0.69757  0.95896  Biso   1.000  H
  H743     1.0000 0.24250  0.70296  0.94481  Biso   1.000  H
  H744     1.0000 0.23506  0.71927  0.96160  Biso   1.000  H
  H745     1.0000 0.31959  0.73201  0.07169  Biso   1.000  H
  H746     1.0000 0.34003  0.72562  0.08758  Biso   1.000  H
  H747     1.0000 0.36841  0.68904  0.06748  Biso   1.000  H
  H748     1.0000 0.54699  0.50037  0.88993  Biso   1.000  H
  H749     1.0000 0.34798  0.69543  0.05159  Biso   1.000  H
  H750     1.0000 0.81704  0.81046  0.31007  Biso   1.000  H
  H751     1.0000 0.25788  0.67871  0.91047  Biso   1.000  H
  H752     1.0000 0.26578  0.66199  0.89376  Biso   1.000  H
  H753     1.0000 0.30994  0.64029  0.91171  Biso   1.000  H
  H754     1.0000 0.30204  0.65701  0.92842  Biso   1.000  H
  H755     1.0000 0.14236  0.83192  0.00608  Biso   1.000  H
  H756     1.0000 0.11658  0.85188  0.00521  Biso   1.000  H
  H757     1.0000 0.10678  0.83753  0.97117  Biso   1.000  H
  H758     1.0000 0.13256  0.81757  0.97204  Biso   1.000  H
  H759     1.0000 0.10976  0.80363  0.47582  Biso   1.000  H
  H760     1.0000 0.40423  0.67149  0.09981  Biso   1.000  H
  H761     1.0000 0.42495  0.66488  0.11540  Biso   1.000  H
  H762     1.0000 0.84581  0.81032  0.34143  Biso   1.000  H
  H763     1.0000 0.40513  0.71132  0.13285  Biso   1.000  H
  H764     1.0000 0.38441  0.71784  0.11719  Biso   1.000  H
  H765     1.0000 0.05657  0.87801  0.96937  Biso   1.000  H
  H766     1.0000 0.03094  0.89813  0.96844  Biso   1.000  H
  H767     1.0000 0.03977  0.91016  0.00269  Biso   1.000  H
  H768     1.0000 0.06538  0.89001  0.00355  Biso   1.000  H
  H769     1.0000 0.31862  0.60029  0.87819  Biso   1.000  H
  H770     1.0000 0.57263  0.49210  0.90086  Biso   1.000  H
  H771     1.0000 0.32623  0.58445  0.86123  Biso   1.000  H
  H772     1.0000 0.29456  0.62265  0.84530  Biso   1.000  H
  H773     1.0000 0.28709  0.63828  0.86218  Biso   1.000  H
  H774     1.0000 0.83513  0.79438  0.34233  Biso   1.000  H
  H775     1.0000 0.33239  0.33676  0.32845  Biso   1.000  H
  H776     1.0000 0.29565  0.32351  0.31235  Biso   1.000  H
  H777     1.0000 0.33159  0.30814  0.29676  Biso   1.000  H
  H778     1.0000 0.32275  0.28955  0.28601  Biso   1.000  H
  H779     1.0000 0.30944  0.27668  0.27043  Biso   1.000  H
  H780     1.0000 0.26857  0.30718  0.28032  Biso   1.000  H
  H781     1.0000 0.20465  0.59920  0.74681  Biso   1.000  H
  H782     1.0000 0.55591  0.50363  0.92879  Biso   1.000  H
  H783     1.0000 0.28156  0.32040  0.29575  Biso   1.000  H
  H784     1.0000 0.32572  0.33945  0.34376  Biso   1.000  H
  H785     1.0000 0.31410  0.35401  0.35912  Biso   1.000  H
  H786     1.0000 0.27140  0.35947  0.33885  Biso   1.000  H
  H787     1.0000 0.83501  0.76916  0.34153  Biso   1.000  H
  H788     1.0000 0.28276  0.34528  0.32333  Biso   1.000  H
  H789     1.0000 0.35729  0.32639  0.33051  Biso   1.000  H
  H790     1.0000 0.38116  0.32597  0.33126  Biso   1.000  H
  H791     1.0000 0.37303  0.31543  0.29711  Biso   1.000  H
  H792     1.0000 0.34885  0.31617  0.29617  Biso   1.000  H
  H793     1.0000 0.53027  0.51190  0.91785  Biso   1.000  H
  H794     1.0000 0.25078  0.38039  0.37118  Biso   1.000  H
  H795     1.0000 0.23915  0.39490  0.38674  Biso   1.000  H
  H796     1.0000 0.27729  0.40483  0.40380  Biso   1.000  H
  H797     1.0000 0.28892  0.39032  0.38823  Biso   1.000  H
  H798     1.0000 0.42488  0.30739  0.30009  Biso   1.000  H
  H799     1.0000 0.82902  0.75922  0.30749  Biso   1.000  H
  H800     1.0000 0.44917  0.30693  0.30121  Biso   1.000  H
  H801     1.0000 0.45015  0.33170  0.33358  Biso   1.000  H
  H802     1.0000 0.42586  0.33216  0.33246  Biso   1.000  H
  H803     1.0000 0.24287  0.27832  0.25114  Biso   1.000  H
  H804     1.0000 0.48038  0.52772  0.89656  Biso   1.000  H
  H805     1.0000 0.22925  0.26541  0.23559  Biso   1.000  H
  H806     1.0000 0.26778  0.24092  0.22211  Biso   1.000  H
  H807     1.0000 0.28140  0.25383  0.23767  Biso   1.000  H
  H808     1.0000 0.25101  0.43834  0.43301  Biso   1.000  H
  H809     1.0000 0.23893  0.45270  0.44836  Biso   1.000  H
  H810     1.0000 0.20694  0.43260  0.43393  Biso   1.000  H
  H811     1.0000 0.82951  0.78403  0.30814  Biso   1.000  H
  H812     1.0000 0.21903  0.41835  0.41869  Biso   1.000  H
  H813     1.0000 0.20342  0.23704  0.20588  Biso   1.000  H
  H814     1.0000 0.18980  0.22401  0.19054  Biso   1.000  H
  H815     1.0000 0.45473  0.53597  0.88563  Biso   1.000  H
  H816     1.0000 0.22573  0.20487  0.17467  Biso   1.000  H
  H817     1.0000 0.23931  0.21796  0.19006  Biso   1.000  H
  H818     1.0000 0.50021  0.32777  0.33621  Biso   1.000  H
  H819     1.0000 0.52441  0.32722  0.33704  Biso   1.000  H
  H820     1.0000 0.51977  0.30832  0.30344  Biso   1.000  H
  H821     1.0000 0.49566  0.30890  0.30267  Biso   1.000  H
  H822     1.0000 0.16709  0.25513  0.49490  Biso   1.000  H
  H823     1.0000 0.80804  0.86193  0.31403  Biso   1.000  H
  H824     1.0000 0.15700  0.21507  0.47897  Biso   1.000  H
  H825     1.0000 0.15663  0.24386  0.46046  Biso   1.000  H
  H826     1.0000 0.47138  0.52496  0.85775  Biso   1.000  H
  H827     1.0000 0.16276  0.21979  0.44842  Biso   1.000  H
  H828     1.0000 0.15548  0.20245  0.43229  Biso   1.000  H
  H829     1.0000 0.13119  0.19515  0.44877  Biso   1.000  H
  H830     1.0000 0.13797  0.21273  0.46483  Biso   1.000  H
  H831     1.0000 0.18207  0.23885  0.50742  Biso   1.000  H
  H832     1.0000 0.18540  0.23290  0.52471  Biso   1.000  H
  H833     1.0000 0.15120  0.21588  0.51122  Biso   1.000  H
  H834     1.0000 0.14740  0.22213  0.49396  Biso   1.000  H
  H835     1.0000 0.79333  0.87334  0.29792  Biso   1.000  H
  H836     1.0000 0.18227  0.26367  0.49179  Biso   1.000  H
  H837     1.0000 0.49703  0.51670  0.86868  Biso   1.000  H
  H838     1.0000 0.18579  0.28645  0.49157  Biso   1.000  H
  H839     1.0000 0.15264  0.29342  0.46252  Biso   1.000  H
  H840     1.0000 0.14863  0.27088  0.46274  Biso   1.000  H
  H841     1.0000 0.16588  0.19550  0.54228  Biso   1.000  H
  H842     1.0000 0.16941  0.18908  0.55959  Biso   1.000  H
  H843     1.0000 0.18760  0.22316  0.57595  Biso   1.000  H
  H844     1.0000 0.18407  0.22958  0.55863  Biso   1.000  H
  H845     1.0000 0.16871  0.33029  0.46008  Biso   1.000  H
  H846     1.0000 0.17273  0.35316  0.46018  Biso   1.000  H
  H847     1.0000 0.80164  0.82755  0.27887  Biso   1.000  H
  H848     1.0000 0.62028  0.49146  0.92757  Biso   1.000  H
  H849     1.0000 0.18844  0.35889  0.49420  Biso   1.000  H
  H850     1.0000 0.18443  0.33602  0.49410  Biso   1.000  H
  H851     1.0000 0.12955  0.15243  0.42049  Biso   1.000  H
  H852     1.0000 0.12230  0.13455  0.40454  Biso   1.000  H
  H853     1.0000 0.12312  0.15994  0.38427  Biso   1.000  H
  H854     1.0000 0.13037  0.17782  0.40022  Biso   1.000  H
  H855     1.0000 0.19051  0.16957  0.59196  Biso   1.000  H
  H856     1.0000 0.19329  0.16227  0.60860  Biso   1.000  H
  H857     1.0000 0.18229  0.21017  0.62467  Biso   1.000  H
  H858     1.0000 0.17956  0.21730  0.60787  Biso   1.000  H
  H859     1.0000 0.64563  0.48317  0.93895  Biso   1.000  H
  H860     1.0000 0.85216  0.98561  0.16547  Biso   1.000  H
  H861     1.0000 0.81663  0.81596  0.29474  Biso   1.000  H
  H862     1.0000 0.09739  0.13359  0.35589  Biso   1.000  H
  H863     1.0000 0.08910  0.11709  0.33972  Biso   1.000  H
  H864     1.0000 0.11127  0.07827  0.35610  Biso   1.000  H
  H865     1.0000 0.11954  0.09504  0.37232  Biso   1.000  H
  H866     1.0000 0.19390  0.40390  0.49410  Biso   1.000  H
  H867     1.0000 0.19725  0.42688  0.49368  Biso   1.000  H
  H868     1.0000 0.18523  0.41721  0.45934  Biso   1.000  H
  H869     1.0000 0.18194  0.39439  0.45988  Biso   1.000  H
  H870     1.0000 0.63297  0.46344  0.95643  Biso   1.000  H
  H871     1.0000 0.42799  0.48687  0.65447  Biso   1.000  H
  H872     1.0000 0.41763  0.47627  0.61986  Biso   1.000  H
  H873     1.0000 0.83409  0.86266  0.34200  Biso   1.000  H
  H874     1.0000 0.38461  0.48881  0.63760  Biso   1.000  H
  H875     1.0000 0.36785  0.49835  0.62331  Biso   1.000  H
  H876     1.0000 0.34865  0.49581  0.60752  Biso   1.000  H
  H877     1.0000 0.38197  0.46240  0.59014  Biso   1.000  H
  H878     1.0000 0.40155  0.46453  0.60612  Biso   1.000  H
  H879     1.0000 0.44427  0.49432  0.65286  Biso   1.000  H
  H880     1.0000 0.47004  0.48915  0.65456  Biso   1.000  H
  H881     1.0000 0.38865  0.72110  0.47514  Biso   1.000  H
  H882     1.0000 0.47083  0.45692  0.62474  Biso   1.000  H
  H883     1.0000 0.44486  0.46170  0.62302  Biso   1.000  H
  H884     1.0000 0.42258  0.48151  0.66758  Biso   1.000  H
  H885     1.0000 0.84775  0.87545  0.35728  Biso   1.000  H
  H886     1.0000 0.41505  0.48965  0.68464  Biso   1.000  H
  H887     1.0000 0.37022  0.51529  0.66952  Biso   1.000  H
  H888     1.0000 0.37760  0.50764  0.65244  Biso   1.000  H
  H889     1.0000 0.52062  0.45586  0.62744  Biso   1.000  H
  H890     1.0000 0.54672  0.45149  0.63000  Biso   1.000  H
  H891     1.0000 0.54966  0.46753  0.66372  Biso   1.000  H
  H892     1.0000 0.18864  0.61563  0.77561  Biso   1.000  H
  H893     1.0000 0.60780  0.47174  0.94509  Biso   1.000  H
  H894     1.0000 0.52356  0.47190  0.66116  Biso   1.000  H
  H895     1.0000 0.35699  0.51755  0.70200  Biso   1.000  H
  H896     1.0000 0.34954  0.52553  0.71924  Biso   1.000  H
  H897     1.0000 0.39204  0.52614  0.73587  Biso   1.000  H
  H898     1.0000 0.87804  0.83119  0.36613  Biso   1.000  H
  H899     1.0000 0.39949  0.51816  0.71862  Biso   1.000  H
  H900     1.0000 0.33993  0.46785  0.55729  Biso   1.000  H
  H901     1.0000 0.31957  0.46617  0.54177  Biso   1.000  H
  H902     1.0000 0.29070  0.48096  0.56294  Biso   1.000  H
  H903     1.0000 0.31106  0.48265  0.57845  Biso   1.000  H
  H904     1.0000 0.40709  0.53852  0.86058  Biso   1.000  H
  H905     1.0000 0.60210  0.45742  0.66868  Biso   1.000  H
  H906     1.0000 0.62805  0.45321  0.67085  Biso   1.000  H
  H907     1.0000 0.62320  0.44007  0.63681  Biso   1.000  H
  H908     1.0000 0.59738  0.44429  0.63472  Biso   1.000  H
  H909     1.0000 0.25567  0.46499  0.53138  Biso   1.000  H
  H910     1.0000 0.86476  0.81811  0.35072  Biso   1.000  H
  H911     1.0000 0.23504  0.46372  0.51610  Biso   1.000  H
  H912     1.0000 0.25319  0.47444  0.49675  Biso   1.000  H
  H913     1.0000 0.27382  0.47569  0.51209  Biso   1.000  H
  H914     1.0000 0.37237  0.55164  0.76776  Biso   1.000  H
  H915     1.0000 0.38147  0.54673  0.84979  Biso   1.000  H
  H916     1.0000 0.36503  0.56007  0.78499  Biso   1.000  H
  H917     1.0000 0.33325  0.53958  0.77119  Biso   1.000  H
  H918     1.0000 0.34070  0.53118  0.75395  Biso   1.000  H
  H919     1.0000 0.27032  0.16657  0.00161  Biso   1.000  H
  H920     1.0000 0.23244  0.15554  0.98546  Biso   1.000  H
  H921     1.0000 0.25921  0.15522  0.96705  Biso   1.000  H
  H922     1.0000 0.76427  0.85133  0.24989  Biso   1.000  H
  H923     1.0000 0.25032  0.13582  0.95539  Biso   1.000  H
  H924     1.0000 0.23307  0.12843  0.93953  Biso   1.000  H
  H925     1.0000 0.19705  0.15686  0.95545  Biso   1.000  H
  H926     1.0000 0.39353  0.56278  0.82950  Biso   1.000  H
  H927     1.0000 0.21392  0.16467  0.97116  Biso   1.000  H
  H928     1.0000 0.26875  0.15619  0.01498  Biso   1.000  H
  H929     1.0000 0.26149  0.15987  0.03158  Biso   1.000  H
  H930     1.0000 0.21565  0.17761  0.01564  Biso   1.000  H
  H931     1.0000 0.22261  0.17443  0.99918  Biso   1.000  H
  H932     1.0000 0.28112  0.17999  0.99833  Biso   1.000  H
  H933     1.0000 0.30277  0.18281  0.99739  Biso   1.000  H
  H934     1.0000 0.74928  0.86227  0.23352  Biso   1.000  H
  H935     1.0000 0.30582  0.14951  0.96804  Biso   1.000  H
  H936     1.0000 0.28445  0.14618  0.96896  Biso   1.000  H
  H937     1.0000 0.41914  0.55452  0.84035  Biso   1.000  H
  H938     1.0000 0.20285  0.17452  0.04452  Biso   1.000  H
  H939     1.0000 0.19443  0.17800  0.06062  Biso   1.000  H
  H940     1.0000 0.23572  0.17900  0.08033  Biso   1.000  H
  H941     1.0000 0.24414  0.17552  0.06423  Biso   1.000  H
  H942     1.0000 0.34076  0.16515  0.96376  Biso   1.000  H
  H943     1.0000 0.36242  0.16826  0.96273  Biso   1.000  H
  H944     1.0000 0.37245  0.18221  0.99681  Biso   1.000  H
  H945     1.0000 0.35079  0.17910  0.99784  Biso   1.000  H
  H946     1.0000 0.75779  0.90344  0.24779  Biso   1.000  H
  H947     1.0000 0.17155  0.12662  0.92889  Biso   1.000  H
  H948     1.0000 0.58559  0.56691  0.59136  Biso   1.000  H
  H949     1.0000 0.15358  0.11932  0.91348  Biso   1.000  H
  H950     1.0000 0.17385  0.12292  0.89204  Biso   1.000  H
  H951     1.0000 0.19182  0.13022  0.90744  Biso   1.000  H
  H952     1.0000 0.22091  0.18296  0.11046  Biso   1.000  H
  H953     1.0000 0.21328  0.18534  0.12654  Biso   1.000  H
  H954     1.0000 0.17008  0.18911  0.10753  Biso   1.000  H
  H955     1.0000 0.17790  0.18671  0.09148  Biso   1.000  H
  H956     1.0000 0.14712  0.09868  0.86413  Biso   1.000  H
  H957     1.0000 0.13091  0.09017  0.84824  Biso   1.000  H
  H958     1.0000 0.77277  0.89249  0.26416  Biso   1.000  H
  H959     1.0000 0.60148  0.54841  0.60379  Biso   1.000  H
  H960     1.0000 0.09773  0.10626  0.86631  Biso   1.000  H
  H961     1.0000 0.11425  0.11482  0.88231  Biso   1.000  H
  H962     1.0000 0.41438  0.18748  0.99477  Biso   1.000  H
  H963     1.0000 0.43607  0.19031  0.99367  Biso   1.000  H
  H964     1.0000 0.42503  0.17755  0.95946  Biso   1.000  H
  H965     1.0000 0.40339  0.17476  0.96065  Biso   1.000  H
  H966     1.0000 0.35588  0.80615  0.81681  Biso   1.000  H
  H967     1.0000 0.33309  0.85574  0.81686  Biso   1.000  H
  H968     1.0000 0.30954  0.82983  0.81728  Biso   1.000  H
  H969     1.0000 0.28994  0.84802  0.80844  Biso   1.000  H
  H970     1.0000 0.61836  0.51277  0.57776  Biso   1.000  H
  H971     1.0000 0.89830  0.85937  0.39956  Biso   1.000  H
  H972     1.0000 0.26662  0.87113  0.80937  Biso   1.000  H
  H973     1.0000 0.29068  0.89964  0.82659  Biso   1.000  H
  H974     1.0000 0.31432  0.87640  0.82600  Biso   1.000  H
  H975     1.0000 0.36961  0.80696  0.80717  Biso   1.000  H
  H976     1.0000 0.39350  0.80580  0.80718  Biso   1.000  H
  H977     1.0000 0.38180  0.85280  0.82465  Biso   1.000  H
  H978     1.0000 0.35782  0.85407  0.82498  Biso   1.000  H
  H979     1.0000 0.34885  0.78571  0.80713  Biso   1.000  H
  H980     1.0000 0.34854  0.76097  0.80711  Biso   1.000  H
  H981     1.0000 0.60247  0.53127  0.56533  Biso   1.000  H
  H982     1.0000 0.31549  0.78556  0.82589  Biso   1.000  H
  H983     1.0000 0.85522  0.95213  0.13620  Biso   1.000  H
  H984     1.0000 0.91182  0.87254  0.41502  Biso   1.000  H
  H985     1.0000 0.31593  0.81037  0.82627  Biso   1.000  H
  H986     1.0000 0.42670  0.85041  0.81909  Biso   1.000  H
  H987     1.0000 0.45116  0.84810  0.81872  Biso   1.000  H
  H988     1.0000 0.46686  0.79820  0.81149  Biso   1.000  H
  H989     1.0000 0.44240  0.80051  0.81185  Biso   1.000  H
  H990     1.0000 0.30905  0.73831  0.81863  Biso   1.000  H
  H991     1.0000 0.30863  0.71333  0.81840  Biso   1.000  H
  H992     1.0000 0.57359  0.56581  0.54241  Biso   1.000  H
  H993     1.0000 0.35297  0.68865  0.81329  Biso   1.000  H
  H994     1.0000 0.35339  0.71363  0.81351  Biso   1.000  H
  H995     1.0000 0.24303  0.94482  0.82241  Biso   1.000  H
  H996     1.0000 0.89382  0.91156  0.39954  Biso   1.000  H
  H997     1.0000 0.21884  0.96749  0.82298  Biso   1.000  H
  H998     1.0000 0.19776  0.93654  0.81680  Biso   1.000  H
  H999     1.0000 0.22195  0.91387  0.81623  Biso   1.000  H
  H1000    1.0000 0.51647  0.79584  0.81746  Biso   1.000  H
  H1001    1.0000 0.54063  0.79415  0.81703  Biso   1.000  H
  H1002    1.0000 0.51918  0.84082  0.81072  Biso   1.000  H
  H1003    1.0000 0.16302  0.62124  0.76492  Biso   1.000  H
  H1004    1.0000 0.41328  0.71825  0.47508  Biso   1.000  H
  H1005    1.0000 0.49520  0.84237  0.81117  Biso   1.000  H
  H1006    1.0000 0.15141  0.98072  0.81923  Biso   1.000  H
  H1007    1.0000 0.12660  0.00432  0.81978  Biso   1.000  H
  H1008    1.0000 0.14771  0.03438  0.82328  Biso   1.000  H
  H1009    1.0000 0.88030  0.89840  0.38409  Biso   1.000  H
  H1010    1.0000 0.17239  0.01077  0.82272  Biso   1.000  H
  H1011    1.0000 0.35217  0.64141  0.81274  Biso   1.000  H
  H1012    1.0000 0.35197  0.61646  0.81256  Biso   1.000  H
  H1013    1.0000 0.30765  0.64105  0.81797  Biso   1.000  H
  H1014    1.0000 0.30799  0.66593  0.81812  Biso   1.000  H
  H1015    1.0000 0.55772  0.58432  0.52999  Biso   1.000  H
  H1016    1.0000 0.39276  0.91216  0.62315  Biso   1.000  H
  H1017    1.0000 0.43136  0.87890  0.64034  Biso   1.000  H
  H1018    1.0000 0.40541  0.92285  0.65768  Biso   1.000  H
  H1019    1.0000 0.41522  0.90792  0.67103  Biso   1.000  H
  H1020    1.0000 0.43296  0.89971  0.68754  Biso   1.000  H
  H1021    1.0000 0.81843  0.71619  0.30616  Biso   1.000  H
  H1022    1.0000 0.46790  0.87341  0.67046  Biso   1.000  H
  H1023    1.0000 0.45051  0.88180  0.65400  Biso   1.000  H
  H1024    1.0000 0.39365  0.88833  0.61059  Biso   1.000  H
  H1025    1.0000 0.39979  0.86885  0.59430  Biso   1.000  H
  H1026    1.0000 0.53965  0.61943  0.55581  Biso   1.000  H
  H1027    1.0000 0.44599  0.85299  0.60935  Biso   1.000  H
  H1028    1.0000 0.44016  0.87249  0.62547  Biso   1.000  H
  H1029    1.0000 0.36907  0.92970  0.62613  Biso   1.000  H
  H1030    1.0000 0.34778  0.95523  0.62687  Biso   1.000  H
  H1031    1.0000 0.37179  0.97318  0.65617  Biso   1.000  H
  H1032    1.0000 0.39324  0.94800  0.65544  Biso   1.000  H
  H1033    1.0000 0.81782  0.69090  0.30485  Biso   1.000  H
  H1034    1.0000 0.45790  0.81172  0.58020  Biso   1.000  H
  H1035    1.0000 0.46502  0.79151  0.56432  Biso   1.000  H
  H1036    1.0000 0.42103  0.81245  0.54588  Biso   1.000  H
  H1037    1.0000 0.55553  0.60092  0.56823  Biso   1.000  H
  H1038    1.0000 0.41390  0.83266  0.56177  Biso   1.000  H
  H1039    1.0000 0.32694  0.01947  0.66030  Biso   1.000  H
  H1040    1.0000 0.30565  0.04524  0.66142  Biso   1.000  H
  H1041    1.0000 0.28831  0.03446  0.62782  Biso   1.000  H
  H1042    1.0000 0.30960  0.00868  0.62670  Biso   1.000  H
  H1043    1.0000 0.49904  0.85067  0.70087  Biso   1.000  H
  H1044    1.0000 0.51714  0.84188  0.71727  Biso   1.000  H
  H1045    1.0000 0.84273  0.68949  0.33716  Biso   1.000  H
  H1046    1.0000 0.48855  0.88041  0.73640  Biso   1.000  H
  H1047    1.0000 0.47046  0.88919  0.72000  Biso   1.000  H
  H1048    1.0000 0.62700  0.48199  0.60524  Biso   1.000  H
  H1049    1.0000 0.43494  0.77305  0.51529  Biso   1.000  H
  H1050    1.0000 0.44206  0.75240  0.49967  Biso   1.000  H
  H1051    1.0000 0.48611  0.73200  0.51840  Biso   1.000  H
  H1052    1.0000 0.47888  0.75267  0.53395  Biso   1.000  H
  H1053    1.0000 0.51982  0.86228  0.76705  Biso   1.000  H
  H1054    1.0000 0.53621  0.85441  0.78389  Biso   1.000  H
  H1055    1.0000 0.57005  0.81972  0.76708  Biso   1.000  H
  H1056    1.0000 0.55335  0.82783  0.75010  Biso   1.000  H
  H1057    1.0000 0.84334  0.71477  0.33847  Biso   1.000  H
  H1058    1.0000 0.24872  0.08577  0.62971  Biso   1.000  H
  H1059    1.0000 0.64200  0.46379  0.61778  Biso   1.000  H
  H1060    1.0000 0.22734  0.11133  0.63075  Biso   1.000  H
  H1061    1.0000 0.24122  0.11952  0.66496  Biso   1.000  H
  H1062    1.0000 0.26258  0.09392  0.66384  Biso   1.000  H
  H1063    1.0000 0.34139  0.32367  0.82351  Biso   1.000  H
  H1064    1.0000 0.32773  0.28571  0.80853  Biso   1.000  H
  H1065    1.0000 0.31267  0.32372  0.79214  Biso   1.000  H
  H1066    1.0000 0.29377  0.31588  0.78280  Biso   1.000  H
  H1067    1.0000 0.28053  0.30276  0.76740  Biso   1.000  H
  H1068    1.0000 0.31072  0.25856  0.77637  Biso   1.000  H
  H1069    1.0000 0.73454  0.92146  0.21546  Biso   1.000  H
  H1070    1.0000 0.66617  0.49249  0.63502  Biso   1.000  H
  H1071    1.0000 0.32435  0.27138  0.79165  Biso   1.000  H
  H1072    1.0000 0.34172  0.31827  0.83885  Biso   1.000  H
  H1073    1.0000 0.35673  0.30679  0.85476  Biso   1.000  H
  H1074    1.0000 0.36520  0.26091  0.83581  Biso   1.000  H
  H1075    1.0000 0.35048  0.27221  0.81966  Biso   1.000  H
  H1076    1.0000 0.32887  0.35008  0.82543  Biso   1.000  H
  H1077    1.0000 0.32939  0.37488  0.82610  Biso   1.000  H
  H1078    1.0000 0.32353  0.36491  0.79207  Biso   1.000  H
  H1079    1.0000 0.32338  0.33970  0.79125  Biso   1.000  H
  H1080    1.0000 0.38535  0.24226  0.86986  Biso   1.000  H
  H1081    1.0000 0.65104  0.51059  0.62239  Biso   1.000  H
  H1082    1.0000 0.72015  0.93354  0.19969  Biso   1.000  H
  H1083    1.0000 0.40035  0.23146  0.88628  Biso   1.000  H
  H1084    1.0000 0.40960  0.27224  0.90009  Biso   1.000  H
  H1085    1.0000 0.39459  0.28303  0.88366  Biso   1.000  H
  H1086    1.0000 0.31472  0.41966  0.79533  Biso   1.000  H
  H1087    1.0000 0.31537  0.44493  0.79669  Biso   1.000  H
  H1088    1.0000 0.34129  0.44280  0.82870  Biso   1.000  H
  H1089    1.0000 0.34064  0.41752  0.82735  Biso   1.000  H
  H1090    1.0000 0.27824  0.23552  0.74951  Biso   1.000  H
  H1091    1.0000 0.26475  0.22231  0.73406  Biso   1.000  H
  H1092    1.0000 0.50751  0.62212  0.51130  Biso   1.000  H
  H1093    1.0000 0.24675  0.26130  0.71854  Biso   1.000  H
  H1094    1.0000 0.70087  0.89986  0.18727  Biso   1.000  H
  H1095    1.0000 0.26024  0.27451  0.73399  Biso   1.000  H
  H1096    1.0000 0.44324  0.24702  0.93053  Biso   1.000  H
  H1097    1.0000 0.45784  0.23505  0.94657  Biso   1.000  H
  H1098    1.0000 0.43811  0.20177  0.93449  Biso   1.000  H
  H1099    1.0000 0.42375  0.21371  0.91867  Biso   1.000  H
  H1100    1.0000 0.21830  0.23589  0.68906  Biso   1.000  H
  H1101    1.0000 0.20495  0.22218  0.67394  Biso   1.000  H
  H1102    1.0000 0.22776  0.18171  0.68861  Biso   1.000  H
  H1103    1.0000 0.49248  0.64033  0.49872  Biso   1.000  H
  H1104    1.0000 0.24098  0.19545  0.70361  Biso   1.000  H
  H1105    1.0000 0.32061  0.49067  0.79808  Biso   1.000  H
  H1106    1.0000 0.87687  0.95491  0.13520  Biso   1.000  H
  H1107    1.0000 0.71549  0.88776  0.20325  Biso   1.000  H
  H1108    1.0000 0.32095  0.51571  0.79882  Biso   1.000  H
  H1109    1.0000 0.33864  0.51977  0.83269  Biso   1.000  H
  H1110    1.0000 0.33824  0.49458  0.83185  Biso   1.000  H
  H1111    1.0000 0.72703  0.16100  0.97692  Biso   1.000  H
  H1112    1.0000 0.74785  0.19014  0.97712  Biso   1.000  H
  H1113    1.0000 0.70109  0.20982  0.97573  Biso   1.000  H
  H1114    1.0000 0.11330  0.63236  0.74418  Biso   1.000  H
  H1115    1.0000 0.51694  0.66872  0.51607  Biso   1.000  H
  H1116    1.0000 0.70574  0.23110  0.98613  Biso   1.000  H
  H1117    1.0000 0.70224  0.25726  0.98569  Biso   1.000  H
  H1118    1.0000 0.73606  0.23726  0.96781  Biso   1.000  H
  H1119    1.0000 0.73947  0.21083  0.96790  Biso   1.000  H
  H1120    1.0000 0.83836  0.64324  0.33565  Biso   1.000  H
  H1121    1.0000 0.74655  0.14138  0.96911  Biso   1.000  H
  H1122    1.0000 0.77086  0.11909  0.96973  Biso   1.000  H
  H1123    1.0000 0.79253  0.15006  0.98615  Biso   1.000  H
  H1124    1.0000 0.76842  0.17238  0.98588  Biso   1.000  H
  H1125    1.0000 0.70269  0.16098  0.96717  Biso   1.000  H
  H1126    1.0000 0.43146  0.66985  0.47712  Biso   1.000  H
  H1127    1.0000 0.67896  0.16061  0.96649  Biso   1.000  H
  H1128    1.0000 0.66508  0.20711  0.98485  Biso   1.000  H
  H1129    1.0000 0.68867  0.20755  0.98585  Biso   1.000  H
  H1130    1.0000 0.83907  0.10759  0.98206  Biso   1.000  H
  H1131    1.0000 0.86371  0.08540  0.98262  Biso   1.000  H
  H1132    1.0000 0.83806  0.61818  0.33492  Biso   1.000  H
  H1133    1.0000 0.84346  0.05366  0.97632  Biso   1.000  H
  H1134    1.0000 0.81882  0.07585  0.97575  Biso   1.000  H
  H1135    1.0000 0.61713  0.21020  0.97785  Biso   1.000  H
  H1136    1.0000 0.59272  0.21135  0.97724  Biso   1.000  H
  H1137    1.0000 0.53182  0.65043  0.52853  Biso   1.000  H
  H1138    1.0000 0.61009  0.16133  0.96985  Biso   1.000  H
  H1139    1.0000 0.63451  0.16017  0.97046  Biso   1.000  H
  H1140    1.0000 0.73366  0.28964  0.97490  Biso   1.000  H
  H1141    1.0000 0.72928  0.31653  0.97479  Biso   1.000  H
  H1142    1.0000 0.68449  0.33297  0.97762  Biso   1.000  H
  H1143    1.0000 0.68886  0.30608  0.97772  Biso   1.000  H
  H1144    1.0000 0.81982  0.61440  0.30112  Biso   1.000  H
  H1145    1.0000 0.89123  0.01193  0.98087  Biso   1.000  H
  H1146    1.0000 0.91559  0.98959  0.98148  Biso   1.000  H
  H1147    1.0000 0.93499  0.01921  0.98091  Biso   1.000  H
  H1148    1.0000 0.08020  0.04200  0.04478  Biso   1.000  H
  H1149    1.0000 0.91052  0.04153  0.98030  Biso   1.000  H
  H1150    1.0000 0.67667  0.38447  0.97666  Biso   1.000  H
  H1151    1.0000 0.67363  0.41088  0.97663  Biso   1.000  H
  H1152    1.0000 0.71953  0.39214  0.97536  Biso   1.000  H
  H1153    1.0000 0.72237  0.36604  0.97541  Biso   1.000  H
  H1154    1.0000 0.56609  0.16364  0.97332  Biso   1.000  H
  H1155    1.0000 0.54238  0.16380  0.97296  Biso   1.000  H
  H1156    1.0000 0.82018  0.63961  0.30194  Biso   1.000  H
  H1157    1.0000 0.52049  0.21262  0.97132  Biso   1.000  H
  H1158    1.0000 0.54443  0.21229  0.97167  Biso   1.000  H
  H1159    1.0000 0.06587  0.02637  0.03361  Biso   1.000  H
  H1160    1.0000 0.86319  0.81001  0.82126  Biso   1.000  H
  H1161    1.0000 0.82647  0.79672  0.80523  Biso   1.000  H
  H1162    1.0000 0.82725  0.82547  0.83688  Biso   1.000  H
  H1163    1.0000 0.80999  0.81738  0.83748  Biso   1.000  H
  H1164    1.0000 0.78581  0.81808  0.83652  Biso   1.000  H
  H1165    1.0000 0.77772  0.80756  0.80237  Biso   1.000  H
  H1166    1.0000 0.80159  0.80718  0.80314  Biso   1.000  H
  H1167    1.0000 0.87608  0.78812  0.81031  Biso   1.000  H
  H1168    1.0000 0.91796  0.93819  0.42983  Biso   1.000  H
  H1169    1.0000 0.88741  0.77385  0.79479  Biso   1.000  H
  H1170    1.0000 0.03768  0.04621  0.05593  Biso   1.000  H
  H1171    1.0000 0.84468  0.77942  0.77455  Biso   1.000  H
  H1172    1.0000 0.83308  0.79406  0.78992  Biso   1.000  H
  H1173    1.0000 0.87729  0.81315  0.83784  Biso   1.000  H
  H1174    1.0000 0.89030  0.82640  0.85322  Biso   1.000  H
  H1175    1.0000 0.84946  0.85699  0.86313  Biso   1.000  H
  H1176    1.0000 0.83613  0.84407  0.84759  Biso   1.000  H
  H1177    1.0000 0.86973  0.74299  0.74546  Biso   1.000  H
  H1178    1.0000 0.88132  0.72839  0.72988  Biso   1.000  H
  H1179    1.0000 0.91956  0.73816  0.74687  Biso   1.000  H
  H1180    1.0000 0.93122  0.95187  0.44485  Biso   1.000  H
  H1181    1.0000 0.05201  0.06184  0.06710  Biso   1.000  H
  H1182    1.0000 0.90798  0.75276  0.76245  Biso   1.000  H
  H1183    1.0000 0.87847  0.87785  0.89664  Biso   1.000  H
  H1184    1.0000 0.89213  0.89079  0.91215  Biso   1.000  H
  H1185    1.0000 0.92882  0.87032  0.89694  Biso   1.000  H
  H1186    1.0000 0.91516  0.85738  0.88144  Biso   1.000  H
  H1187    1.0000 0.73292  0.80161  0.80101  Biso   1.000  H
  H1188    1.0000 0.70863  0.80201  0.79983  Biso   1.000  H
  H1189    1.0000 0.70985  0.82608  0.83237  Biso   1.000  H
  H1190    1.0000 0.73414  0.82568  0.83354  Biso   1.000  H
  H1191    1.0000 0.93926  0.71504  0.71474  Biso   1.000  H
  H1192    1.0000 0.07954  0.09242  0.08860  Biso   1.000  H
  H1193    1.0000 0.95339  0.91166  0.45975  Biso   1.000  H
  H1194    1.0000 0.95131  0.70073  0.69948  Biso   1.000  H
  H1195    1.0000 0.91988  0.67986  0.68548  Biso   1.000  H
  H1196    1.0000 0.90783  0.69428  0.70084  Biso   1.000  H
  H1197    1.0000 0.66340  0.82403  0.83078  Biso   1.000  H
  H1198    1.0000 0.63931  0.82456  0.83000  Biso   1.000  H
  H1199    1.0000 0.63440  0.80632  0.79631  Biso   1.000  H
  H1200    1.0000 0.65860  0.80582  0.79716  Biso   1.000  H
  H1201    1.0000 0.95583  0.89629  0.92757  Biso   1.000  H
  H1202    1.0000 0.96946  0.90934  0.94290  Biso   1.000  H
  H1203    1.0000 0.09387  0.10805  0.09977  Biso   1.000  H
  H1204    1.0000 0.93311  0.92937  0.95846  Biso   1.000  H
  H1205    1.0000 0.93999  0.89800  0.44462  Biso   1.000  H
  H1206    1.0000 0.91953  0.91627  0.94310  Biso   1.000  H
  H1207    1.0000 0.84379  0.30306  0.83834  Biso   1.000  H
  H1208    1.0000 0.84086  0.30080  0.80506  Biso   1.000  H
  H1209    1.0000 0.80639  0.33688  0.82085  Biso   1.000  H
  H1210    1.0000 0.79155  0.33516  0.80429  Biso   1.000  H
  H1211    1.0000 0.77739  0.34694  0.78841  Biso   1.000  H
  H1212    1.0000 0.81761  0.33154  0.77835  Biso   1.000  H
  H1213    1.0000 0.83210  0.31996  0.79443  Biso   1.000  H
  H1214    1.0000 0.12250  0.08766  0.07771  Biso   1.000  H
  H1215    1.0000 0.86048  0.27733  0.83542  Biso   1.000  H
  H1216    1.0000 0.88449  0.25471  0.83566  Biso   1.000  H
  H1217    1.0000 0.24138  0.69384  0.47610  Biso   1.000  H
  H1218    1.0000 0.88965  0.26514  0.80908  Biso   1.000  H
  H1219    1.0000 0.86591  0.28796  0.80887  Biso   1.000  H
  H1220    1.0000 0.83613  0.32393  0.85318  Biso   1.000  H
  H1221    1.0000 0.82365  0.33793  0.86830  Biso   1.000  H
  H1222    1.0000 0.78137  0.35096  0.84646  Biso   1.000  H
  H1223    1.0000 0.79351  0.33681  0.83139  Biso   1.000  H
  H1224    1.0000 0.93095  0.21194  0.80558  Biso   1.000  H
  O1       1.0000 0.97477  0.96255  0.48338  Biso   1.000  O
  O2       1.0000 0.20355  0.14392  0.15174  Biso   1.000  O
  O3       1.0000 0.10787  0.03761  0.32185  Biso   1.000  O
  O4       1.0000 0.70262  0.94590  0.14941  Biso   1.000  O
  O5       1.0000 0.08119  0.04960  0.33255  Biso   1.000  O
  O6       1.0000 0.04057  0.08582  0.31198  Biso   1.000  O
  O7       1.0000 0.05673  0.05609  0.32205  Biso   1.000  O
  O8       1.0000 0.05255  0.10165  0.31401  Biso   1.000  O
  O9       1.0000 0.07031  0.04341  0.28918  Biso   1.000  O
  O10      1.0000 0.05042  0.05298  0.29750  Biso   1.000  O
  O11      1.0000 0.46542  0.67474  0.15685  Biso   1.000  O
  O12      1.0000 0.43154  0.69417  0.14444  Biso   1.000  O
  O13      1.0000 0.19734  0.18542  0.13750  Biso   1.000  O
  O14      1.0000 0.47593  0.65258  0.13493  Biso   1.000  O
  O15      1.0000 0.47678  0.70053  0.15715  Biso   1.000  O
  O16      1.0000 0.96812  0.96718  0.50626  Biso   1.000  O
  O17      1.0000 0.70164  0.93896  0.18229  Biso   1.000  O
  O18      1.0000 0.44206  0.66904  0.13453  Biso   1.000  O
  O19      1.0000 0.45146  0.71211  0.15757  Biso   1.000  O
  O20      1.0000 0.49069  0.66662  0.14423  Biso   1.000  O
  O21      1.0000 0.49884  0.67260  0.16899  Biso   1.000  O
  O22      1.0000 0.45651  0.67932  0.17906  Biso   1.000  O
  O23      1.0000 0.49035  0.66283  0.17813  Biso   1.000  O
  O24      1.0000 0.17107  0.14925  0.13912  Biso   1.000  O
  O25      1.0000 0.43956  0.69983  0.16972  Biso   1.000  O
  O26      1.0000 0.46299  0.64127  0.14680  Biso   1.000  O
  O27      1.0000 0.46959  0.64532  0.16563  Biso   1.000  O
  O28      1.0000 0.57604  0.31701  0.32034  Biso   1.000  O
  O29      1.0000 0.68407  0.97446  0.18097  Biso   1.000  O
  O30      1.0000 0.61160  0.30400  0.32175  Biso   1.000  O
  O31      1.0000 0.56764  0.33838  0.30311  Biso   1.000  O
  O32      1.0000 0.57275  0.28747  0.30202  Biso   1.000  O
  O33      1.0000 0.59905  0.32933  0.31816  Biso   1.000  O
  O34      1.0000 0.59674  0.28039  0.31307  Biso   1.000  O
  O35      1.0000 0.98396  0.98620  0.50475  Biso   1.000  O
  O36      1.0000 0.55638  0.32052  0.29619  Biso   1.000  O
  O37      1.0000 0.54504  0.31210  0.31139  Biso   1.000  O
  O38      1.0000 0.58089  0.31352  0.34473  Biso   1.000  O
  O39      1.0000 0.54854  0.32233  0.32983  Biso   1.000  O
  O40      1.0000 0.60153  0.29545  0.33729  Biso   1.000  O
  O41      1.0000 0.65066  0.97505  0.14749  Biso   1.000  O
  O42      1.0000 0.57106  0.35350  0.32742  Biso   1.000  O
  O43      1.0000 0.56292  0.34662  0.33877  Biso   1.000  O
  O44      1.0000 0.82892  0.56052  0.31801  Biso   1.000  O
  O45      1.0000 0.85751  0.56337  0.33658  Biso   1.000  O
  O46      1.0000 0.17309  0.18823  0.12741  Biso   1.000  O
  O47      1.0000 0.84117  0.52313  0.31687  Biso   1.000  O
  O48      1.0000 0.80882  0.56914  0.33496  Biso   1.000  O
  O49      1.0000 0.86410  0.53850  0.32564  Biso   1.000  O
  O50      1.0000 0.82620  0.58038  0.34216  Biso   1.000  O
  O51      1.0000 0.81696  0.53654  0.31995  Biso   1.000  O
  O52      1.0000 0.79392  0.56645  0.31049  Biso   1.000  O
  O53      1.0000 0.65894  0.98337  0.17223  Biso   1.000  O
  O54      1.0000 0.82384  0.58965  0.30841  Biso   1.000  O
  O55      1.0000 0.80028  0.57511  0.29918  Biso   1.000  O
  O56      1.0000 0.83381  0.59281  0.32701  Biso   1.000  O
  O57      1.0000 0.21489  0.15932  0.15145  Biso   1.000  O
  O58      1.0000 0.84897  0.53408  0.30125  Biso   1.000  O
  O59      1.0000 0.83165  0.55615  0.29366  Biso   1.000  O
  O60      1.0000 0.66949  0.95969  0.13790  Biso   1.000  O
  O61      1.0000 0.65652  0.93403  0.16240  Biso   1.000  O
  O62      1.0000 0.64342  0.96055  0.16120  Biso   1.000  O
  O63      1.0000 0.19313  0.47521  0.47428  Biso   1.000  O
  O64      1.0000 0.20628  0.49807  0.47215  Biso   1.000  O
  O65      1.0000 0.15937  0.49538  0.46226  Biso   1.000  O
  O66      1.0000 0.96239  0.93524  0.47142  Biso   1.000  O
  O67      1.0000 0.20139  0.45145  0.45211  Biso   1.000  O
  O68      1.0000 0.20385  0.19479  0.16279  Biso   1.000  O
  O69      1.0000 0.18107  0.51186  0.47320  Biso   1.000  O
  O70      1.0000 0.21845  0.46300  0.46077  Biso   1.000  O
  O71      1.0000 0.16781  0.46922  0.45351  Biso   1.000  O
  O72      1.0000 0.18943  0.44228  0.46632  Biso   1.000  O
  O73      1.0000 0.21728  0.46648  0.49661  Biso   1.000  O
  O74      1.0000 0.19671  0.44799  0.48514  Biso   1.000  O
  O75      1.0000 0.22702  0.47214  0.48576  Biso   1.000  O
  O76      1.0000 0.16832  0.50311  0.48702  Biso   1.000  O
  O77      1.0000 0.18322  0.48278  0.49663  Biso   1.000  O
  O78      1.0000 0.94304  0.99060  0.47536  Biso   1.000  O
  O79      1.0000 0.15209  0.21106  0.15835  Biso   1.000  O
  O80      1.0000 0.96574  0.65739  0.65939  Biso   1.000  O
  O81      1.0000 0.95695  0.68164  0.68141  Biso   1.000  O
  O82      1.0000 0.93182  0.66041  0.64768  Biso   1.000  O
  O83      1.0000 0.96216  0.68445  0.64842  Biso   1.000  O
  O84      1.0000 0.94027  0.66969  0.67298  Biso   1.000  O
  O85      1.0000 0.96911  0.69045  0.66718  Biso   1.000  O
  O86      1.0000 0.94170  0.66608  0.63701  Biso   1.000  O
  O87      1.0000 0.97548  0.64987  0.63696  Biso   1.000  O
  O88      1.0000 0.99964  0.63663  0.67110  Biso   1.000  O
  O89      1.0000 0.99054  0.62941  0.64639  Biso   1.000  O
  O90      1.0000 0.18446  0.20532  0.17172  Biso   1.000  O
  O91      1.0000 0.97284  0.94138  0.49658  Biso   1.000  O
  O92      1.0000 0.99058  0.66415  0.68025  Biso   1.000  O
  O93      1.0000 0.95234  0.63475  0.66136  Biso   1.000  O
  O94      1.0000 0.97733  0.62070  0.65999  Biso   1.000  O
  O95      1.0000 0.48043  0.18687  0.97382  Biso   1.000  O
  O96      1.0000 0.50183  0.20118  0.97173  Biso   1.000  O
  O97      1.0000 0.50752  0.16023  0.98664  Biso   1.000  O
  O98      1.0000 0.47265  0.21122  0.99584  Biso   1.000  O
  O99      1.0000 0.51494  0.17467  0.97297  Biso   1.000  O
  O100     1.0000 0.47782  0.22223  0.98520  Biso   1.000  O
  O101     1.0000 0.14734  0.20399  0.13962  Biso   1.000  O
  O102     1.0000 0.48878  0.17573  0.99630  Biso   1.000  O
  O103     1.0000 0.95043  0.99513  0.49400  Biso   1.000  O
  O104     1.0000 0.45554  0.18943  0.98473  Biso   1.000  O
  O105     1.0000 0.45667  0.19634  0.95183  Biso   1.000  O
  O106     1.0000 0.44938  0.18234  0.96603  Biso   1.000  O
  O107     1.0000 0.46818  0.21399  0.95996  Biso   1.000  O
  O108     1.0000 0.49928  0.15192  0.96199  Biso   1.000  O
  O109     1.0000 0.47419  0.16097  0.95315  Biso   1.000  O
  O110     1.0000 0.18423  0.17079  0.65025  Biso   1.000  O
  O111     1.0000 0.16699  0.16617  0.66406  Biso   1.000  O
  O112     1.0000 0.99214  0.96685  0.46950  Biso   1.000  O
  O113     1.0000 0.17827  0.15827  0.16399  Biso   1.000  O
  O114     1.0000 0.21605  0.14301  0.65827  Biso   1.000  O
  O115     1.0000 0.17496  0.14722  0.62898  Biso   1.000  O
  O116     1.0000 0.94999  0.95632  0.46239  Biso   1.000  O
  O117     1.0000 0.19248  0.15844  0.67209  Biso   1.000  O
  O118     1.0000 0.15714  0.15930  0.63939  Biso   1.000  O
  O119     1.0000 0.20855  0.13839  0.63957  Biso   1.000  O
  O120     1.0000 0.19070  0.16626  0.62738  Biso   1.000  O
  O121     1.0000 0.16225  0.20796  0.65129  Biso   1.000  O
  O122     1.0000 0.18591  0.19217  0.63705  Biso   1.000  O
  O123     1.0000 0.14989  0.19370  0.65177  Biso   1.000  O
  O124     1.0000 0.16906  0.18501  0.17207  Biso   1.000  O
  O125     1.0000 0.20896  0.17718  0.67114  Biso   1.000  O
  O126     1.0000 0.19615  0.19848  0.66218  Biso   1.000  O
  O127     1.0000 0.69328  0.45872  0.97665  Biso   1.000  O
  O128     1.0000 0.96671  0.97479  0.46146  Biso   1.000  O
  O129     1.0000 0.68196  0.43286  0.97642  Biso   1.000  O
  O130     1.0000 0.71935  0.43378  0.96393  Biso   1.000  O
  O131     1.0000 0.66842  0.47057  0.95535  Biso   1.000  O
  O132     1.0000 0.70727  0.42115  0.97591  Biso   1.000  O
  O133     1.0000 0.66005  0.46072  0.96452  Biso   1.000  O
  O134     1.0000 0.70229  0.45413  0.95447  Biso   1.000  O
  O135     1.0000 0.97976  0.95397  0.98333  Biso   1.000  O
  O136     1.0000 0.68913  0.48823  0.96786  Biso   1.000  O
  O137     1.0000 0.68257  0.48100  0.99852  Biso   1.000  O
  O138     1.0000 0.69578  0.49224  0.98669  Biso   1.000  O
  O139     1.0000 0.66817  0.46655  0.98926  Biso   1.000  O
  O140     1.0000 0.00220  0.97350  0.49405  Biso   1.000  O
  O141     1.0000 0.72708  0.43943  0.98899  Biso   1.000  O
  O142     1.0000 0.71651  0.46456  0.99888  Biso   1.000  O
  O143     1.0000 0.47716  0.69056  0.47729  Biso   1.000  O
  O144     1.0000 0.50939  0.69286  0.48768  Biso   1.000  O
  O145     1.0000 0.48816  0.66495  0.45647  Biso   1.000  O
  O146     1.0000 0.95512  0.93919  0.97038  Biso   1.000  O
  O147     1.0000 0.48457  0.66379  0.49002  Biso   1.000  O
  O148     1.0000 0.50518  0.68616  0.46896  Biso   1.000  O
  O149     1.0000 0.49843  0.67879  0.49949  Biso   1.000  O
  O150     1.0000 0.47854  0.65583  0.46528  Biso   1.000  O
  O151     1.0000 0.45241  0.67871  0.47680  Biso   1.000  O
  O152     1.0000 0.99619  0.92518  0.48240  Biso   1.000  O
  O153     1.0000 0.99023  0.94857  0.96180  Biso   1.000  O
  O154     1.0000 0.95504  0.98976  0.98170  Biso   1.000  O
  O155     1.0000 0.97473  0.92825  0.96176  Biso   1.000  O
  O156     1.0000 0.94404  0.97413  0.98201  Biso   1.000  O
  O157     1.0000 0.98072  0.97523  0.96970  Biso   1.000  O
  O158     1.0000 0.45880  0.72589  0.48879  Biso   1.000  O
  O159     1.0000 0.98752  0.98478  0.99430  Biso   1.000  O
  O160     1.0000 0.98606  0.94503  0.00620  Biso   1.000  O
  O161     1.0000 0.00211  0.96405  0.00487  Biso   1.000  O
  O162     1.0000 0.96135  0.94810  0.99557  Biso   1.000  O
  O163     1.0000 0.00735  0.92235  0.97528  Biso   1.000  O
  O164     1.0000 0.00915  0.93932  0.48169  Biso   1.000  O
  O165     1.0000 0.01212  0.92893  0.99395  Biso   1.000  O
  O166     1.0000 0.68180  0.44232  0.65660  Biso   1.000  O
  O167     1.0000 0.70657  0.45417  0.65706  Biso   1.000  O
  O168     1.0000 0.70588  0.41518  0.67016  Biso   1.000  O
  O169     1.0000 0.44142  0.70520  0.47581  Biso   1.000  O
  O170     1.0000 0.67068  0.46811  0.67739  Biso   1.000  O
  O171     1.0000 0.71748  0.42762  0.65788  Biso   1.000  O
  O172     1.0000 0.68035  0.47708  0.66850  Biso   1.000  O
  O173     1.0000 0.68617  0.43265  0.67886  Biso   1.000  O
  O174     1.0000 0.65361  0.44671  0.66482  Biso   1.000  O
  O175     1.0000 0.66065  0.45385  0.63442  Biso   1.000  O
  O176     1.0000 0.67784  0.94844  0.16034  Biso   1.000  O
  O177     1.0000 0.64961  0.44016  0.64610  Biso   1.000  O
  O178     1.0000 0.67420  0.46918  0.64383  Biso   1.000  O
  O179     1.0000 0.70018  0.40693  0.64492  Biso   1.000  O
  O180     1.0000 0.48275  0.71479  0.49932  Biso   1.000  O
  O181     1.0000 0.67615  0.41821  0.63452  Biso   1.000  O
  O182     1.0000 0.58297  0.81613  0.81308  Biso   1.000  O
  O183     1.0000 0.61404  0.82090  0.82204  Biso   1.000  O
  O184     1.0000 0.59606  0.78640  0.79462  Biso   1.000  O
  O185     1.0000 0.59139  0.79476  0.83028  Biso   1.000  O
  O186     1.0000 0.61032  0.81104  0.80355  Biso   1.000  O
  O187     1.0000 0.60269  0.81258  0.83724  Biso   1.000  O
  O188     1.0000 0.68565  0.92416  0.13828  Biso   1.000  O
  O189     1.0000 0.58787  0.77971  0.80605  Biso   1.000  O
  O190     1.0000 0.55995  0.80376  0.81512  Biso   1.000  O
  O191     1.0000 0.47289  0.70013  0.45502  Biso   1.000  O
  O192     1.0000 0.56228  0.85278  0.82028  Biso   1.000  O
  O193     1.0000 0.54741  0.82920  0.81176  Biso   1.000  O
  O194     1.0000 0.58624  0.84577  0.83136  Biso   1.000  O
  O195     1.0000 0.57822  0.81963  0.78873  Biso   1.000  O
  O196     1.0000 0.55756  0.83766  0.79615  Biso   1.000  O
  O197     1.0000 0.08401  0.07120  0.82217  Biso   1.000  O
  O198     1.0000 0.07883  0.08644  0.80236  Biso   1.000  O
  O199     1.0000 0.10974  0.08307  0.83743  Biso   1.000  O
  O200     1.0000 0.69040  0.92108  0.17404  Biso   1.000  O
  O201     1.0000 0.05737  0.10198  0.83178  Biso   1.000  O
  O202     1.0000 0.45321  0.71785  0.46370  Biso   1.000  O
  O203     1.0000 0.10329  0.07999  0.81287  Biso   1.000  O
  O204     1.0000 0.05229  0.09826  0.81308  Biso   1.000  O
  O205     1.0000 0.08969  0.09288  0.84570  Biso   1.000  O
  O206     1.0000 0.07254  0.07242  0.84202  Biso   1.000  O
  O207     1.0000 0.07523  0.04252  0.80680  Biso   1.000  O
  O208     1.0000 0.08043  0.04699  0.83145  Biso   1.000  O
  O209     1.0000 0.06305  0.06464  0.79873  Biso   1.000  O
  O210     1.0000 0.11935  0.05023  0.82288  Biso   1.000  O
  O211     1.0000 0.10739  0.03448  0.82106  Biso   1.000  O
  O212     1.0000 0.70884  0.95304  0.16810  Biso   1.000  O
  O213     1.0000 0.17945  0.17956  0.15038  Biso   1.000  O
  O214     1.0000 0.32985  0.57355  0.81575  Biso   1.000  O
  O215     1.0000 0.31757  0.61095  0.81676  Biso   1.000  O
  O216     1.0000 0.36479  0.56764  0.82329  Biso   1.000  O
  O217     1.0000 0.32687  0.57790  0.84002  Biso   1.000  O
  O218     1.0000 0.34188  0.59762  0.81384  Biso   1.000  O
  O219     1.0000 0.30967  0.59997  0.83241  Biso   1.000  O
  O220     1.0000 0.35840  0.55878  0.83447  Biso   1.000  O
  O221     1.0000 0.33477  0.54449  0.82538  Biso   1.000  O
  O222     1.0000 0.30138  0.57068  0.79714  Biso   1.000  O
  O223     1.0000 0.32509  0.54111  0.80673  Biso   1.000  O
  O224     1.0000 0.15743  0.16892  0.12896  Biso   1.000  O
  O225     1.0000 0.68087  0.91288  0.14896  Biso   1.000  O
  O226     1.0000 0.29477  0.59549  0.80814  Biso   1.000  O
  O227     1.0000 0.35001  0.56483  0.79878  Biso   1.000  O
  O228     1.0000 0.33263  0.55359  0.79163  Biso   1.000  O
  O229     1.0000 0.07606  0.06479  0.31276  Biso   1.000  O
  O230     1.0000 0.07958  0.08914  0.30358  Biso   1.000  O
  O231     1.0000 0.10303  0.03405  0.30319  Biso   1.000  O
  O232     1.0000 0.09695  0.07124  0.33610  Biso   1.000  O
  O233     1.0000 0.08757  0.06374  0.29296  Biso   1.000  O
  O234     1.0000 0.08451  0.09349  0.32816  Biso   1.000  O
  Zn1      1.0000 0.96953  0.97718  0.49648  Biso   1.000  Zn
  Zn2      1.0000 0.49967  0.16924  0.97384  Biso   1.000  Zn
  Zn3      1.0000 0.47453  0.19068  0.98706  Biso   1.000  Zn
  Zn4      1.0000 0.97644  0.94196  0.48339  Biso   1.000  Zn
  Zn5      1.0000 0.46579  0.18185  0.96175  Biso   1.000  Zn
  Zn6      1.0000 0.16537  0.17245  0.65125  Biso   1.000  Zn
  Zn7      1.0000 0.19979  0.16271  0.66237  Biso   1.000  Zn
  Zn8      1.0000 0.18940  0.15625  0.63715  Biso   1.000  Zn
  Zn9      1.0000 0.18221  0.19152  0.65023  Biso   1.000  Zn
  Zn10     1.0000 0.67663  0.45484  0.97670  Biso   1.000  Zn
  Zn11     1.0000 0.71099  0.43912  0.97638  Biso   1.000  Zn
  Zn12     1.0000 0.17623  0.49548  0.47416  Biso   1.000  Zn
  Zn13     1.0000 0.68850  0.46755  0.96409  Biso   1.000  Zn
  Zn14     1.0000 0.69691  0.47345  0.98962  Biso   1.000  Zn
  Zn15     1.0000 0.49137  0.69414  0.49038  Biso   1.000  Zn
  Zn16     1.0000 0.95925  0.97070  0.47122  Biso   1.000  Zn
  Zn17     1.0000 0.48551  0.68572  0.46499  Biso   1.000  Zn
  Zn18     1.0000 0.47326  0.67306  0.47732  Biso   1.000  Zn
  Zn19     1.0000 0.45845  0.70906  0.47642  Biso   1.000  Zn
  Zn20     1.0000 0.16498  0.18491  0.13717  Biso   1.000  Zn
  Zn21     1.0000 0.18288  0.15868  0.15121  Biso   1.000  Zn
  Zn22     1.0000 0.19811  0.17983  0.15056  Biso   1.000  Zn
  Zn23     1.0000 0.18812  0.46023  0.46205  Biso   1.000  Zn
  Zn24     1.0000 0.17165  0.19462  0.16260  Biso   1.000  Zn
  Zn25     1.0000 0.96090  0.95382  0.98278  Biso   1.000  Zn
  Zn26     1.0000 0.98762  0.93884  0.97111  Biso   1.000  Zn
  Zn27     1.0000 0.97590  0.97501  0.98238  Biso   1.000  Zn
  Zn28     1.0000 0.99372  0.96059  0.48226  Biso   1.000  Zn
  Zn29     1.0000 0.99440  0.94818  0.99648  Biso   1.000  Zn
  Zn30     1.0000 0.68565  0.45984  0.65651  Biso   1.000  Zn
  Zn31     1.0000 0.70050  0.42378  0.65736  Biso   1.000  Zn
  Zn32     1.0000 0.67340  0.44716  0.66888  Biso   1.000  Zn
  Zn33     1.0000 0.66767  0.43868  0.64351  Biso   1.000  Zn
  Zn34     1.0000 0.19747  0.46838  0.48761  Biso   1.000  Zn
  Zn35     1.0000 0.59597  0.82351  0.82538  Biso   1.000  Zn
  Zn36     1.0000 0.59158  0.80864  0.80054  Biso   1.000  Zn
  Zn37     1.0000 0.58059  0.79936  0.81601  Biso   1.000  Zn
  Zn38     1.0000 0.56343  0.83315  0.81046  Biso   1.000  Zn
  Zn39     1.0000 0.07005  0.07975  0.80963  Biso   1.000  Zn
  Zn40     1.0000 0.68368  0.94469  0.14708  Biso   1.000  Zn
  Zn41     1.0000 0.10325  0.07109  0.82382  Biso   1.000  Zn
  Zn42     1.0000 0.07627  0.08413  0.83486  Biso   1.000  Zn
  Zn43     1.0000 0.08670  0.04972  0.82039  Biso   1.000  Zn
  Zn44     1.0000 0.31368  0.59408  0.81815  Biso   1.000  Zn
  Zn45     1.0000 0.97038  0.67271  0.67156  Biso   1.000  Zn
  Zn46     1.0000 0.34593  0.57581  0.81304  Biso   1.000  Zn
  Zn47     1.0000 0.33714  0.56409  0.82837  Biso   1.000  Zn
  Zn48     1.0000 0.32256  0.56030  0.80334  Biso   1.000  Zn
  Zn49     1.0000 0.07321  0.08635  0.31456  Biso   1.000  Zn
  Zn50     1.0000 0.08394  0.05192  0.30010  Biso   1.000  Zn
  Zn51     1.0000 0.08999  0.05613  0.32523  Biso   1.000  Zn
  Zn52     1.0000 0.67648  0.92987  0.16140  Biso   1.000  Zn
  Zn53     1.0000 0.05677  0.06499  0.31111  Biso   1.000  Zn
  Zn54     1.0000 0.44770  0.69432  0.15711  Biso   1.000  Zn
  Zn55     1.0000 0.46166  0.66013  0.14384  Biso   1.000  Zn
  Zn56     1.0000 0.94822  0.65578  0.66032  Biso   1.000  Zn
  Zn57     1.0000 0.48218  0.67848  0.15682  Biso   1.000  Zn
  Zn58     1.0000 0.47023  0.66595  0.16940  Biso   1.000  Zn
  Zn59     1.0000 0.59561  0.29998  0.32299  Biso   1.000  Zn
  Zn60     1.0000 0.57839  0.33380  0.31739  Biso   1.000  Zn
  Zn61     1.0000 0.56305  0.30963  0.30806  Biso   1.000  Zn
  Zn62     1.0000 0.56742  0.32446  0.33286  Biso   1.000  Zn
  Zn63     1.0000 0.83628  0.57370  0.33041  Biso   1.000  Zn
  Zn64     1.0000 0.69246  0.95353  0.17240  Biso   1.000  Zn
  Zn65     1.0000 0.84514  0.53997  0.31559  Biso   1.000  Zn
  Zn66     1.0000 0.81283  0.55832  0.32073  Biso   1.000  Zn
  Zn67     1.0000 0.96137  0.66418  0.64602  Biso   1.000  Zn
  Zn68     1.0000 0.82151  0.56997  0.30535  Biso   1.000  Zn
  Zn69     1.0000 0.65860  0.96605  0.16033  Biso   1.000  Zn
  Zn70     1.0000 0.21049  0.47700  0.47328  Biso   1.000  Zn
  Zn71     1.0000 0.98258  0.63695  0.65924  Biso   1.000  Zn
  Zn72     1.0000 0.48195  0.20534  0.97271  Biso   1.000  Zn
