data_image0
_cell_length_a       69.298
_cell_length_b       69.3055
_cell_length_c       69.3013
_cell_angle_alpha    89.6494
_cell_angle_beta     92.9193
_cell_angle_gamma    90.4336

_symmetry_space_group_name_H-M    "P 1"
_symmetry_int_tables_number       1

loop_
  _symmetry_equiv_pos_as_xyz
  'x, y, z'

loop_
  _atom_site_label
  _atom_site_occupancy
  _atom_site_fract_x
  _atom_site_fract_y
  _atom_site_fract_z
  _atom_site_thermal_displace_type
  _atom_site_B_iso_or_equiv
  _atom_site_type_symbol
  Zn1      1.0000 0.51906  0.48425  0.50412  Biso   1.000  Zn
  Zn2      1.0000 0.51919  0.52957  0.50390  Biso   1.000  Zn
  Zn3      1.0000 0.48602  0.50680  0.48031  Biso   1.000  Zn
  Zn4      1.0000 0.48693  0.50673  0.52565  Biso   1.000  Zn
  O1       1.0000 0.50280  0.50684  0.50350  Biso   1.000  O
  O2       1.0000 0.54633  0.49035  0.50468  Biso   1.000  O
  O3       1.0000 0.51442  0.54587  0.48165  Biso   1.000  O
  O4       1.0000 0.48986  0.48466  0.46432  Biso   1.000  O
  O5       1.0000 0.54642  0.52375  0.50455  Biso   1.000  O
  O6       1.0000 0.51421  0.46798  0.48201  Biso   1.000  O
  O7       1.0000 0.49001  0.52897  0.46410  Biso   1.000  O
  O8       1.0000 0.45888  0.50668  0.48541  Biso   1.000  O
  O9       1.0000 0.49141  0.48457  0.54210  Biso   1.000  O
  O10      1.0000 0.45955  0.50664  0.51883  Biso   1.000  O
  O11      1.0000 0.51536  0.46808  0.52633  Biso   1.000  O
  O12      1.0000 0.51556  0.54566  0.52598  Biso   1.000  O
  O13      1.0000 0.49154  0.52887  0.54192  Biso   1.000  O
  C1       1.0000 0.44974  0.50665  0.50184  Biso   1.000  C
  C2       1.0000 0.50367  0.54360  0.54030  Biso   1.000  C
  C3       1.0000 0.50349  0.46998  0.54062  Biso   1.000  C
  C4       1.0000 0.55584  0.50709  0.50466  Biso   1.000  C
  C5       1.0000 0.50190  0.46995  0.46687  Biso   1.000  C
  C6       1.0000 0.50211  0.54379  0.46652  Biso   1.000  C
  H1       1.0000 0.98424  0.25845  0.26782  Biso   1.000  H
  C7       1.0000 0.99490  0.24387  0.24354  Biso   1.000  C
  C8       1.0000 0.00872  0.24405  0.22975  Biso   1.000  C
  H2       1.0000 0.00913  0.23232  0.21961  Biso   1.000  H
  C9       1.0000 0.02265  0.25854  0.22954  Biso   1.000  C
  C10      1.0000 0.02258  0.27299  0.24333  Biso   1.000  C
  H3       1.0000 0.03287  0.28473  0.24283  Biso   1.000  H
  C11      1.0000 0.00873  0.27312  0.25709  Biso   1.000  C
  C12      1.0000 0.99501  0.25848  0.25710  Biso   1.000  C
  C13      1.0000 0.05630  0.26418  0.21945  Biso   1.000  C
  H4       1.0000 0.06066  0.26832  0.23404  Biso   1.000  H
  C14      1.0000 0.07006  0.26408  0.20565  Biso   1.000  C
  H5       1.0000 0.08476  0.26839  0.20956  Biso   1.000  H
  C15      1.0000 0.06518  0.25841  0.18697  Biso   1.000  C
  C16      1.0000 0.04640  0.25284  0.18221  Biso   1.000  C
  H6       1.0000 0.04240  0.24847  0.16759  Biso   1.000  H
  C17      1.0000 0.03261  0.25288  0.19597  Biso   1.000  C
  H7       1.0000 0.01795  0.24879  0.19168  Biso   1.000  H
  C18      1.0000 0.03740  0.25855  0.21477  Biso   1.000  C
  C19      1.0000 0.97444  0.22077  0.26126  Biso   1.000  C
  H8       1.0000 0.98109  0.22568  0.27480  Biso   1.000  H
  C20      1.0000 0.96035  0.20656  0.26159  Biso   1.000  C
  H9       1.0000 0.95601  0.20084  0.27527  Biso   1.000  H
  C21      1.0000 0.95177  0.19964  0.24460  Biso   1.000  C
  C22      1.0000 0.95752  0.20695  0.22722  Biso   1.000  C
  H10      1.0000 0.95082  0.20166  0.21383  Biso   1.000  H
  C23      1.0000 0.97165  0.22114  0.22683  Biso   1.000  C
  H11      1.0000 0.97554  0.22693  0.21303  Biso   1.000  H
  C24      1.0000 0.98019  0.22829  0.24386  Biso   1.000  C
  C25      1.0000 0.99108  0.29612  0.27716  Biso   1.000  C
  H12      1.0000 0.97753  0.29117  0.27046  Biso   1.000  H
  C26      1.0000 0.99076  0.31027  0.29111  Biso   1.000  C
  H13      1.0000 0.97709  0.31590  0.29530  Biso   1.000  H
  C27      1.0000 0.00775  0.31724  0.29975  Biso   1.000  C
  C28      1.0000 0.02512  0.31005  0.29418  Biso   1.000  C
  H14      1.0000 0.03851  0.31537  0.30092  Biso   1.000  H
  C29      1.0000 0.02550  0.29591  0.28018  Biso   1.000  C
  H15      1.0000 0.03928  0.29021  0.27643  Biso   1.000  H
  C30      1.0000 0.00845  0.28869  0.27161  Biso   1.000  C
  C31      1.0000 0.93682  0.18502  0.24508  Biso   1.000  C
  C32      1.0000 0.92425  0.17282  0.24561  Biso   1.000  C
  C33      1.0000 0.07958  0.25829  0.17256  Biso   1.000  C
  C34      1.0000 0.09161  0.25816  0.16047  Biso   1.000  C
  C35      1.0000 0.00726  0.33177  0.31458  Biso   1.000  C
  C36      1.0000 0.00666  0.34390  0.32704  Biso   1.000  C
  C37      1.0000 0.90774  0.14393  0.23262  Biso   1.000  C
  H16      1.0000 0.91785  0.14356  0.22126  Biso   1.000  H
  C38      1.0000 0.89338  0.13002  0.23336  Biso   1.000  C
  H17      1.0000 0.89231  0.11881  0.22256  Biso   1.000  H
  C39      1.0000 0.88039  0.13035  0.24782  Biso   1.000  C
  C40      1.0000 0.88188  0.14472  0.26155  Biso   1.000  C
  H18      1.0000 0.87178  0.14509  0.27292  Biso   1.000  H
  C41      1.0000 0.89625  0.15864  0.26081  Biso   1.000  C
  H19      1.0000 0.89732  0.16983  0.27161  Biso   1.000  H
  C42      1.0000 0.90923  0.15830  0.24635  Biso   1.000  C
  C43      1.0000 0.01962  0.37278  0.34354  Biso   1.000  C
  H20      1.0000 0.03116  0.37328  0.33363  Biso   1.000  H
  C44      1.0000 0.01874  0.38662  0.35777  Biso   1.000  C
  H21      1.0000 0.02960  0.39789  0.35891  Biso   1.000  H
  C45      1.0000 0.00404  0.38614  0.37050  Biso   1.000  C
  C46      1.0000 0.99023  0.37169  0.36890  Biso   1.000  C
  H22      1.0000 0.97867  0.37120  0.37880  Biso   1.000  H
  C47      1.0000 0.99111  0.35784  0.35468  Biso   1.000  C
  H23      1.0000 0.98023  0.34659  0.35351  Biso   1.000  H
  C48      1.0000 0.00581  0.35833  0.34194  Biso   1.000  C
  C49      1.0000 0.10490  0.24449  0.13142  Biso   1.000  C
  H24      1.0000 0.09328  0.23398  0.13079  Biso   1.000  H
  C50      1.0000 0.11861  0.24435  0.11758  Biso   1.000  C
  H25      1.0000 0.11766  0.23372  0.10621  Biso   1.000  H
  C51      1.0000 0.13352  0.25771  0.11821  Biso   1.000  C
  C52      1.0000 0.13459  0.27122  0.13281  Biso   1.000  C
  H26      1.0000 0.14620  0.28174  0.13343  Biso   1.000  H
  C53      1.0000 0.12087  0.27137  0.14665  Biso   1.000  C
  H27      1.0000 0.12182  0.28199  0.15801  Biso   1.000  H
  C54      1.0000 0.10596  0.25800  0.14602  Biso   1.000  C
  C55      1.0000 0.86541  0.11578  0.24857  Biso   1.000  C
  C56      1.0000 0.85293  0.10350  0.24907  Biso   1.000  C
  C57      1.0000 0.14786  0.25757  0.10374  Biso   1.000  C
  C58      1.0000 0.15989  0.25749  0.09164  Biso   1.000  C
  C59      1.0000 0.00313  0.40065  0.38531  Biso   1.000  C
  C60      1.0000 0.00250  0.41290  0.39764  Biso   1.000  C
  C61      1.0000 0.82313  0.09017  0.26172  Biso   1.000  C
  H28      1.0000 0.82245  0.10246  0.27119  Biso   1.000  H
  C62      1.0000 0.80894  0.07602  0.26195  Biso   1.000  C
  H29      1.0000 0.79735  0.07755  0.27167  Biso   1.000  H
  C63      1.0000 0.80960  0.06020  0.24986  Biso   1.000  C
  C64      1.0000 0.82471  0.05882  0.23761  Biso   1.000  C
  H30      1.0000 0.82571  0.04671  0.22798  Biso   1.000  H
  C65      1.0000 0.83885  0.07299  0.23743  Biso   1.000  C
  H31      1.0000 0.85054  0.07175  0.22778  Biso   1.000  H
  C66      1.0000 0.83813  0.08872  0.24945  Biso   1.000  C
  C67      1.0000 0.19004  0.26971  0.07889  Biso   1.000  C
  H32      1.0000 0.19163  0.27938  0.09105  Biso   1.000  H
  C68      1.0000 0.20382  0.26972  0.06513  Biso   1.000  C
  H33      1.0000 0.21598  0.27951  0.06686  Biso   1.000  H
  C69      1.0000 0.20202  0.25742  0.04943  Biso   1.000  C
  C70      1.0000 0.18616  0.24511  0.04782  Biso   1.000  C
  H34      1.0000 0.18428  0.23533  0.03578  Biso   1.000  H
  C71      1.0000 0.17241  0.24515  0.06163  Biso   1.000  C
  H35      1.0000 0.16011  0.23549  0.06019  Biso   1.000  H
  C72      1.0000 0.17427  0.25744  0.07722  Biso   1.000  C
  C73      1.0000 0.98966  0.42601  0.42722  Biso   1.000  C
  H36      1.0000 0.98024  0.41356  0.42803  Biso   1.000  H
  C74      1.0000 0.98934  0.44015  0.44123  Biso   1.000  C
  H37      1.0000 0.97960  0.43845  0.45282  Biso   1.000  H
  C75      1.0000 0.00139  0.45616  0.44041  Biso   1.000  C
  C76      1.0000 0.01368  0.45775  0.42531  Biso   1.000  C
  H38      1.0000 0.02329  0.47001  0.42419  Biso   1.000  H
  C77      1.0000 0.01395  0.44360  0.41136  Biso   1.000  C
  H39      1.0000 0.02364  0.44501  0.39969  Biso   1.000  H
  C78      1.0000 0.00199  0.42767  0.41225  Biso   1.000  C
  H40      1.0000 0.03072  0.73301  0.24063  Biso   1.000  H
  C79      1.0000 0.02001  0.75894  0.22718  Biso   1.000  C
  C80      1.0000 0.00584  0.77309  0.22705  Biso   1.000  C
  H41      1.0000 0.00582  0.78432  0.21619  Biso   1.000  H
  C81      1.0000 0.99174  0.77314  0.24060  Biso   1.000  C
  C82      1.0000 0.99180  0.75877  0.25455  Biso   1.000  C
  H42      1.0000 0.98169  0.75929  0.26588  Biso   1.000  H
  C83      1.0000 0.00647  0.74376  0.25491  Biso   1.000  C
  C84      1.0000 0.02024  0.74442  0.24112  Biso   1.000  C
  C85      1.0000 0.95805  0.78384  0.24481  Biso   1.000  C
  H43      1.0000 0.95386  0.76909  0.24764  Biso   1.000  H
  C86      1.0000 0.94420  0.79806  0.24530  Biso   1.000  C
  H44      1.0000 0.92960  0.79430  0.24876  Biso   1.000  H
  C87      1.0000 0.94889  0.81702  0.24147  Biso   1.000  C
  C88      1.0000 0.96754  0.82163  0.23695  Biso   1.000  C
  H45      1.0000 0.97137  0.83647  0.23401  Biso   1.000  H
  C89      1.0000 0.98144  0.80742  0.23641  Biso   1.000  C
  H46      1.0000 0.99604  0.81152  0.23333  Biso   1.000  H
  C90      1.0000 0.97686  0.78837  0.24046  Biso   1.000  C
  C91      1.0000 0.05375  0.75431  0.21732  Biso   1.000  C
  H47      1.0000 0.05818  0.75080  0.23210  Biso   1.000  H
  C92      1.0000 0.06749  0.75430  0.20351  Biso   1.000  C
  H48      1.0000 0.08225  0.75054  0.20760  Biso   1.000  H
  C93      1.0000 0.06249  0.75909  0.18457  Biso   1.000  C
  C94      1.0000 0.04362  0.76396  0.17957  Biso   1.000  C
  H49      1.0000 0.03953  0.76765  0.16475  Biso   1.000  H
  C95      1.0000 0.02984  0.76403  0.19336  Biso   1.000  C
  H50      1.0000 0.01510  0.76748  0.18891  Biso   1.000  H
  C96      1.0000 0.03475  0.75915  0.21241  Biso   1.000  C
  C97      1.0000 0.02350  0.72079  0.27771  Biso   1.000  C
  H51      1.0000 0.03728  0.72634  0.27347  Biso   1.000  H
  C98      1.0000 0.02325  0.70660  0.29184  Biso   1.000  C
  H52      1.0000 0.03671  0.70108  0.29813  Biso   1.000  H
  C99      1.0000 0.00594  0.69959  0.29808  Biso   1.000  C
  C100     1.0000 0.98887  0.70682  0.29003  Biso   1.000  C
  H53      1.0000 0.97524  0.70136  0.29478  Biso   1.000  H
  C101     1.0000 0.98906  0.72103  0.27596  Biso   1.000  C
  H54      1.0000 0.97544  0.72619  0.26973  Biso   1.000  H
  C102     1.0000 0.00638  0.72822  0.26966  Biso   1.000  C
  C103     1.0000 0.07687  0.75891  0.17014  Biso   1.000  C
  C104     1.0000 0.08894  0.75872  0.15809  Biso   1.000  C
  C105     1.0000 0.93440  0.83184  0.24240  Biso   1.000  C
  C106     1.0000 0.92214  0.84412  0.24332  Biso   1.000  C
  C107     1.0000 0.00562  0.68494  0.31298  Biso   1.000  C
  C108     1.0000 0.00521  0.67270  0.32551  Biso   1.000  C
  C109     1.0000 0.10309  0.77206  0.12906  Biso   1.000  C
  H55      1.0000 0.09199  0.78296  0.12830  Biso   1.000  H
  C110     1.0000 0.11692  0.77181  0.11534  Biso   1.000  C
  H56      1.0000 0.11657  0.78251  0.10392  Biso   1.000  H
  C111     1.0000 0.13117  0.75796  0.11615  Biso   1.000  C
  C112     1.0000 0.13146  0.74435  0.13082  Biso   1.000  C
  H57      1.0000 0.14256  0.73346  0.13158  Biso   1.000  H
  C113     1.0000 0.11763  0.74460  0.14454  Biso   1.000  C
  H58      1.0000 0.11799  0.73390  0.15596  Biso   1.000  H
  C114     1.0000 0.10338  0.75846  0.14373  Biso   1.000  C
  C115     1.0000 0.99062  0.65876  0.35396  Biso   1.000  C
  H59      1.0000 0.98010  0.67022  0.35331  Biso   1.000  H
  C116     1.0000 0.98999  0.64480  0.36827  Biso   1.000  C
  H60      1.0000 0.97899  0.64539  0.37876  Biso   1.000  H
  C117     1.0000 0.00335  0.63010  0.36921  Biso   1.000  C
  C118     1.0000 0.01735  0.62948  0.35573  Biso   1.000  C
  H61      1.0000 0.02785  0.61801  0.35637  Biso   1.000  H
  C119     1.0000 0.01797  0.64344  0.34142  Biso   1.000  C
  H62      1.0000 0.02896  0.64284  0.33093  Biso   1.000  H
  C120     1.0000 0.00461  0.65814  0.34048  Biso   1.000  C
  C121     1.0000 0.90656  0.87392  0.23158  Biso   1.000  C
  H63      1.0000 0.91699  0.87501  0.22053  Biso   1.000  H
  C122     1.0000 0.89241  0.88779  0.23269  Biso   1.000  C
  H64      1.0000 0.89184  0.89968  0.22251  Biso   1.000  H
  C123     1.0000 0.87900  0.88653  0.24673  Biso   1.000  C
  C124     1.0000 0.87986  0.87129  0.25966  Biso   1.000  C
  H65      1.0000 0.86941  0.87018  0.27069  Biso   1.000  H
  C125     1.0000 0.89400  0.85741  0.25855  Biso   1.000  C
  H66      1.0000 0.89456  0.84551  0.26871  Biso   1.000  H
  C126     1.0000 0.90741  0.85866  0.24450  Biso   1.000  C
  C127     1.0000 0.14563  0.75771  0.10181  Biso   1.000  C
  C128     1.0000 0.15773  0.75754  0.08978  Biso   1.000  C
  C129     1.0000 0.86421  0.90103  0.24782  Biso   1.000  C
  C130     1.0000 0.85189  0.91327  0.24857  Biso   1.000  C
  C131     1.0000 0.00271  0.61549  0.38413  Biso   1.000  C
  C132     1.0000 0.00227  0.60319  0.39658  Biso   1.000  C
  C133     1.0000 0.18768  0.74508  0.07725  Biso   1.000  C
  H67      1.0000 0.18910  0.73545  0.08956  Biso   1.000  H
  C134     1.0000 0.20148  0.74496  0.06348  Biso   1.000  C
  H68      1.0000 0.21348  0.73516  0.06536  Biso   1.000  H
  C135     1.0000 0.19990  0.75722  0.04761  Biso   1.000  C
  C136     1.0000 0.18424  0.76956  0.04581  Biso   1.000  C
  H69      1.0000 0.18253  0.77932  0.03363  Biso   1.000  H
  C137     1.0000 0.17049  0.76962  0.05960  Biso   1.000  C
  H70      1.0000 0.15837  0.77932  0.05801  Biso   1.000  H
  C138     1.0000 0.17213  0.75740  0.07538  Biso   1.000  C
  C139     1.0000 0.82233  0.92631  0.26151  Biso   1.000  C
  H71      1.0000 0.82152  0.91383  0.27088  Biso   1.000  H
  C140     1.0000 0.80832  0.94043  0.26190  Biso   1.000  C
  H72      1.0000 0.79673  0.93868  0.27163  Biso   1.000  H
  C141     1.0000 0.80913  0.95647  0.24991  Biso   1.000  C
  C142     1.0000 0.82424  0.95811  0.23763  Biso   1.000  C
  H73      1.0000 0.82535  0.97040  0.22807  Biso   1.000  H
  C143     1.0000 0.83819  0.94399  0.23730  Biso   1.000  C
  H74      1.0000 0.84985  0.94544  0.22760  Biso   1.000  H
  C144     1.0000 0.83730  0.92802  0.24919  Biso   1.000  C
  C145     1.0000 0.01395  0.57271  0.41062  Biso   1.000  C
  H75      1.0000 0.02361  0.57148  0.39892  Biso   1.000  H
  C146     1.0000 0.01379  0.55854  0.42474  Biso   1.000  C
  H76      1.0000 0.02343  0.54645  0.42374  Biso   1.000  H
  C147     1.0000 0.00154  0.55990  0.43986  Biso   1.000  C
  C148     1.0000 0.98943  0.57569  0.44053  Biso   1.000  C
  H77      1.0000 0.97971  0.57721  0.45212  Biso   1.000  H
  C149     1.0000 0.98965  0.58984  0.42635  Biso   1.000  C
  H78      1.0000 0.98017  0.60210  0.42705  Biso   1.000  H
  C150     1.0000 0.00192  0.58841  0.41136  Biso   1.000  C
  H79      1.0000 0.02183  0.28246  0.74282  Biso   1.000  H
  C151     1.0000 0.99644  0.27138  0.72788  Biso   1.000  C
  C152     1.0000 0.98180  0.25764  0.72813  Biso   1.000  C
  H80      1.0000 0.97048  0.25763  0.71683  Biso   1.000  H
  C153     1.0000 0.98157  0.24391  0.74276  Biso   1.000  C
  C154     1.0000 0.99616  0.24403  0.75718  Biso   1.000  C
  H81      1.0000 0.99654  0.23287  0.76813  Biso   1.000  H
  C155     1.0000 0.01085  0.25767  0.75714  Biso   1.000  C
  C156     1.0000 0.01088  0.27129  0.74245  Biso   1.000  C
  C157     1.0000 0.95856  0.22343  0.76030  Biso   1.000  C
  H82      1.0000 0.96343  0.23015  0.77373  Biso   1.000  H
  C158     1.0000 0.94439  0.20932  0.76065  Biso   1.000  C
  H83      1.0000 0.93864  0.20501  0.77424  Biso   1.000  H
  C159     1.0000 0.93756  0.20068  0.74376  Biso   1.000  C
  C160     1.0000 0.94490  0.20635  0.72647  Biso   1.000  C
  H84      1.0000 0.93967  0.19958  0.71318  Biso   1.000  H
  C161     1.0000 0.95905  0.22051  0.72606  Biso   1.000  C
  H85      1.0000 0.96488  0.22434  0.71238  Biso   1.000  H
  C162     1.0000 0.96609  0.22913  0.74300  Biso   1.000  C
  C163     1.0000 0.01395  0.29186  0.70485  Biso   1.000  C
  H86      1.0000 0.02738  0.28516  0.70971  Biso   1.000  H
  C164     1.0000 0.01428  0.30595  0.69068  Biso   1.000  C
  H87      1.0000 0.02787  0.31026  0.68491  Biso   1.000  H
  C165     1.0000 0.99739  0.31456  0.68387  Biso   1.000  C
  C166     1.0000 0.98011  0.30888  0.69124  Biso   1.000  C
  H88      1.0000 0.96681  0.31563  0.68603  Biso   1.000  H
  C167     1.0000 0.97971  0.29474  0.70539  Biso   1.000  C
  H89      1.0000 0.96604  0.29090  0.71125  Biso   1.000  H
  C168     1.0000 0.99666  0.28615  0.71241  Biso   1.000  C
  C169     1.0000 0.04528  0.26172  0.76839  Biso   1.000  C
  H90      1.0000 0.04907  0.26453  0.75371  Biso   1.000  H
  C170     1.0000 0.05974  0.26169  0.78287  Biso   1.000  C
  H91      1.0000 0.07449  0.26475  0.77941  Biso   1.000  H
  C171     1.0000 0.05548  0.25768  0.80170  Biso   1.000  C
  C172     1.0000 0.03665  0.25368  0.80599  Biso   1.000  C
  H92      1.0000 0.03321  0.25062  0.82074  Biso   1.000  H
  C173     1.0000 0.02216  0.25365  0.79154  Biso   1.000  C
  H93      1.0000 0.00747  0.25084  0.79536  Biso   1.000  H
  C174     1.0000 0.02633  0.25768  0.77259  Biso   1.000  C
  C175     1.0000 0.99788  0.32947  0.66928  Biso   1.000  C
  C176     1.0000 0.99842  0.34200  0.65709  Biso   1.000  C
  C177     1.0000 0.92298  0.18574  0.74427  Biso   1.000  C
  C178     1.0000 0.91080  0.17318  0.74483  Biso   1.000  C
  C179     1.0000 0.07059  0.25768  0.81678  Biso   1.000  C
  C180     1.0000 0.08326  0.25767  0.82943  Biso   1.000  C
  C181     1.0000 0.98504  0.35801  0.62785  Biso   1.000  C
  H94      1.0000 0.97334  0.34760  0.62720  Biso   1.000  H
  C182     1.0000 0.98580  0.37232  0.61391  Biso   1.000  C
  H95      1.0000 0.97469  0.37306  0.60241  Biso   1.000  H
  C183     1.0000 0.00071  0.38567  0.61462  Biso   1.000  C
  C184     1.0000 0.01484  0.38463  0.62935  Biso   1.000  C
  H96      1.0000 0.02655  0.39504  0.62999  Biso   1.000  H
  C185     1.0000 0.01408  0.37032  0.64329  Biso   1.000  C
  H97      1.0000 0.02520  0.36957  0.65478  Biso   1.000  H
  C186     1.0000 0.99918  0.35696  0.64258  Biso   1.000  C
  C187     1.0000 0.09758  0.24490  0.85984  Biso   1.000  C
  H98      1.0000 0.08560  0.23489  0.86051  Biso   1.000  H
  C188     1.0000 0.11206  0.24489  0.87430  Biso   1.000  C
  H99      1.0000 0.11138  0.23487  0.88626  Biso   1.000  H
  C189     1.0000 0.12741  0.25764  0.87352  Biso   1.000  C
  C190     1.0000 0.12819  0.27040  0.85821  Biso   1.000  C
  H100     1.0000 0.14017  0.28042  0.85753  Biso   1.000  H
  C191     1.0000 0.11371  0.27041  0.84374  Biso   1.000  C
  H101     1.0000 0.11439  0.28043  0.83178  Biso   1.000  H
  C192     1.0000 0.09837  0.25766  0.84452  Biso   1.000  C
  C193     1.0000 0.88157  0.15707  0.73145  Biso   1.000  C
  H102     1.0000 0.88092  0.16745  0.71973  Biso   1.000  H
  C194     1.0000 0.86765  0.14274  0.73222  Biso   1.000  C
  H103     1.0000 0.85615  0.14194  0.72111  Biso   1.000  H
  C195     1.0000 0.86835  0.12943  0.74715  Biso   1.000  C
  C196     1.0000 0.88308  0.13054  0.76129  Biso   1.000  C
  H104     1.0000 0.88371  0.12017  0.77302  Biso   1.000  H
  C197     1.0000 0.89700  0.14488  0.76052  Biso   1.000  C
  H105     1.0000 0.90849  0.14569  0.77164  Biso   1.000  H
  C198     1.0000 0.89629  0.15819  0.74560  Biso   1.000  C
  C199     1.0000 0.00149  0.40056  0.60003  Biso   1.000  C
  C200     1.0000 0.00201  0.41298  0.58772  Biso   1.000  C
  C201     1.0000 0.85377  0.11451  0.74794  Biso   1.000  C
  C202     1.0000 0.84147  0.10207  0.74846  Biso   1.000  C
  C203     1.0000 0.14251  0.25763  0.88861  Biso   1.000  C
  C204     1.0000 0.15518  0.25763  0.90126  Biso   1.000  C
  C205     1.0000 0.01490  0.44323  0.57488  Biso   1.000  C
  H106     1.0000 0.02450  0.44441  0.58762  Biso   1.000  H
  C206     1.0000 0.01515  0.45734  0.56069  Biso   1.000  C
  H107     1.0000 0.02503  0.46939  0.56262  Biso   1.000  H
  C207     1.0000 0.00287  0.45602  0.54432  Biso   1.000  C
  C208     1.0000 0.99041  0.44033  0.54242  Biso   1.000  C
  H108     1.0000 0.98063  0.43883  0.52987  Biso   1.000  H
  C209     1.0000 0.99022  0.42628  0.55664  Biso   1.000  C
  H109     1.0000 0.98040  0.41414  0.55501  Biso   1.000  H
  C210     1.0000 0.00242  0.42768  0.57291  Biso   1.000  C
  C211     1.0000 0.82861  0.07182  0.76133  Biso   1.000  C
  H110     1.0000 0.84133  0.07066  0.77094  Biso   1.000  H
  C212     1.0000 0.81440  0.05770  0.76156  Biso   1.000  C
  H111     1.0000 0.81632  0.04566  0.77144  Biso   1.000  H
  C213     1.0000 0.79805  0.05899  0.74928  Biso   1.000  C
  C214     1.0000 0.79616  0.07466  0.73682  Biso   1.000  C
  H112     1.0000 0.78361  0.07614  0.72704  Biso   1.000  H
  C215     1.0000 0.81038  0.08872  0.73665  Biso   1.000  C
  H113     1.0000 0.80877  0.10086  0.72684  Biso   1.000  H
  C216     1.0000 0.82665  0.08736  0.74886  Biso   1.000  C
  C217     1.0000 0.18594  0.26992  0.91525  Biso   1.000  C
  H114     1.0000 0.18686  0.27958  0.90302  Biso   1.000  H
  C218     1.0000 0.20044  0.26995  0.92969  Biso   1.000  C
  H115     1.0000 0.21252  0.27974  0.92844  Biso   1.000  H
  C219     1.0000 0.19942  0.25763  0.94543  Biso   1.000  C
  C220     1.0000 0.18367  0.24531  0.94646  Biso   1.000  C
  H116     1.0000 0.18242  0.23553  0.95853  Biso   1.000  H
  C221     1.0000 0.16920  0.24534  0.93197  Biso   1.000  C
  H117     1.0000 0.15697  0.23567  0.93290  Biso   1.000  H
  C222     1.0000 0.17029  0.25763  0.91634  Biso   1.000  C
  H118     1.0000 0.02006  0.73388  0.74068  Biso   1.000  H
  C223     1.0000 0.00884  0.75811  0.75515  Biso   1.000  C
  C224     1.0000 0.99441  0.77182  0.75489  Biso   1.000  C
  H119     1.0000 0.99396  0.78192  0.76666  Biso   1.000  H
  C225     1.0000 0.98000  0.77208  0.74029  Biso   1.000  C
  C226     1.0000 0.98007  0.75831  0.72584  Biso   1.000  C
  H120     1.0000 0.96931  0.75886  0.71403  Biso   1.000  H
  C227     1.0000 0.99452  0.74455  0.72584  Biso   1.000  C
  C228     1.0000 0.00880  0.74456  0.74057  Biso   1.000  C
  C229     1.0000 0.94578  0.78251  0.73485  Biso   1.000  C
  H121     1.0000 0.94169  0.76798  0.73069  Biso   1.000  H
  C230     1.0000 0.93159  0.79641  0.73537  Biso   1.000  C
  H122     1.0000 0.91676  0.79269  0.73137  Biso   1.000  H
  C231     1.0000 0.93624  0.81495  0.74119  Biso   1.000  C
  C232     1.0000 0.95518  0.81954  0.74635  Biso   1.000  C
  H123     1.0000 0.95895  0.83406  0.75082  Biso   1.000  H
  C233     1.0000 0.96938  0.80568  0.74588  Biso   1.000  C
  H124     1.0000 0.98414  0.80979  0.74974  Biso   1.000  H
  C234     1.0000 0.96482  0.78698  0.74023  Biso   1.000  C
  C235     1.0000 0.03091  0.74074  0.77864  Biso   1.000  C
  H125     1.0000 0.02480  0.72712  0.77376  Biso   1.000  H
  C236     1.0000 0.04529  0.74068  0.79320  Biso   1.000  C
  H126     1.0000 0.05042  0.72713  0.79925  Biso   1.000  H
  C237     1.0000 0.05310  0.75780  0.80010  Biso   1.000  C
  C238     1.0000 0.04640  0.77502  0.79239  Biso   1.000  C
  H127     1.0000 0.05252  0.78849  0.79767  Biso   1.000  H
  C239     1.0000 0.03199  0.77514  0.77786  Biso   1.000  C
  H128     1.0000 0.02728  0.78882  0.77179  Biso   1.000  H
  C240     1.0000 0.02412  0.75798  0.77081  Biso   1.000  C
  C241     1.0000 0.01352  0.72417  0.70298  Biso   1.000  C
  H129     1.0000 0.02691  0.73091  0.70811  Biso   1.000  H
  C242     1.0000 0.01393  0.71018  0.68897  Biso   1.000  C
  H130     1.0000 0.02754  0.70576  0.68351  Biso   1.000  H
  C243     1.0000 0.99593  0.70147  0.68148  Biso   1.000  C
  C244     1.0000 0.97865  0.70759  0.68836  Biso   1.000  C
  H131     1.0000 0.96527  0.70110  0.68284  Biso   1.000  H
  C245     1.0000 0.97818  0.72170  0.70245  Biso   1.000  C
  H132     1.0000 0.96436  0.72561  0.70776  Biso   1.000  H
  C246     1.0000 0.99503  0.73015  0.71021  Biso   1.000  C
  C247     1.0000 0.06819  0.75771  0.81521  Biso   1.000  C
  C248     1.0000 0.08085  0.75764  0.82787  Biso   1.000  C
  C249     1.0000 0.92145  0.82945  0.74207  Biso   1.000  C
  C250     1.0000 0.90921  0.84173  0.74296  Biso   1.000  C
  C251     1.0000 0.99628  0.68647  0.66713  Biso   1.000  C
  C252     1.0000 0.99686  0.67388  0.65516  Biso   1.000  C
  C253     1.0000 0.09691  0.77192  0.85669  Biso   1.000  C
  H133     1.0000 0.08626  0.78324  0.85615  Biso   1.000  H
  C254     1.0000 0.11143  0.77186  0.87112  Biso   1.000  C
  H134     1.0000 0.11210  0.78314  0.88184  Biso   1.000  H
  C255     1.0000 0.12509  0.75744  0.87190  Biso   1.000  C
  C256     1.0000 0.12415  0.74308  0.85816  Biso   1.000  C
  H135     1.0000 0.13481  0.73176  0.85869  Biso   1.000  H
  C257     1.0000 0.10963  0.74314  0.84372  Biso   1.000  C
  H136     1.0000 0.10897  0.73187  0.83300  Biso   1.000  H
  C258     1.0000 0.09598  0.75756  0.84295  Biso   1.000  C
  C259     1.0000 0.98381  0.65747  0.62606  Biso   1.000  C
  H137     1.0000 0.97206  0.66766  0.62512  Biso   1.000  H
  C260     1.0000 0.98481  0.64315  0.61235  Biso   1.000  C
  H138     1.0000 0.97383  0.64218  0.60073  Biso   1.000  H
  C261     1.0000 0.99979  0.63009  0.61340  Biso   1.000  C
  C262     1.0000 0.01375  0.63145  0.62827  Biso   1.000  C
  H139     1.0000 0.02553  0.62129  0.62918  Biso   1.000  H
  C263     1.0000 0.01276  0.64577  0.64198  Biso   1.000  C
  H140     1.0000 0.02376  0.64677  0.65356  Biso   1.000  H
  C264     1.0000 0.99779  0.65884  0.64092  Biso   1.000  C
  C265     1.0000 0.89639  0.87027  0.75842  Biso   1.000  C
  H141     1.0000 0.90857  0.86998  0.76880  Biso   1.000  H
  C266     1.0000 0.88256  0.88446  0.75951  Biso   1.000  C
  H142     1.0000 0.88398  0.89522  0.77074  Biso   1.000  H
  C267     1.0000 0.86697  0.88496  0.74630  Biso   1.000  C
  C268     1.0000 0.86529  0.87116  0.73201  Biso   1.000  C
  H143     1.0000 0.85312  0.87146  0.72162  Biso   1.000  H
  C269     1.0000 0.87911  0.85697  0.73092  Biso   1.000  C
  H144     1.0000 0.87772  0.84623  0.71968  Biso   1.000  H
  C270     1.0000 0.89472  0.85648  0.74412  Biso   1.000  C
  C271     1.0000 0.14024  0.75739  0.88695  Biso   1.000  C
  C272     1.0000 0.15294  0.75736  0.89957  Biso   1.000  C
  C273     1.0000 0.85254  0.89978  0.74737  Biso   1.000  C
  C274     1.0000 0.84036  0.91214  0.74809  Biso   1.000  C
  C275     1.0000 0.00085  0.61521  0.59900  Biso   1.000  C
  C276     1.0000 0.00159  0.60283  0.58683  Biso   1.000  C
  C277     1.0000 0.18356  0.74508  0.91365  Biso   1.000  C
  H145     1.0000 0.18433  0.73543  0.90152  Biso   1.000  H
  C278     1.0000 0.19808  0.74504  0.92807  Biso   1.000  C
  H146     1.0000 0.21003  0.73527  0.92691  Biso   1.000  H
  C279     1.0000 0.19726  0.75734  0.94370  Biso   1.000  C
  C280     1.0000 0.18166  0.76963  0.94461  Biso   1.000  C
  H147     1.0000 0.18057  0.77940  0.95659  Biso   1.000  H
  C281     1.0000 0.16718  0.76961  0.93015  Biso   1.000  C
  H148     1.0000 0.15507  0.77926  0.93100  Biso   1.000  H
  C282     1.0000 0.16807  0.75735  0.91464  Biso   1.000  C
  C283     1.0000 0.80931  0.92549  0.73660  Biso   1.000  C
  H149     1.0000 0.80749  0.91349  0.72677  Biso   1.000  H
  C284     1.0000 0.79524  0.93949  0.73690  Biso   1.000  C
  H150     1.0000 0.78262  0.93807  0.72718  Biso   1.000  H
  C285     1.0000 0.79737  0.95502  0.74935  Biso   1.000  C
  C286     1.0000 0.81382  0.95622  0.76153  Biso   1.000  C
  H151     1.0000 0.81594  0.96815  0.77140  Biso   1.000  H
  C287     1.0000 0.82788  0.94216  0.76117  Biso   1.000  C
  H152     1.0000 0.84069  0.94327  0.77069  Biso   1.000  H
  C288     1.0000 0.82568  0.92677  0.74868  Biso   1.000  C
  C289     1.0000 0.01471  0.57283  0.57434  Biso   1.000  C
  H153     1.0000 0.02420  0.57174  0.58717  Biso   1.000  H
  C290     1.0000 0.01511  0.55878  0.56026  Biso   1.000  C
  H154     1.0000 0.02498  0.54687  0.56238  Biso   1.000  H
  C291     1.0000 0.00297  0.55997  0.54379  Biso   1.000  C
  C292     1.0000 0.99050  0.57547  0.54166  Biso   1.000  C
  H155     1.0000 0.98082  0.57687  0.52902  Biso   1.000  H
  C293     1.0000 0.99016  0.58945  0.55575  Biso   1.000  C
  H156     1.0000 0.98033  0.60144  0.55394  Biso   1.000  H
  C294     1.0000 0.00221  0.58819  0.57214  Biso   1.000  C
  Zn5      1.0000 0.72368  0.00689  0.76442  Biso   1.000  Zn
  Zn6      1.0000 0.74515  0.98439  0.73222  Biso   1.000  Zn
  Zn7      1.0000 0.74547  0.02970  0.73218  Biso   1.000  Zn
  Zn8      1.0000 0.76905  0.00691  0.76531  Biso   1.000  Zn
  O14      1.0000 0.74584  0.00697  0.74854  Biso   1.000  O
  O15      1.0000 0.70718  0.98474  0.75990  Biso   1.000  O
  O16      1.0000 0.74461  0.99047  0.70499  Biso   1.000  O
  O17      1.0000 0.72342  0.04580  0.73584  Biso   1.000  O
  O18      1.0000 0.72290  0.96822  0.73592  Biso   1.000  O
  O19      1.0000 0.70747  0.02902  0.75983  Biso   1.000  O
  O20      1.0000 0.74480  0.02386  0.70494  Biso   1.000  O
  O21      1.0000 0.76777  0.04600  0.73696  Biso   1.000  O
  O22      1.0000 0.76394  0.00683  0.79246  Biso   1.000  O
  O23      1.0000 0.78530  0.02910  0.76133  Biso   1.000  O
  O24      1.0000 0.73051  0.00679  0.79177  Biso   1.000  O
  O25      1.0000 0.76725  0.96808  0.73707  Biso   1.000  O
  O26      1.0000 0.78498  0.98478  0.76141  Biso   1.000  O
  C295     1.0000 0.78290  0.04392  0.74924  Biso   1.000  C
  C296     1.0000 0.78240  0.97006  0.74936  Biso   1.000  C
  C297     1.0000 0.74751  0.00680  0.80159  Biso   1.000  C
  C298     1.0000 0.70862  0.97015  0.74780  Biso   1.000  C
  C299     1.0000 0.70910  0.04374  0.74772  Biso   1.000  C
  C300     1.0000 0.74466  0.00721  0.69550  Biso   1.000  C
  H157     1.0000 0.50862  0.23286  0.22961  Biso   1.000  H
  C301     1.0000 0.52363  0.24382  0.25496  Biso   1.000  C
  C302     1.0000 0.52343  0.25743  0.26955  Biso   1.000  C
  H158     1.0000 0.53473  0.25743  0.28087  Biso   1.000  H
  C303     1.0000 0.50886  0.27103  0.26974  Biso   1.000  C
  C304     1.0000 0.49445  0.27092  0.25513  Biso   1.000  C
  H159     1.0000 0.48356  0.28200  0.25470  Biso   1.000  H
  C305     1.0000 0.49442  0.25743  0.24049  Biso   1.000  C
  C306     1.0000 0.50905  0.24393  0.24052  Biso   1.000  C
  C307     1.0000 0.49136  0.29118  0.29261  Biso   1.000  C
  H160     1.0000 0.47791  0.28438  0.28774  Biso   1.000  H
  C308     1.0000 0.49103  0.30520  0.30668  Biso   1.000  C
  H161     1.0000 0.47743  0.30935  0.31235  Biso   1.000  H
  C309     1.0000 0.50793  0.31395  0.31351  Biso   1.000  C
  C310     1.0000 0.52523  0.30846  0.30627  Biso   1.000  C
  H162     1.0000 0.53854  0.31531  0.31149  Biso   1.000  H
  C311     1.0000 0.52562  0.29439  0.29222  Biso   1.000  C
  H163     1.0000 0.53931  0.29071  0.28646  Biso   1.000  H
  C312     1.0000 0.50866  0.28567  0.28516  Biso   1.000  C
  C313     1.0000 0.54651  0.22366  0.23749  Biso   1.000  C
  H164     1.0000 0.54168  0.23045  0.22404  Biso   1.000  H
  C314     1.0000 0.56057  0.20965  0.23718  Biso   1.000  C
  H165     1.0000 0.56626  0.20549  0.22359  Biso   1.000  H
  C315     1.0000 0.56735  0.20090  0.25408  Biso   1.000  C
  C316     1.0000 0.56008  0.20640  0.27137  Biso   1.000  C
  H166     1.0000 0.56526  0.19956  0.28468  Biso   1.000  H
  C317     1.0000 0.54603  0.22046  0.27174  Biso   1.000  C
  H167     1.0000 0.54025  0.22414  0.28542  Biso   1.000  H
  C318     1.0000 0.53903  0.22917  0.25477  Biso   1.000  C
  C319     1.0000 0.48313  0.25358  0.20607  Biso   1.000  C
  H168     1.0000 0.49780  0.25091  0.20229  Biso   1.000  H
  C320     1.0000 0.46865  0.25363  0.19160  Biso   1.000  C
  H169     1.0000 0.47210  0.25071  0.17687  Biso   1.000  H
  C321     1.0000 0.44984  0.25747  0.19584  Biso   1.000  C
  C322     1.0000 0.44558  0.26128  0.21465  Biso   1.000  C
  H170     1.0000 0.43085  0.26421  0.21808  Biso   1.000  H
  C323     1.0000 0.46003  0.26129  0.22915  Biso   1.000  C
  H171     1.0000 0.45623  0.26395  0.24382  Biso   1.000  H
  C324     1.0000 0.47896  0.25743  0.22500  Biso   1.000  C
  C325     1.0000 0.58180  0.18604  0.25360  Biso   1.000  C
  C326     1.0000 0.59387  0.17355  0.25304  Biso   1.000  C
  C327     1.0000 0.50743  0.32882  0.32797  Biso   1.000  C
  C328     1.0000 0.50684  0.34132  0.34004  Biso   1.000  C
  C329     1.0000 0.43475  0.25749  0.18072  Biso   1.000  C
  C330     1.0000 0.42209  0.25752  0.16805  Biso   1.000  C
  C331     1.0000 0.62291  0.15734  0.26641  Biso   1.000  C
  H172     1.0000 0.62363  0.16752  0.27818  Biso   1.000  H
  C332     1.0000 0.63670  0.14309  0.26560  Biso   1.000  C
  H173     1.0000 0.64816  0.14217  0.27673  Biso   1.000  H
  C333     1.0000 0.63591  0.13003  0.25060  Biso   1.000  C
  C334     1.0000 0.62123  0.13131  0.23643  Biso   1.000  C
  H174     1.0000 0.62052  0.12114  0.22465  Biso   1.000  H
  C335     1.0000 0.60744  0.14556  0.23725  Biso   1.000  C
  H175     1.0000 0.59599  0.14650  0.22610  Biso   1.000  H
  C336     1.0000 0.60823  0.15863  0.25224  Biso   1.000  C
  C337     1.0000 0.39207  0.27061  0.15335  Biso   1.000  C
  H176     1.0000 0.39171  0.28084  0.16504  Biso   1.000  H
  C338     1.0000 0.37760  0.27064  0.13887  Biso   1.000  C
  H177     1.0000 0.36595  0.28089  0.13927  Biso   1.000  H
  C339     1.0000 0.37796  0.25762  0.12391  Biso   1.000  C
  C340     1.0000 0.39288  0.24456  0.12350  Biso   1.000  C
  H178     1.0000 0.39323  0.23433  0.11181  Biso   1.000  H
  C341     1.0000 0.40735  0.24453  0.13797  Biso   1.000  C
  H179     1.0000 0.41900  0.23428  0.13758  Biso   1.000  H
  C342     1.0000 0.40699  0.25755  0.15294  Biso   1.000  C
  C343     1.0000 0.52008  0.35747  0.36921  Biso   1.000  C
  H180     1.0000 0.53178  0.34724  0.37002  Biso   1.000  H
  C344     1.0000 0.51923  0.37173  0.38300  Biso   1.000  C
  H181     1.0000 0.53028  0.37260  0.39455  Biso   1.000  H
  C345     1.0000 0.50431  0.38486  0.38211  Biso   1.000  C
  C346     1.0000 0.49025  0.38364  0.36731  Biso   1.000  C
  H182     1.0000 0.47853  0.39387  0.36652  Biso   1.000  H
  C347     1.0000 0.49110  0.36938  0.35351  Biso   1.000  C
  H183     1.0000 0.48004  0.36850  0.34197  Biso   1.000  H
  C348     1.0000 0.50601  0.35624  0.35442  Biso   1.000  C
  C349     1.0000 0.65036  0.11520  0.24976  Biso   1.000  C
  C350     1.0000 0.66256  0.10284  0.24919  Biso   1.000  C
  C351     1.0000 0.50344  0.39970  0.39656  Biso   1.000  C
  C352     1.0000 0.50285  0.41207  0.40877  Biso   1.000  C
  C353     1.0000 0.36285  0.25765  0.10880  Biso   1.000  C
  C354     1.0000 0.35019  0.25767  0.09614  Biso   1.000  C
  C355     1.0000 0.67515  0.07280  0.23628  Biso   1.000  C
  H184     1.0000 0.66239  0.07167  0.22671  Biso   1.000  H
  C356     1.0000 0.68924  0.05877  0.23602  Biso   1.000  C
  H185     1.0000 0.68719  0.04683  0.22616  Biso   1.000  H
  C357     1.0000 0.70564  0.06002  0.24827  Biso   1.000  C
  C358     1.0000 0.70768  0.07557  0.26070  Biso   1.000  C
  H186     1.0000 0.72026  0.07703  0.27046  Biso   1.000  H
  C359     1.0000 0.69358  0.08955  0.26091  Biso   1.000  C
  H187     1.0000 0.69533  0.10158  0.27071  Biso   1.000  H
  C360     1.0000 0.67727  0.08822  0.24875  Biso   1.000  C
  C361     1.0000 0.48991  0.44209  0.42136  Biso   1.000  C
  H188     1.0000 0.48034  0.44319  0.40860  Biso   1.000  H
  C362     1.0000 0.48963  0.45614  0.43546  Biso   1.000  C
  H189     1.0000 0.47976  0.46806  0.43340  Biso   1.000  H
  C363     1.0000 0.50187  0.45492  0.45186  Biso   1.000  C
  C364     1.0000 0.51431  0.43940  0.45391  Biso   1.000  C
  H190     1.0000 0.52407  0.43798  0.46649  Biso   1.000  H
  C365     1.0000 0.51454  0.42541  0.43980  Biso   1.000  C
  H191     1.0000 0.52435  0.41341  0.44155  Biso   1.000  H
  C366     1.0000 0.50238  0.42670  0.42348  Biso   1.000  C
  C367     1.0000 0.33604  0.24546  0.06549  Biso   1.000  C
  H192     1.0000 0.34816  0.23583  0.06465  Biso   1.000  H
  C368     1.0000 0.32158  0.24545  0.05100  Biso   1.000  C
  H193     1.0000 0.32272  0.23570  0.03901  Biso   1.000  H
  C369     1.0000 0.30597  0.25771  0.05190  Biso   1.000  C
  C370     1.0000 0.30509  0.26998  0.06755  Biso   1.000  C
  H194     1.0000 0.29312  0.27973  0.06871  Biso   1.000  H
  C371     1.0000 0.31958  0.26994  0.08200  Biso   1.000  C
  H195     1.0000 0.31876  0.27956  0.09415  Biso   1.000  H
  C372     1.0000 0.33509  0.25769  0.08103  Biso   1.000  C
  H196     1.0000 0.53336  0.75661  0.27813  Biso   1.000  H
  C373     1.0000 0.50732  0.74296  0.26719  Biso   1.000  C
  C374     1.0000 0.49284  0.74310  0.25266  Biso   1.000  C
  H197     1.0000 0.48118  0.73270  0.25298  Biso   1.000  H
  C375     1.0000 0.49255  0.75708  0.23830  Biso   1.000  C
  C376     1.0000 0.50699  0.77100  0.23852  Biso   1.000  C
  H198     1.0000 0.50684  0.78192  0.22734  Biso   1.000  H
  C377     1.0000 0.52161  0.77108  0.25292  Biso   1.000  C
  C378     1.0000 0.52163  0.75706  0.26727  Biso   1.000  C
  C379     1.0000 0.46898  0.77433  0.21624  Biso   1.000  C
  H199     1.0000 0.47371  0.78794  0.22245  Biso   1.000  H
  C380     1.0000 0.45445  0.77433  0.20183  Biso   1.000  C
  H200     1.0000 0.44826  0.78783  0.19677  Biso   1.000  H
  C381     1.0000 0.44774  0.75720  0.19391  Biso   1.000  C
  C382     1.0000 0.45562  0.74004  0.20052  Biso   1.000  C
  H201     1.0000 0.45048  0.72657  0.19430  Biso   1.000  H
  C383     1.0000 0.47013  0.73998  0.21495  Biso   1.000  C
  H202     1.0000 0.47632  0.72635  0.21959  Biso   1.000  H
  C384     1.0000 0.47698  0.75714  0.22294  Biso   1.000  C
  C385     1.0000 0.51265  0.73233  0.30143  Biso   1.000  C
  H203     1.0000 0.51655  0.74692  0.30550  Biso   1.000  H
  C386     1.0000 0.51234  0.71825  0.31565  Biso   1.000  C
  H204     1.0000 0.51626  0.72192  0.33047  Biso   1.000  H
  C387     1.0000 0.50688  0.69959  0.31104  Biso   1.000  C
  C388     1.0000 0.50181  0.69507  0.29210  Biso   1.000  C
  H205     1.0000 0.49761  0.68045  0.28837  Biso   1.000  H
  C389     1.0000 0.50205  0.70910  0.27787  Biso   1.000  C
  H206     1.0000 0.49830  0.70506  0.26311  Biso   1.000  H
  C390     1.0000 0.50741  0.72790  0.28240  Biso   1.000  C
  C391     1.0000 0.54412  0.79425  0.26991  Biso   1.000  C
  H207     1.0000 0.53833  0.79015  0.28354  Biso   1.000  H
  C392     1.0000 0.55827  0.80842  0.26972  Biso   1.000  C
  H208     1.0000 0.56353  0.81496  0.28311  Biso   1.000  H
  C393     1.0000 0.56557  0.81439  0.25250  Biso   1.000  C
  C394     1.0000 0.55871  0.80603  0.23548  Biso   1.000  C
  H209     1.0000 0.56445  0.81056  0.22195  Biso   1.000  H
  C395     1.0000 0.54455  0.79190  0.23562  Biso   1.000  C
  H210     1.0000 0.53968  0.78539  0.22209  Biso   1.000  H
  C396     1.0000 0.53704  0.78592  0.25283  Biso   1.000  C
  C397     1.0000 0.50635  0.68492  0.32587  Biso   1.000  C
  C398     1.0000 0.50582  0.67254  0.33822  Biso   1.000  C
  C399     1.0000 0.43263  0.75724  0.17883  Biso   1.000  C
  C400     1.0000 0.41996  0.75726  0.16617  Biso   1.000  C
  C401     1.0000 0.58017  0.82933  0.25222  Biso   1.000  C
  C402     1.0000 0.59237  0.84188  0.25184  Biso   1.000  C
  C403     1.0000 0.49113  0.64343  0.35149  Biso   1.000  C
  H211     1.0000 0.48067  0.64336  0.33938  Biso   1.000  H
  C404     1.0000 0.49047  0.62920  0.36552  Biso   1.000  C
  H212     1.0000 0.47949  0.61805  0.36434  Biso   1.000  H
  C405     1.0000 0.50379  0.62918  0.38102  Biso   1.000  C
  C406     1.0000 0.51777  0.64347  0.38242  Biso   1.000  C
  H213     1.0000 0.52824  0.64353  0.39452  Biso   1.000  H
  C407     1.0000 0.51843  0.65770  0.36839  Biso   1.000  C
  H214     1.0000 0.52942  0.66884  0.36957  Biso   1.000  H
  C408     1.0000 0.50512  0.65772  0.35288  Biso   1.000  C
  C409     1.0000 0.60632  0.87025  0.23641  Biso   1.000  C
  H215     1.0000 0.59492  0.86950  0.22520  Biso   1.000  H
  C410     1.0000 0.62028  0.88458  0.23581  Biso   1.000  C
  H216     1.0000 0.61975  0.89500  0.22414  Biso   1.000  H
  C411     1.0000 0.63490  0.88561  0.25007  Biso   1.000  C
  C412     1.0000 0.63547  0.87223  0.26493  Biso   1.000  C
  H217     1.0000 0.64689  0.87296  0.27613  Biso   1.000  H
  C413     1.0000 0.62152  0.85790  0.26553  Biso   1.000  C
  H218     1.0000 0.62206  0.84747  0.27720  Biso   1.000  H
  C414     1.0000 0.60691  0.85687  0.25127  Biso   1.000  C
  C415     1.0000 0.39090  0.74297  0.15044  Biso   1.000  C
  H219     1.0000 0.39128  0.73171  0.16131  Biso   1.000  H
  C416     1.0000 0.37643  0.74299  0.13596  Biso   1.000  C
  H220     1.0000 0.36553  0.73174  0.13553  Biso   1.000  H
  C417     1.0000 0.37586  0.75732  0.12203  Biso   1.000  C
  C418     1.0000 0.38983  0.77164  0.12267  Biso   1.000  C
  H221     1.0000 0.38944  0.78290  0.11179  Biso   1.000  H
  C419     1.0000 0.40429  0.77163  0.13715  Biso   1.000  C
  H222     1.0000 0.41520  0.78287  0.13758  Biso   1.000  H
  C420     1.0000 0.40486  0.75729  0.15107  Biso   1.000  C
  C421     1.0000 0.50314  0.61433  0.39567  Biso   1.000  C
  C422     1.0000 0.50271  0.60193  0.40800  Biso   1.000  C
  C423     1.0000 0.36077  0.75734  0.10693  Biso   1.000  C
  C424     1.0000 0.34812  0.75735  0.09426  Biso   1.000  C
  C425     1.0000 0.64950  0.90051  0.24945  Biso   1.000  C
  C426     1.0000 0.66182  0.91295  0.24904  Biso   1.000  C
  C427     1.0000 0.51466  0.58862  0.43905  Biso   1.000  C
  H223     1.0000 0.52447  0.60077  0.44065  Biso   1.000  H
  C428     1.0000 0.51452  0.57455  0.45326  Biso   1.000  C
  H224     1.0000 0.52435  0.57605  0.46578  Biso   1.000  H
  C429     1.0000 0.50206  0.55887  0.45139  Biso   1.000  C
  C430     1.0000 0.48973  0.55755  0.43507  Biso   1.000  C
  H225     1.0000 0.47984  0.54551  0.43316  Biso   1.000  H
  C431     1.0000 0.48991  0.57167  0.42088  Biso   1.000  C
  H226     1.0000 0.48026  0.57049  0.40819  Biso   1.000  H
  C432     1.0000 0.50239  0.58723  0.42282  Biso   1.000  C
  C433     1.0000 0.33412  0.76962  0.06352  Biso   1.000  C
  H227     1.0000 0.34636  0.77928  0.06259  Biso   1.000  H
  C434     1.0000 0.31966  0.76965  0.04904  Biso   1.000  C
  H228     1.0000 0.32092  0.77943  0.03696  Biso   1.000  H
  C435     1.0000 0.30389  0.75734  0.05006  Biso   1.000  C
  C436     1.0000 0.30286  0.74504  0.06581  Biso   1.000  C
  H229     1.0000 0.29077  0.73526  0.06707  Biso   1.000  H
  C437     1.0000 0.31736  0.74507  0.08026  Biso   1.000  C
  H230     1.0000 0.31643  0.73541  0.09249  Biso   1.000  H
  C438     1.0000 0.33302  0.75735  0.07916  Biso   1.000  C
  C439     1.0000 0.69286  0.92633  0.26098  Biso   1.000  C
  H231     1.0000 0.69447  0.91418  0.27077  Biso   1.000  H
  C440     1.0000 0.70707  0.94041  0.26085  Biso   1.000  C
  H232     1.0000 0.71960  0.93894  0.27066  Biso   1.000  H
  C441     1.0000 0.70520  0.95608  0.24840  Biso   1.000  C
  C442     1.0000 0.68887  0.95737  0.23608  Biso   1.000  C
  H233     1.0000 0.68695  0.96941  0.22621  Biso   1.000  H
  C443     1.0000 0.67468  0.94323  0.23626  Biso   1.000  C
  H234     1.0000 0.66198  0.94438  0.22662  Biso   1.000  H
  C444     1.0000 0.67662  0.92768  0.24872  Biso   1.000  C
  Zn9      1.0000 0.01896  0.50809  0.51541  Biso   1.000  Zn
  Zn10     1.0000 0.98595  0.53059  0.49152  Biso   1.000  Zn
  Zn11     1.0000 0.01811  0.50809  0.47004  Biso   1.000  Zn
  Zn12     1.0000 0.98583  0.48527  0.49176  Biso   1.000  Zn
  O27      1.0000 0.00221  0.50801  0.49219  Biso   1.000  O
  O28      1.0000 0.01506  0.53023  0.53137  Biso   1.000  O
  O29      1.0000 0.98966  0.54673  0.46929  Biso   1.000  O
  O30      1.0000 0.04546  0.50819  0.47691  Biso   1.000  O
  O31      1.0000 0.99074  0.54690  0.51363  Biso   1.000  O
  O32      1.0000 0.04610  0.50820  0.51034  Biso   1.000  O
  O33      1.0000 0.01365  0.53024  0.45357  Biso   1.000  O
  O34      1.0000 0.01351  0.48596  0.45381  Biso   1.000  O
  O35      1.0000 0.99058  0.46898  0.51404  Biso   1.000  O
  O36      1.0000 0.98948  0.46916  0.46971  Biso   1.000  O
  O37      1.0000 0.01494  0.48592  0.53162  Biso   1.000  O
  O38      1.0000 0.95868  0.52449  0.49091  Biso   1.000  O
  O39      1.0000 0.95859  0.49109  0.49109  Biso   1.000  O
  C445     1.0000 0.00138  0.47123  0.45540  Biso   1.000  C
  C446     1.0000 0.94916  0.50775  0.49095  Biso   1.000  C
  C447     1.0000 0.00286  0.47108  0.52919  Biso   1.000  C
  C448     1.0000 0.00301  0.54493  0.52879  Biso   1.000  C
  C449     1.0000 0.05526  0.50821  0.49391  Biso   1.000  C
  C450     1.0000 0.00156  0.54482  0.45502  Biso   1.000  C
  H235     1.0000 0.49731  0.23082  0.77934  Biso   1.000  H
  C451     1.0000 0.51084  0.24175  0.75445  Biso   1.000  C
  C452     1.0000 0.51066  0.25620  0.74054  Biso   1.000  C
  H236     1.0000 0.52175  0.25655  0.73016  Biso   1.000  H
  C453     1.0000 0.49709  0.27078  0.74042  Biso   1.000  C
  C454     1.0000 0.48360  0.27087  0.75452  Biso   1.000  C
  H237     1.0000 0.47252  0.28175  0.75403  Biso   1.000  H
  C455     1.0000 0.48352  0.25653  0.76859  Biso   1.000  C
  C456     1.0000 0.49723  0.24202  0.76845  Biso   1.000  C
  C457     1.0000 0.49326  0.30504  0.72976  Biso   1.000  C
  H238     1.0000 0.49037  0.30909  0.74436  Biso   1.000  H
  C458     1.0000 0.49370  0.31927  0.71569  Biso   1.000  C
  H239     1.0000 0.49087  0.33408  0.71938  Biso   1.000  H
  C459     1.0000 0.49790  0.31471  0.69701  Biso   1.000  C
  C460     1.0000 0.50157  0.29579  0.69249  Biso   1.000  C
  H240     1.0000 0.50477  0.29207  0.67788  Biso   1.000  H
  C461     1.0000 0.50119  0.28154  0.70652  Biso   1.000  C
  H241     1.0000 0.50382  0.26680  0.70246  Biso   1.000  H
  C462     1.0000 0.49710  0.28601  0.72535  Biso   1.000  C
  C463     1.0000 0.53426  0.21937  0.77132  Biso   1.000  C
  H242     1.0000 0.53061  0.22520  0.78508  Biso   1.000  H
  C464     1.0000 0.54831  0.20529  0.77098  Biso   1.000  C
  H243     1.0000 0.55516  0.20015  0.78437  Biso   1.000  H
  C465     1.0000 0.55376  0.19792  0.75364  Biso   1.000  C
  C466     1.0000 0.54499  0.20467  0.73664  Biso   1.000  C
  H244     1.0000 0.54910  0.19892  0.72299  Biso   1.000  H
  C467     1.0000 0.53099  0.21876  0.73692  Biso   1.000  C
  H245     1.0000 0.52418  0.22354  0.72337  Biso   1.000  H
  C468     1.0000 0.52551  0.22633  0.75427  Biso   1.000  C
  C469     1.0000 0.46050  0.23957  0.78959  Biso   1.000  C
  H246     1.0000 0.46433  0.22593  0.78342  Biso   1.000  H
  C470     1.0000 0.44670  0.23975  0.80334  Biso   1.000  C
  H247     1.0000 0.44025  0.22633  0.80790  Biso   1.000  H
  C471     1.0000 0.44103  0.25692  0.81119  Biso   1.000  C
  C472     1.0000 0.44929  0.27395  0.80515  Biso   1.000  C
  H248     1.0000 0.44501  0.28747  0.81127  Biso   1.000  H
  C473     1.0000 0.46306  0.27384  0.79137  Biso   1.000  C
  H249     1.0000 0.46951  0.28737  0.78721  Biso   1.000  H
  C474     1.0000 0.46884  0.25663  0.78342  Biso   1.000  C
  C475     1.0000 0.56859  0.18340  0.75319  Biso   1.000  C
  C476     1.0000 0.58104  0.17127  0.75264  Biso   1.000  C
  C477     1.0000 0.49856  0.32956  0.68232  Biso   1.000  C
  C478     1.0000 0.49921  0.34191  0.66993  Biso   1.000  C
  C479     1.0000 0.42657  0.25707  0.82554  Biso   1.000  C
  C480     1.0000 0.41445  0.25721  0.83755  Biso   1.000  C
  C481     1.0000 0.60862  0.15717  0.73713  Biso   1.000  C
  H250     1.0000 0.60746  0.16833  0.72618  Biso   1.000  H
  C482     1.0000 0.62280  0.14329  0.73631  Biso   1.000  C
  H251     1.0000 0.63268  0.14367  0.72473  Biso   1.000  H
  C483     1.0000 0.62439  0.12894  0.75020  Biso   1.000  C
  C484     1.0000 0.61168  0.12859  0.76493  Biso   1.000  C
  H252     1.0000 0.61282  0.11741  0.77586  Biso   1.000  H
  C485     1.0000 0.59750  0.14247  0.76575  Biso   1.000  C
  H253     1.0000 0.58760  0.14207  0.77731  Biso   1.000  H
  C486     1.0000 0.59590  0.15681  0.75185  Biso   1.000  C
  C487     1.0000 0.38622  0.27171  0.85163  Biso   1.000  C
  H254     1.0000 0.38627  0.28286  0.84066  Biso   1.000  H
  C488     1.0000 0.37237  0.27186  0.86534  Biso   1.000  C
  H255     1.0000 0.36167  0.28313  0.86503  Biso   1.000  H
  C489     1.0000 0.37216  0.25768  0.87943  Biso   1.000  C
  C490     1.0000 0.38592  0.24335  0.87968  Biso   1.000  C
  H256     1.0000 0.38587  0.23219  0.89064  Biso   1.000  H
  C491     1.0000 0.39977  0.24320  0.86597  Biso   1.000  C
  H257     1.0000 0.41047  0.23192  0.86628  Biso   1.000  H
  C492     1.0000 0.39998  0.25738  0.85188  Biso   1.000  C
  C493     1.0000 0.51361  0.35550  0.64121  Biso   1.000  C
  H258     1.0000 0.52368  0.34366  0.64151  Biso   1.000  H
  C494     1.0000 0.51437  0.36950  0.62694  Biso   1.000  C
  H259     1.0000 0.52503  0.36854  0.61613  Biso   1.000  H
  C495     1.0000 0.50155  0.38467  0.62642  Biso   1.000  C
  C496     1.0000 0.48797  0.38574  0.64028  Biso   1.000  C
  H260     1.0000 0.47789  0.39757  0.63997  Biso   1.000  H
  C497     1.0000 0.48722  0.37175  0.65455  Biso   1.000  C
  H261     1.0000 0.47654  0.37269  0.66534  Biso   1.000  H
  C498     1.0000 0.50003  0.35657  0.65507  Biso   1.000  C
  C499     1.0000 0.63915  0.11439  0.74935  Biso   1.000  C
  C500     1.0000 0.65145  0.10212  0.74876  Biso   1.000  C
  C501     1.0000 0.50228  0.39928  0.61150  Biso   1.000  C
  C502     1.0000 0.50276  0.41159  0.59905  Biso   1.000  C
  C503     1.0000 0.35769  0.25783  0.89377  Biso   1.000  C
  C504     1.0000 0.34559  0.25791  0.90580  Biso   1.000  C
  C505     1.0000 0.66509  0.07142  0.76024  Biso   1.000  C
  H262     1.0000 0.65340  0.07004  0.76992  Biso   1.000  H
  C506     1.0000 0.67901  0.05726  0.75999  Biso   1.000  C
  H263     1.0000 0.67786  0.04501  0.76960  Biso   1.000  H
  C507     1.0000 0.69413  0.05882  0.74771  Biso   1.000  C
  C508     1.0000 0.69500  0.07481  0.73567  Biso   1.000  C
  H264     1.0000 0.70660  0.07649  0.72594  Biso   1.000  H
  C509     1.0000 0.68101  0.08896  0.73597  Biso   1.000  C
  H265     1.0000 0.68187  0.10139  0.72655  Biso   1.000  H
  C510     1.0000 0.66602  0.08733  0.74828  Biso   1.000  C
  C511     1.0000 0.49113  0.44210  0.58504  Biso   1.000  C
  H266     1.0000 0.48149  0.44333  0.59675  Biso   1.000  H
  C512     1.0000 0.49130  0.45626  0.57092  Biso   1.000  C
  H267     1.0000 0.48167  0.46837  0.57194  Biso   1.000  H
  C513     1.0000 0.50353  0.45489  0.55578  Biso   1.000  C
  C514     1.0000 0.51560  0.43909  0.55509  Biso   1.000  C
  H268     1.0000 0.52531  0.43756  0.54348  Biso   1.000  H
  C515     1.0000 0.51539  0.42494  0.56927  Biso   1.000  C
  H269     1.0000 0.52484  0.41266  0.56855  Biso   1.000  H
  C516     1.0000 0.50314  0.42638  0.58428  Biso   1.000  C
  C517     1.0000 0.33286  0.24569  0.93594  Biso   1.000  C
  H270     1.0000 0.34501  0.23602  0.93751  Biso   1.000  H
  C518     1.0000 0.31910  0.24567  0.94973  Biso   1.000  C
  H271     1.0000 0.32083  0.23589  0.96188  Biso   1.000  H
  C519     1.0000 0.30341  0.25797  0.94796  Biso   1.000  C
  C520     1.0000 0.30180  0.27026  0.93211  Biso   1.000  C
  H272     1.0000 0.28976  0.28004  0.93025  Biso   1.000  H
  C521     1.0000 0.31560  0.27023  0.91835  Biso   1.000  C
  H273     1.0000 0.31416  0.27989  0.90607  Biso   1.000  H
  C522     1.0000 0.33118  0.25796  0.92019  Biso   1.000  C
  H274     1.0000 0.49493  0.78160  0.77700  Biso   1.000  H
  C523     1.0000 0.48089  0.75593  0.76629  Biso   1.000  C
  C524     1.0000 0.48105  0.74154  0.75245  Biso   1.000  C
  H275     1.0000 0.47063  0.72988  0.75276  Biso   1.000  H
  C525     1.0000 0.49510  0.74135  0.73890  Biso   1.000  C
  C526     1.0000 0.50899  0.75585  0.73920  Biso   1.000  C
  H276     1.0000 0.51940  0.75630  0.72814  Biso   1.000  H
  C527     1.0000 0.50906  0.77036  0.75285  Biso   1.000  C
  C528     1.0000 0.49495  0.77031  0.76634  Biso   1.000  C
  C529     1.0000 0.51285  0.71855  0.71873  Biso   1.000  C
  H277     1.0000 0.52636  0.72347  0.72552  Biso   1.000  H
  C530     1.0000 0.51326  0.70448  0.70470  Biso   1.000  C
  H278     1.0000 0.52696  0.69890  0.70056  Biso   1.000  H
  C531     1.0000 0.49632  0.69754  0.69593  Biso   1.000  C
  C532     1.0000 0.47891  0.70468  0.70144  Biso   1.000  C
  H279     1.0000 0.46556  0.69937  0.69460  Biso   1.000  H
  C533     1.0000 0.47844  0.71874  0.71552  Biso   1.000  C
  H280     1.0000 0.46462  0.72439  0.71922  Biso   1.000  H
  C534     1.0000 0.49543  0.72591  0.72424  Biso   1.000  C
  C535     1.0000 0.47079  0.76116  0.79989  Biso   1.000  C
  H281     1.0000 0.48548  0.76498  0.80435  Biso   1.000  H
  C536     1.0000 0.45690  0.76118  0.81355  Biso   1.000  C
  H282     1.0000 0.46085  0.76529  0.82825  Biso   1.000  H
  C537     1.0000 0.43807  0.75595  0.80856  Biso   1.000  C
  C538     1.0000 0.43325  0.75061  0.78977  Biso   1.000  C
  H283     1.0000 0.41852  0.74654  0.78569  Biso   1.000  H
  C539     1.0000 0.44711  0.75052  0.77607  Biso   1.000  C
  H284     1.0000 0.44282  0.74665  0.76139  Biso   1.000  H
  C540     1.0000 0.46605  0.75585  0.78096  Biso   1.000  C
  C541     1.0000 0.51951  0.80472  0.75661  Biso   1.000  C
  H285     1.0000 0.50487  0.80871  0.75935  Biso   1.000  H
  C542     1.0000 0.53355  0.81901  0.75627  Biso   1.000  C
  H286     1.0000 0.52977  0.83381  0.75903  Biso   1.000  H
  C543     1.0000 0.55229  0.81453  0.75227  Biso   1.000  C
  C544     1.0000 0.55691  0.79562  0.74867  Biso   1.000  C
  H287     1.0000 0.57158  0.79196  0.74562  Biso   1.000  H
  C545     1.0000 0.54293  0.78131  0.74896  Biso   1.000  C
  H288     1.0000 0.54706  0.76658  0.74639  Biso   1.000  H
  C546     1.0000 0.52405  0.78570  0.75288  Biso   1.000  C
  C547     1.0000 0.42358  0.75609  0.82288  Biso   1.000  C
  C548     1.0000 0.41151  0.75626  0.83493  Biso   1.000  C
  C549     1.0000 0.49692  0.68306  0.68105  Biso   1.000  C
  C550     1.0000 0.49761  0.67097  0.66856  Biso   1.000  C
  C551     1.0000 0.56694  0.82944  0.75174  Biso   1.000  C
  C552     1.0000 0.57930  0.84185  0.75121  Biso   1.000  C
  C553     1.0000 0.38258  0.74275  0.84914  Biso   1.000  C
  H289     1.0000 0.38191  0.73177  0.83811  Biso   1.000  H
  C554     1.0000 0.36886  0.74295  0.86298  Biso   1.000  C
  H290     1.0000 0.35753  0.73214  0.86269  Biso   1.000  H
  C555     1.0000 0.36957  0.75690  0.87716  Biso   1.000  C
  C556     1.0000 0.38412  0.77065  0.87737  Biso   1.000  C
  H291     1.0000 0.38480  0.78161  0.88841  Biso   1.000  H
  C557     1.0000 0.39784  0.77044  0.86353  Biso   1.000  C
  H292     1.0000 0.40917  0.78124  0.86383  Biso   1.000  H
  C558     1.0000 0.39713  0.75649  0.84936  Biso   1.000  C
  C559     1.0000 0.60839  0.85530  0.73739  Biso   1.000  C
  H293     1.0000 0.60843  0.84326  0.72756  Biso   1.000  H
  C560     1.0000 0.62264  0.86935  0.73677  Biso   1.000  C
  H294     1.0000 0.63376  0.86824  0.72646  Biso   1.000  H
  C561     1.0000 0.62274  0.88478  0.74930  Biso   1.000  C
  C562     1.0000 0.60847  0.88605  0.76243  Biso   1.000  C
  H295     1.0000 0.60845  0.89808  0.77229  Biso   1.000  H
  C563     1.0000 0.59422  0.87200  0.76305  Biso   1.000  C
  H296     1.0000 0.58312  0.87310  0.77338  Biso   1.000  H
  C564     1.0000 0.59413  0.85657  0.75053  Biso   1.000  C
  C565     1.0000 0.48479  0.64212  0.65191  Biso   1.000  C
  H297     1.0000 0.47316  0.64161  0.66172  Biso   1.000  H
  C566     1.0000 0.48579  0.62829  0.63768  Biso   1.000  C
  H298     1.0000 0.47494  0.61703  0.63643  Biso   1.000  H
  C567     1.0000 0.50061  0.62879  0.62508  Biso   1.000  C
  C568     1.0000 0.51441  0.64324  0.62681  Biso   1.000  C
  H299     1.0000 0.52606  0.64374  0.61702  Biso   1.000  H
  C569     1.0000 0.51340  0.65707  0.64104  Biso   1.000  C
  H300     1.0000 0.52427  0.66832  0.64231  Biso   1.000  H
  C570     1.0000 0.49859  0.65657  0.65365  Biso   1.000  C
  C571     1.0000 0.35524  0.75710  0.89163  Biso   1.000  C
  C572     1.0000 0.34323  0.75724  0.90375  Biso   1.000  C
  C573     1.0000 0.50165  0.61428  0.61029  Biso   1.000  C
  C574     1.0000 0.50237  0.60202  0.59796  Biso   1.000  C
  C575     1.0000 0.63764  0.89944  0.74871  Biso   1.000  C
  C576     1.0000 0.65009  0.91177  0.74832  Biso   1.000  C
  C577     1.0000 0.33079  0.76966  0.93377  Biso   1.000  C
  H301     1.0000 0.34311  0.77929  0.93517  Biso   1.000  H
  C578     1.0000 0.31707  0.76975  0.94761  Biso   1.000  C
  H302     1.0000 0.31899  0.77954  0.95963  Biso   1.000  H
  C579     1.0000 0.30118  0.75748  0.94604  Biso   1.000  C
  C580     1.0000 0.29932  0.74515  0.93036  Biso   1.000  C
  H303     1.0000 0.28713  0.73539  0.92866  Biso   1.000  H
  C581     1.0000 0.31308  0.74512  0.91657  Biso   1.000  C
  H304     1.0000 0.31144  0.73542  0.90442  Biso   1.000  H
  C582     1.0000 0.32887  0.75735  0.91820  Biso   1.000  C
  C583     1.0000 0.51528  0.58889  0.56842  Biso   1.000  C
  H305     1.0000 0.52467  0.60137  0.56758  Biso   1.000  H
  C584     1.0000 0.51566  0.57472  0.55444  Biso   1.000  C
  H306     1.0000 0.52539  0.57644  0.54285  Biso   1.000  H
  C585     1.0000 0.50366  0.55868  0.55528  Biso   1.000  C
  C586     1.0000 0.49137  0.55708  0.57039  Biso   1.000  C
  H307     1.0000 0.48180  0.54480  0.57153  Biso   1.000  H
  C587     1.0000 0.49106  0.57125  0.58431  Biso   1.000  C
  H308     1.0000 0.48136  0.56984  0.59598  Biso   1.000  H
  C588     1.0000 0.50296  0.58722  0.58339  Biso   1.000  C
  C589     1.0000 0.66414  0.94226  0.76007  Biso   1.000  C
  H309     1.0000 0.65243  0.94348  0.76971  Biso   1.000  H
  C590     1.0000 0.67829  0.95643  0.75996  Biso   1.000  C
  H310     1.0000 0.67729  0.96852  0.76961  Biso   1.000  H
  C591     1.0000 0.69343  0.95507  0.74773  Biso   1.000  C
  C592     1.0000 0.69410  0.93928  0.73561  Biso   1.000  C
  H311     1.0000 0.70571  0.93776  0.72591  Biso   1.000  H
  C593     1.0000 0.67990  0.92513  0.73578  Biso   1.000  C
  H312     1.0000 0.68059  0.91286  0.72629  Biso   1.000  H
  C594     1.0000 0.66488  0.92656  0.74802  Biso   1.000  C
  Zn13     1.0000 0.25332  0.27393  0.02129  Biso   1.000  Zn
  Zn14     1.0000 0.22992  0.24132  0.99817  Biso   1.000  Zn
  Zn15     1.0000 0.25219  0.27403  0.97592  Biso   1.000  Zn
  Zn16     1.0000 0.27530  0.24145  0.99926  Biso   1.000  Zn
  O40      1.0000 0.25268  0.25768  0.99867  Biso   1.000  O
  O41      1.0000 0.23156  0.26957  0.03700  Biso   1.000  O
  O42      1.0000 0.21314  0.24556  0.97559  Biso   1.000  O
  O43      1.0000 0.25242  0.30124  0.98180  Biso   1.000  O
  O44      1.0000 0.21430  0.24542  0.01994  Biso   1.000  O
  O45      1.0000 0.25324  0.30116  0.01524  Biso   1.000  O
  O46      1.0000 0.22960  0.26975  0.95913  Biso   1.000  O
  O47      1.0000 0.27394  0.26994  0.96028  Biso   1.000  O
  O48      1.0000 0.29211  0.24567  0.02185  Biso   1.000  O
  O49      1.0000 0.29100  0.24581  0.97749  Biso   1.000  O
  O50      1.0000 0.27591  0.26975  0.03808  Biso   1.000  O
  O51      1.0000 0.23578  0.21411  0.99838  Biso   1.000  O
  O52      1.0000 0.26922  0.21422  0.99918  Biso   1.000  O
  C595     1.0000 0.28868  0.25792  0.96268  Biso   1.000  C
  C596     1.0000 0.25246  0.20472  0.99878  Biso   1.000  C
  C597     1.0000 0.29052  0.25772  0.03646  Biso   1.000  C
  C598     1.0000 0.21672  0.25746  0.03469  Biso   1.000  C
  C599     1.0000 0.25283  0.31065  0.99848  Biso   1.000  C
  C600     1.0000 0.21487  0.25765  0.96086  Biso   1.000  C
  Zn17     1.0000 0.75774  0.98546  0.26551  Biso   1.000  Zn
  Zn18     1.0000 0.77945  0.00832  0.23324  Biso   1.000  Zn
  Zn19     1.0000 0.73410  0.00820  0.23238  Biso   1.000  Zn
  Zn20     1.0000 0.75793  0.03079  0.26543  Biso   1.000  Zn
  O53      1.0000 0.75730  0.00819  0.24915  Biso   1.000  O
  O54      1.0000 0.77982  0.96941  0.26184  Biso   1.000  O
  O55      1.0000 0.77260  0.00840  0.20589  Biso   1.000  O
  O56      1.0000 0.71790  0.98599  0.23638  Biso   1.000  O
  O57      1.0000 0.79572  0.98623  0.23784  Biso   1.000  O
  O58      1.0000 0.73546  0.96912  0.26074  Biso   1.000  O
  O59      1.0000 0.73918  0.00829  0.20523  Biso   1.000  O
  O60      1.0000 0.71811  0.03029  0.23627  Biso   1.000  O
  O61      1.0000 0.75851  0.02471  0.29269  Biso   1.000  O
  O62      1.0000 0.73580  0.04705  0.26060  Biso   1.000  O
  O63      1.0000 0.75839  0.99131  0.29275  Biso   1.000  O
  O64      1.0000 0.79589  0.03051  0.23775  Biso   1.000  O
  O65      1.0000 0.78015  0.04700  0.26173  Biso   1.000  O
  C601     1.0000 0.72065  0.04502  0.24830  Biso   1.000  C
  C602     1.0000 0.79443  0.04510  0.24984  Biso   1.000  C
  C603     1.0000 0.75850  0.00797  0.30219  Biso   1.000  C
  C604     1.0000 0.79413  0.97150  0.24995  Biso   1.000  C
  C605     1.0000 0.72033  0.97118  0.24845  Biso   1.000  C
  C606     1.0000 0.75561  0.00836  0.19608  Biso   1.000  C
  Zn21     1.0000 0.25107  0.74100  0.01964  Biso   1.000  Zn
  Zn22     1.0000 0.24988  0.74107  0.97425  Biso   1.000  Zn
  Zn23     1.0000 0.22800  0.77360  0.99628  Biso   1.000  Zn
  Zn24     1.0000 0.27337  0.77368  0.99734  Biso   1.000  Zn
  O66      1.0000 0.25059  0.75734  0.99689  Biso   1.000  O
  O67      1.0000 0.25081  0.71380  0.01378  Biso   1.000  O
  O68      1.0000 0.22731  0.74527  0.95750  Biso   1.000  O
  O69      1.0000 0.21233  0.76929  0.01806  Biso   1.000  O
  O70      1.0000 0.24995  0.71384  0.98034  Biso   1.000  O
  O71      1.0000 0.22934  0.74515  0.03530  Biso   1.000  O
  O72      1.0000 0.21116  0.76940  0.97371  Biso   1.000  O
  O73      1.0000 0.23411  0.80081  0.99635  Biso   1.000  O
  O74      1.0000 0.29018  0.76942  0.01990  Biso   1.000  O
  O75      1.0000 0.26755  0.80089  0.99712  Biso   1.000  O
  O76      1.0000 0.27369  0.74527  0.03639  Biso   1.000  O
  O77      1.0000 0.27164  0.74540  0.95853  Biso   1.000  O
  O78      1.0000 0.28897  0.76953  0.97554  Biso   1.000  O
  C607     1.0000 0.25088  0.81030  0.99673  Biso   1.000  C
  C608     1.0000 0.28650  0.75748  0.96080  Biso   1.000  C
  C609     1.0000 0.28844  0.75734  0.03463  Biso   1.000  C
  C610     1.0000 0.25037  0.70436  0.99710  Biso   1.000  C
  C611     1.0000 0.21462  0.75720  0.03289  Biso   1.000  C
  C612     1.0000 0.21273  0.75733  0.95911  Biso   1.000  C
  C613     1.0000 0.26147  0.50739  0.49803  Biso   1.000  C
  C614     1.0000 0.24353  0.50747  0.49773  Biso   1.000  C
  C615     1.0000 0.29356  0.49018  0.49868  Biso   1.000  C
  H313     1.0000 0.28582  0.47658  0.49864  Biso   1.000  H
  C616     1.0000 0.31388  0.49008  0.49903  Biso   1.000  C
  H314     1.0000 0.32130  0.47642  0.49925  Biso   1.000  H
  C617     1.0000 0.32473  0.50710  0.49910  Biso   1.000  C
  C618     1.0000 0.31429  0.52422  0.49882  Biso   1.000  C
  H315     1.0000 0.32203  0.53782  0.49886  Biso   1.000  H
  C619     1.0000 0.29396  0.52431  0.49847  Biso   1.000  C
  H316     1.0000 0.28654  0.53798  0.49826  Biso   1.000  H
  C620     1.0000 0.28312  0.50729  0.49840  Biso   1.000  C
  C621     1.0000 0.21144  0.52468  0.49709  Biso   1.000  C
  H317     1.0000 0.21918  0.53828  0.49714  Biso   1.000  H
  C622     1.0000 0.19112  0.52477  0.49675  Biso   1.000  C
  H318     1.0000 0.18370  0.53844  0.49654  Biso   1.000  H
  C623     1.0000 0.18027  0.50776  0.49667  Biso   1.000  C
  C624     1.0000 0.19072  0.49064  0.49695  Biso   1.000  C
  H319     1.0000 0.18298  0.47704  0.49690  Biso   1.000  H
  C625     1.0000 0.21104  0.49055  0.49729  Biso   1.000  C
  H320     1.0000 0.21846  0.47688  0.49750  Biso   1.000  H
  C626     1.0000 0.22189  0.50757  0.49737  Biso   1.000  C
  C627     1.0000 0.34638  0.50701  0.49949  Biso   1.000  C
  C628     1.0000 0.36432  0.50693  0.49983  Biso   1.000  C
  C629     1.0000 0.15863  0.50785  0.49628  Biso   1.000  C
  C630     1.0000 0.14068  0.50793  0.49594  Biso   1.000  C
  C631     1.0000 0.39614  0.50682  0.48346  Biso   1.000  C
  H321     1.0000 0.38818  0.50687  0.46964  Biso   1.000  H
  C632     1.0000 0.41647  0.50674  0.48391  Biso   1.000  C
  H322     1.0000 0.42353  0.50674  0.47036  Biso   1.000  H
  C633     1.0000 0.42765  0.50668  0.50125  Biso   1.000  C
  C634     1.0000 0.41741  0.50669  0.51809  Biso   1.000  C
  H323     1.0000 0.42522  0.50665  0.53200  Biso   1.000  H
  C635     1.0000 0.39709  0.50676  0.51761  Biso   1.000  C
  H324     1.0000 0.38989  0.50678  0.53108  Biso   1.000  H
  C636     1.0000 0.38597  0.50683  0.50030  Biso   1.000  C
  C637     1.0000 0.10885  0.50807  0.51231  Biso   1.000  C
  H325     1.0000 0.11682  0.50804  0.52613  Biso   1.000  H
  C638     1.0000 0.08852  0.50814  0.51185  Biso   1.000  C
  H326     1.0000 0.08146  0.50816  0.52540  Biso   1.000  H
  C639     1.0000 0.07735  0.50818  0.49451  Biso   1.000  C
  C640     1.0000 0.08759  0.50814  0.47767  Biso   1.000  C
  H327     1.0000 0.07979  0.50816  0.46377  Biso   1.000  H
  C641     1.0000 0.10791  0.50807  0.47816  Biso   1.000  C
  H328     1.0000 0.11512  0.50804  0.46469  Biso   1.000  H
  C642     1.0000 0.11903  0.50803  0.49548  Biso   1.000  C
  C643     1.0000 0.76145  0.50743  0.49743  Biso   1.000  C
  C644     1.0000 0.74356  0.50742  0.49813  Biso   1.000  C
  C645     1.0000 0.79210  0.50531  0.47925  Biso   1.000  C
  H329     1.0000 0.78332  0.50359  0.46602  Biso   1.000  H
  C646     1.0000 0.81236  0.50533  0.47846  Biso   1.000  C
  H330     1.0000 0.81869  0.50362  0.46464  Biso   1.000  H
  C647     1.0000 0.82450  0.50748  0.49498  Biso   1.000  C
  C648     1.0000 0.81542  0.50963  0.51232  Biso   1.000  C
  H331     1.0000 0.82420  0.51135  0.52555  Biso   1.000  H
  C649     1.0000 0.79517  0.50961  0.51310  Biso   1.000  C
  H332     1.0000 0.78884  0.51132  0.52692  Biso   1.000  H
  C650     1.0000 0.78302  0.50745  0.49659  Biso   1.000  C
  C651     1.0000 0.71291  0.50956  0.51631  Biso   1.000  C
  H333     1.0000 0.72168  0.51129  0.52954  Biso   1.000  H
  C652     1.0000 0.69265  0.50954  0.51710  Biso   1.000  C
  H334     1.0000 0.68632  0.51126  0.53092  Biso   1.000  H
  C653     1.0000 0.68050  0.50737  0.50059  Biso   1.000  C
  C654     1.0000 0.68958  0.50522  0.48324  Biso   1.000  C
  H335     1.0000 0.68080  0.50348  0.47002  Biso   1.000  H
  C655     1.0000 0.70984  0.50523  0.48245  Biso   1.000  C
  H336     1.0000 0.71616  0.50351  0.46864  Biso   1.000  H
  C656     1.0000 0.72199  0.50740  0.49897  Biso   1.000  C
  C657     1.0000 0.84608  0.50751  0.49414  Biso   1.000  C
  C658     1.0000 0.86397  0.50753  0.49345  Biso   1.000  C
  C659     1.0000 0.65893  0.50735  0.50142  Biso   1.000  C
  C660     1.0000 0.64104  0.50732  0.50211  Biso   1.000  C
  C661     1.0000 0.89624  0.52465  0.49218  Biso   1.000  C
  H337     1.0000 0.88875  0.53827  0.49237  Biso   1.000  H
  C662     1.0000 0.91651  0.52472  0.49152  Biso   1.000  C
  H338     1.0000 0.92398  0.53845  0.49125  Biso   1.000  H
  C663     1.0000 0.92711  0.50768  0.49128  Biso   1.000  C
  C664     1.0000 0.91635  0.49058  0.49171  Biso   1.000  C
  H339     1.0000 0.92370  0.47688  0.49161  Biso   1.000  H
  C665     1.0000 0.89608  0.49055  0.49237  Biso   1.000  C
  H340     1.0000 0.88846  0.47689  0.49273  Biso   1.000  H
  C666     1.0000 0.88554  0.50758  0.49265  Biso   1.000  C
  C667     1.0000 0.60876  0.49020  0.50338  Biso   1.000  C
  H341     1.0000 0.61625  0.47658  0.50316  Biso   1.000  H
  C668     1.0000 0.58850  0.49013  0.50405  Biso   1.000  C
  H342     1.0000 0.58102  0.47639  0.50429  Biso   1.000  H
  C669     1.0000 0.57790  0.50717  0.50431  Biso   1.000  C
  C670     1.0000 0.58866  0.52427  0.50389  Biso   1.000  C
  H343     1.0000 0.58131  0.53796  0.50402  Biso   1.000  H
  C671     1.0000 0.60892  0.52430  0.50323  Biso   1.000  C
  H344     1.0000 0.61655  0.53796  0.50289  Biso   1.000  H
  C672     1.0000 0.61946  0.50728  0.50293  Biso   1.000  C
  C673     1.0000 0.25164  0.99820  0.99776  Biso   1.000  C
  C674     1.0000 0.25171  0.01612  0.99795  Biso   1.000  C
  C675     1.0000 0.25155  0.96577  0.01461  Biso   1.000  C
  H345     1.0000 0.25161  0.97318  0.02829  Biso   1.000  H
  C676     1.0000 0.25147  0.94547  0.01448  Biso   1.000  C
  H346     1.0000 0.25147  0.93772  0.02806  Biso   1.000  H
  C677     1.0000 0.25140  0.93507  0.99733  Biso   1.000  C
  C678     1.0000 0.25141  0.94590  0.98033  Biso   1.000  C
  H347     1.0000 0.25136  0.93849  0.96665  Biso   1.000  H
  C679     1.0000 0.25149  0.96620  0.98046  Biso   1.000  C
  H348     1.0000 0.25149  0.97395  0.96688  Biso   1.000  H
  C680     1.0000 0.25156  0.97660  0.99761  Biso   1.000  C
  C681     1.0000 0.25168  0.04869  0.98128  Biso   1.000  C
  H349     1.0000 0.25153  0.04126  0.96761  Biso   1.000  H
  C682     1.0000 0.25175  0.06903  0.98122  Biso   1.000  C
  H350     1.0000 0.25164  0.07663  0.96755  Biso   1.000  H
  C683     1.0000 0.25194  0.07962  0.99824  Biso   1.000  C
  C684     1.0000 0.25205  0.06807  0.01611  Biso   1.000  C
  H351     1.0000 0.25220  0.07532  0.02988  Biso   1.000  H
  C685     1.0000 0.25198  0.04782  0.01562  Biso   1.000  C
  H352     1.0000 0.25207  0.03983  0.02906  Biso   1.000  H
  C686     1.0000 0.25179  0.03772  0.99827  Biso   1.000  C
  C687     1.0000 0.25132  0.91346  0.99720  Biso   1.000  C
  C688     1.0000 0.25125  0.89555  0.99709  Biso   1.000  C
  C689     1.0000 0.25197  0.10123  0.99831  Biso   1.000  C
  C690     1.0000 0.25196  0.11914  0.99839  Biso   1.000  C
  C691     1.0000 0.26819  0.86338  0.99731  Biso   1.000  C
  H353     1.0000 0.28187  0.87100  0.99767  Biso   1.000  H
  C692     1.0000 0.26812  0.84308  0.99722  Biso   1.000  C
  H354     1.0000 0.28181  0.83570  0.99751  Biso   1.000  H
  C693     1.0000 0.25098  0.83235  0.99678  Biso   1.000  C
  C694     1.0000 0.23394  0.84297  0.99643  Biso   1.000  C
  H355     1.0000 0.22018  0.83550  0.99609  Biso   1.000  H
  C695     1.0000 0.23404  0.86327  0.99652  Biso   1.000  C
  H356     1.0000 0.22043  0.87080  0.99625  Biso   1.000  H
  C696     1.0000 0.25116  0.87395  0.99697  Biso   1.000  C
  C697     1.0000 0.23462  0.15101  0.99814  Biso   1.000  C
  H357     1.0000 0.22108  0.14314  0.99777  Biso   1.000  H
  C698     1.0000 0.23433  0.17126  0.99823  Biso   1.000  C
  H358     1.0000 0.22058  0.17852  0.99794  Biso   1.000  H
  C699     1.0000 0.25234  0.18270  0.99872  Biso   1.000  C
  C700     1.0000 0.26926  0.17189  0.99907  Biso   1.000  C
  H359     1.0000 0.28308  0.17924  0.99943  Biso   1.000  H
  C701     1.0000 0.26896  0.15156  0.99896  Biso   1.000  C
  H360     1.0000 0.28256  0.14400  0.99925  Biso   1.000  H
  C702     1.0000 0.25185  0.14074  0.99850  Biso   1.000  C
  C703     1.0000 0.25151  0.51647  0.99777  Biso   1.000  C
  C704     1.0000 0.25164  0.49855  0.99783  Biso   1.000  C
  C705     1.0000 0.25107  0.54874  0.98058  Biso   1.000  C
  H361     1.0000 0.25094  0.54120  0.96697  Biso   1.000  H
  C706     1.0000 0.25093  0.56903  0.98052  Biso   1.000  C
  H362     1.0000 0.25070  0.57665  0.96685  Biso   1.000  H
  C707     1.0000 0.25108  0.57960  0.99756  Biso   1.000  C
  C708     1.0000 0.25137  0.56893  0.01468  Biso   1.000  C
  H363     1.0000 0.25149  0.57647  0.02829  Biso   1.000  H
  C709     1.0000 0.25151  0.54864  0.01475  Biso   1.000  C
  H364     1.0000 0.25174  0.54102  0.02841  Biso   1.000  H
  C710     1.0000 0.25136  0.53807  0.99770  Biso   1.000  C
  C711     1.0000 0.25216  0.46628  0.01502  Biso   1.000  C
  H365     1.0000 0.25234  0.47382  0.02864  Biso   1.000  H
  C712     1.0000 0.25230  0.44598  0.01509  Biso   1.000  C
  H366     1.0000 0.25259  0.43836  0.02876  Biso   1.000  H
  C713     1.0000 0.25208  0.43541  0.99804  Biso   1.000  C
  C714     1.0000 0.25171  0.44608  0.98092  Biso   1.000  C
  H367     1.0000 0.25153  0.43854  0.96731  Biso   1.000  H
  C715     1.0000 0.25157  0.46638  0.98085  Biso   1.000  C
  H368     1.0000 0.25128  0.47399  0.96719  Biso   1.000  H
  C716     1.0000 0.25179  0.47695  0.99790  Biso   1.000  C
  C717     1.0000 0.25093  0.60121  0.99749  Biso   1.000  C
  C718     1.0000 0.25081  0.61912  0.99743  Biso   1.000  C
  C719     1.0000 0.25223  0.41381  0.99812  Biso   1.000  C
  C720     1.0000 0.25236  0.39589  0.99818  Biso   1.000  C
  C721     1.0000 0.25104  0.65131  0.01439  Biso   1.000  C
  H369     1.0000 0.25144  0.64370  0.02806  Biso   1.000  H
  C722     1.0000 0.25092  0.67160  0.01433  Biso   1.000  C
  H370     1.0000 0.25124  0.67900  0.02802  Biso   1.000  H
  C723     1.0000 0.25043  0.68232  0.99719  Biso   1.000  C
  C724     1.0000 0.25005  0.67168  0.98014  Biso   1.000  C
  H371     1.0000 0.24966  0.67913  0.96639  Biso   1.000  H
  C725     1.0000 0.25016  0.65138  0.98024  Biso   1.000  C
  H372     1.0000 0.24986  0.64383  0.96662  Biso   1.000  H
  C726     1.0000 0.25067  0.64072  0.99735  Biso   1.000  C
  C727     1.0000 0.25215  0.36371  0.98122  Biso   1.000  C
  H373     1.0000 0.25177  0.37133  0.96755  Biso   1.000  H
  C728     1.0000 0.25227  0.34342  0.98127  Biso   1.000  C
  H374     1.0000 0.25197  0.33603  0.96757  Biso   1.000  H
  C729     1.0000 0.25276  0.33269  0.99840  Biso   1.000  C
  C730     1.0000 0.25311  0.34333  0.01546  Biso   1.000  C
  H375     1.0000 0.25349  0.33587  0.02921  Biso   1.000  H
  C731     1.0000 0.25299  0.36363  0.01537  Biso   1.000  C
  H376     1.0000 0.25328  0.37117  0.02898  Biso   1.000  H
  C732     1.0000 0.25250  0.37429  0.99826  Biso   1.000  C
  C733     1.0000 0.75138  0.00754  0.98987  Biso   1.000  C
  C734     1.0000 0.75169  0.00762  0.00781  Biso   1.000  C
  C735     1.0000 0.75103  0.02446  0.95740  Biso   1.000  C
  H377     1.0000 0.75134  0.03813  0.96485  Biso   1.000  H
  C736     1.0000 0.75067  0.02437  0.93708  Biso   1.000  C
  H378     1.0000 0.75071  0.03797  0.92937  Biso   1.000  H
  C737     1.0000 0.75027  0.00725  0.92661  Biso   1.000  C
  C738     1.0000 0.75024  0.99023  0.93742  Biso   1.000  C
  H379     1.0000 0.74993  0.97657  0.92998  Biso   1.000  H
  C739     1.0000 0.75060  0.99033  0.95775  Biso   1.000  C
  H380     1.0000 0.75056  0.97672  0.96546  Biso   1.000  H
  C740     1.0000 0.75100  0.00744  0.96822  Biso   1.000  C
  C741     1.0000 0.75196  0.99069  0.04027  Biso   1.000  C
  H381     1.0000 0.75160  0.97703  0.03283  Biso   1.000  H
  C742     1.0000 0.75232  0.99078  0.06059  Biso   1.000  C
  H382     1.0000 0.75223  0.97718  0.06831  Biso   1.000  H
  C743     1.0000 0.75281  0.00790  0.07107  Biso   1.000  C
  C744     1.0000 0.75291  0.02492  0.06026  Biso   1.000  C
  H383     1.0000 0.75329  0.03858  0.06770  Biso   1.000  H
  C745     1.0000 0.75255  0.02483  0.03993  Biso   1.000  C
  H384     1.0000 0.75266  0.03843  0.03222  Biso   1.000  H
  C746     1.0000 0.75207  0.00771  0.02945  Biso   1.000  C
  C747     1.0000 0.74987  0.00716  0.90496  Biso   1.000  C
  C748     1.0000 0.74952  0.00708  0.88701  Biso   1.000  C
  C749     1.0000 0.75321  0.00799  0.09272  Biso   1.000  C
  C750     1.0000 0.75356  0.00807  0.11066  Biso   1.000  C
  C751     1.0000 0.76588  0.00696  0.85519  Biso   1.000  C
  H385     1.0000 0.77971  0.00701  0.86315  Biso   1.000  H
  C752     1.0000 0.76543  0.00689  0.83486  Biso   1.000  C
  H386     1.0000 0.77898  0.00688  0.82780  Biso   1.000  H
  C753     1.0000 0.74809  0.00683  0.82368  Biso   1.000  C
  C754     1.0000 0.73125  0.00685  0.83392  Biso   1.000  C
  H387     1.0000 0.71735  0.00682  0.82612  Biso   1.000  H
  C755     1.0000 0.73174  0.00693  0.85424  Biso   1.000  C
  H388     1.0000 0.71827  0.00694  0.86144  Biso   1.000  H
  C756     1.0000 0.74905  0.00699  0.86537  Biso   1.000  C
  C757     1.0000 0.77135  0.00827  0.14343  Biso   1.000  C
  H389     1.0000 0.78482  0.00828  0.13622  Biso   1.000  H
  C758     1.0000 0.77185  0.00834  0.16375  Biso   1.000  C
  H390     1.0000 0.78576  0.00841  0.17154  Biso   1.000  H
  C759     1.0000 0.75501  0.00832  0.17400  Biso   1.000  C
  C760     1.0000 0.73767  0.00823  0.16282  Biso   1.000  C
  H391     1.0000 0.72412  0.00820  0.16989  Biso   1.000  H
  C761     1.0000 0.73721  0.00815  0.14249  Biso   1.000  C
  H392     1.0000 0.72338  0.00807  0.13454  Biso   1.000  H
  C762     1.0000 0.75404  0.00816  0.13231  Biso   1.000  C
  C763     1.0000 0.75193  0.00760  0.48990  Biso   1.000  C
  C764     1.0000 0.75122  0.00758  0.50779  Biso   1.000  C
  C765     1.0000 0.77027  0.00747  0.45925  Biso   1.000  C
  H393     1.0000 0.78361  0.00733  0.46803  Biso   1.000  H
  C766     1.0000 0.77106  0.00750  0.43900  Biso   1.000  C
  H394     1.0000 0.78500  0.00737  0.43268  Biso   1.000  H
  C767     1.0000 0.75441  0.00768  0.42685  Biso   1.000  C
  C768     1.0000 0.73691  0.00784  0.43592  Biso   1.000  C
  H395     1.0000 0.72357  0.00799  0.42714  Biso   1.000  H
  C769     1.0000 0.73612  0.00781  0.45618  Biso   1.000  C
  H396     1.0000 0.72218  0.00794  0.46250  Biso   1.000  H
  C770     1.0000 0.75277  0.00763  0.46833  Biso   1.000  C
  C771     1.0000 0.73288  0.00764  0.53844  Biso   1.000  C
  H397     1.0000 0.71954  0.00773  0.52966  Biso   1.000  H
  C772     1.0000 0.73209  0.00761  0.55869  Biso   1.000  C
  H398     1.0000 0.71815  0.00769  0.56502  Biso   1.000  H
  C773     1.0000 0.74875  0.00750  0.57085  Biso   1.000  C
  C774     1.0000 0.76624  0.00741  0.56177  Biso   1.000  C
  H399     1.0000 0.77958  0.00732  0.57055  Biso   1.000  H
  C775     1.0000 0.76703  0.00744  0.54151  Biso   1.000  C
  H400     1.0000 0.78097  0.00736  0.53519  Biso   1.000  H
  C776     1.0000 0.75037  0.00755  0.52936  Biso   1.000  C
  C777     1.0000 0.75525  0.00772  0.40527  Biso   1.000  C
  C778     1.0000 0.75594  0.00775  0.38739  Biso   1.000  C
  C779     1.0000 0.74790  0.00747  0.59242  Biso   1.000  C
  C780     1.0000 0.74721  0.00743  0.61031  Biso   1.000  C
  C781     1.0000 0.75721  0.02488  0.35513  Biso   1.000  C
  H401     1.0000 0.75699  0.03849  0.36264  Biso   1.000  H
  C782     1.0000 0.75788  0.02494  0.33487  Biso   1.000  C
  H402     1.0000 0.75813  0.03868  0.32741  Biso   1.000  H
  C783     1.0000 0.75815  0.00790  0.32424  Biso   1.000  C
  C784     1.0000 0.75774  0.99080  0.33498  Biso   1.000  C
  H403     1.0000 0.75786  0.97711  0.32762  Biso   1.000  H
  C785     1.0000 0.75707  0.99077  0.35525  Biso   1.000  C
  H404     1.0000 0.75673  0.97712  0.36285  Biso   1.000  H
  C786     1.0000 0.75676  0.00780  0.36581  Biso   1.000  C
  C787     1.0000 0.74612  0.02441  0.64245  Biso   1.000  C
  H405     1.0000 0.74649  0.03807  0.63485  Biso   1.000  H
  C788     1.0000 0.74545  0.02438  0.66271  Biso   1.000  C
  H406     1.0000 0.74535  0.03807  0.67008  Biso   1.000  H
  C789     1.0000 0.74501  0.00728  0.67345  Biso   1.000  C
  C790     1.0000 0.74524  0.99024  0.66282  Biso   1.000  C
  H407     1.0000 0.74497  0.97650  0.67027  Biso   1.000  H
  C791     1.0000 0.74591  0.99031  0.64255  Biso   1.000  C
  H408     1.0000 0.74610  0.97669  0.63504  Biso   1.000  H
  C792     1.0000 0.74639  0.00739  0.63188  Biso   1.000  C
