data_image0
_cell_length_a       49.6144
_cell_length_b       49.7381
_cell_length_c       49.6149
_cell_angle_alpha    60.2232
_cell_angle_beta     60.0185
_cell_angle_gamma    60.1218

_symmetry_space_group_name_H-M    "P 1"
_symmetry_int_tables_number       1

loop_
  _symmetry_equiv_pos_as_xyz
  'x, y, z'

loop_
  _atom_site_label
  _atom_site_occupancy
  _atom_site_fract_x
  _atom_site_fract_y
  _atom_site_fract_z
  _atom_site_thermal_displace_type
  _atom_site_B_iso_or_equiv
  _atom_site_type_symbol
  O1       1.0000 0.40693  0.76463  0.31064  Biso   1.000  O
  O2       1.0000 0.40684  0.71933  0.35627  Biso   1.000  O
  C1       1.0000 0.39215  0.74834  0.33983  Biso   1.000  C
  O3       1.0000 0.44429  0.72683  0.27330  Biso   1.000  O
  O4       1.0000 0.44419  0.68158  0.31898  Biso   1.000  O
  C2       1.0000 0.44210  0.69783  0.28988  Biso   1.000  C
  Cu1      1.0000 0.45213  0.75076  0.28681  Biso   1.000  Cu
  Cu2      1.0000 0.45187  0.69604  0.34199  Biso   1.000  Cu
  O5       1.0000 0.49729  0.72683  0.27315  Biso   1.000  O
  O6       1.0000 0.49696  0.68157  0.31883  Biso   1.000  O
  O7       1.0000 0.45985  0.76448  0.31065  Biso   1.000  O
  O8       1.0000 0.45956  0.71916  0.35627  Biso   1.000  O
  C3       1.0000 0.51188  0.69781  0.28971  Biso   1.000  C
  C4       1.0000 0.46178  0.74814  0.33983  Biso   1.000  C
  O9       1.0000 0.40643  0.76548  0.50828  Biso   1.000  O
  O10      1.0000 0.40656  0.71986  0.50826  Biso   1.000  O
  C5       1.0000 0.39173  0.74891  0.51039  Biso   1.000  C
  O11      1.0000 0.45933  0.76549  0.45534  Biso   1.000  O
  O12      1.0000 0.45921  0.71987  0.45559  Biso   1.000  O
  C6       1.0000 0.46137  0.74888  0.44072  Biso   1.000  C
  Cu3      1.0000 0.45167  0.75201  0.50050  Biso   1.000  Cu
  Cu4      1.0000 0.45161  0.69692  0.50061  Biso   1.000  Cu
  O13      1.0000 0.49690  0.72812  0.49282  Biso   1.000  O
  O14      1.0000 0.49667  0.68258  0.49302  Biso   1.000  O
  O15      1.0000 0.44402  0.72845  0.54567  Biso   1.000  O
  O16      1.0000 0.44403  0.68292  0.54561  Biso   1.000  O
  C7       1.0000 0.51154  0.69899  0.49083  Biso   1.000  C
  C8       1.0000 0.44192  0.69940  0.56038  Biso   1.000  C
  H1       1.0000 0.47895  0.16539  0.12846  Biso   1.000  H
  C9       1.0000 0.47929  0.16152  0.17352  Biso   1.000  C
  C10      1.0000 0.47958  0.17798  0.18946  Biso   1.000  C
  H2       1.0000 0.48082  0.16523  0.21416  Biso   1.000  H
  C11      1.0000 0.47989  0.21219  0.17237  Biso   1.000  C
  C12      1.0000 0.48005  0.22797  0.13980  Biso   1.000  C
  H3       1.0000 0.47927  0.25330  0.12746  Biso   1.000  H
  C13      1.0000 0.47977  0.21195  0.12341  Biso   1.000  C
  C14      1.0000 0.47927  0.17781  0.14101  Biso   1.000  C
  C15      1.0000 0.49914  0.24976  0.17328  Biso   1.000  C
  H4       1.0000 0.51498  0.25257  0.14784  Biso   1.000  H
  C16      1.0000 0.49875  0.26612  0.18973  Biso   1.000  C
  H5       1.0000 0.51395  0.28156  0.17678  Biso   1.000  H
  C17      1.0000 0.47893  0.26244  0.22276  Biso   1.000  C
  C18      1.0000 0.45952  0.24231  0.23935  Biso   1.000  C
  H6       1.0000 0.44405  0.23942  0.26490  Biso   1.000  H
  C19      1.0000 0.45989  0.22591  0.22295  Biso   1.000  C
  H7       1.0000 0.44432  0.21083  0.23606  Biso   1.000  H
  C20      1.0000 0.47966  0.22950  0.18973  Biso   1.000  C
  C21      1.0000 0.49952  0.10377  0.17442  Biso   1.000  C
  H8       1.0000 0.51560  0.11052  0.14911  Biso   1.000  H
  C22      1.0000 0.49961  0.07133  0.19079  Biso   1.000  C
  H9       1.0000 0.51541  0.05358  0.17790  Biso   1.000  H
  C23      1.0000 0.47950  0.06187  0.22368  Biso   1.000  C
  C24      1.0000 0.45924  0.08495  0.24017  Biso   1.000  C
  H10      1.0000 0.44349  0.07783  0.26559  Biso   1.000  H
  C25      1.0000 0.45913  0.11739  0.22386  Biso   1.000  C
  H11      1.0000 0.44299  0.13501  0.23688  Biso   1.000  H
  C26      1.0000 0.47930  0.12713  0.19080  Biso   1.000  C
  C27      1.0000 0.45932  0.22569  0.07948  Biso   1.000  C
  H12      1.0000 0.44342  0.21099  0.09717  Biso   1.000  H
  C28      1.0000 0.45892  0.24196  0.04713  Biso   1.000  C
  H13      1.0000 0.44307  0.23936  0.04015  Biso   1.000  H
  C29      1.0000 0.47872  0.26166  0.02403  Biso   1.000  C
  C30      1.0000 0.49900  0.26500  0.03329  Biso   1.000  C
  H14      1.0000 0.51447  0.28014  0.01548  Biso   1.000  H
  C31      1.0000 0.49942  0.24879  0.06562  Biso   1.000  C
  H15      1.0000 0.51557  0.25137  0.07223  Biso   1.000  H
  C32      1.0000 0.47953  0.22901  0.08907  Biso   1.000  C
  C33      1.0000 0.47955  0.02852  0.24049  Biso   1.000  C
  C34      1.0000 0.47948  0.00061  0.25458  Biso   1.000  C
  C35      1.0000 0.47854  0.27930  0.23966  Biso   1.000  C
  C36      1.0000 0.47823  0.29337  0.25384  Biso   1.000  C
  C37      1.0000 0.47809  0.27865  0.99086  Biso   1.000  C
  C38      1.0000 0.47757  0.29304  0.96306  Biso   1.000  C
  C39      1.0000 0.48020  0.95089  0.30359  Biso   1.000  C
  H16      1.0000 0.48153  0.96295  0.31582  Biso   1.000  H
  C40      1.0000 0.47930  0.91878  0.32018  Biso   1.000  C
  H17      1.0000 0.47991  0.90626  0.34512  Biso   1.000  H
  C41      1.0000 0.47739  0.90304  0.30464  Biso   1.000  C
  C42      1.0000 0.47653  0.91947  0.27240  Biso   1.000  C
  H18      1.0000 0.47499  0.90750  0.26023  Biso   1.000  H
  C43      1.0000 0.47743  0.95159  0.25582  Biso   1.000  C
  H19      1.0000 0.47660  0.96420  0.23095  Biso   1.000  H
  C44      1.0000 0.47917  0.96738  0.27142  Biso   1.000  C
  C45      1.0000 0.47755  0.34258  0.91398  Biso   1.000  C
  H20      1.0000 0.47860  0.35455  0.92651  Biso   1.000  H
  C46      1.0000 0.47674  0.35951  0.88178  Biso   1.000  C
  H21      1.0000 0.47711  0.38447  0.86965  Biso   1.000  H
  C47      1.0000 0.47530  0.34426  0.86545  Biso   1.000  C
  C48      1.0000 0.47468  0.31202  0.88137  Biso   1.000  C
  H22      1.0000 0.47346  0.30012  0.86890  Biso   1.000  H
  C49      1.0000 0.47550  0.29508  0.91356  Biso   1.000  C
  H23      1.0000 0.47496  0.27018  0.92576  Biso   1.000  H
  C50      1.0000 0.47691  0.31035  0.92992  Biso   1.000  C
  C51      1.0000 0.47305  0.29565  0.30468  Biso   1.000  C
  H24      1.0000 0.46961  0.27190  0.31813  Biso   1.000  H
  C52      1.0000 0.47257  0.31192  0.32129  Biso   1.000  C
  H25      1.0000 0.46871  0.30065  0.34747  Biso   1.000  H
  C53      1.0000 0.47690  0.34268  0.30414  Biso   1.000  C
  C54      1.0000 0.48177  0.35709  0.27030  Biso   1.000  C
  H26      1.0000 0.48507  0.38090  0.25687  Biso   1.000  H
  C55      1.0000 0.48225  0.34081  0.25368  Biso   1.000  C
  H27      1.0000 0.48595  0.35214  0.22752  Biso   1.000  H
  C56      1.0000 0.47786  0.31008  0.27086  Biso   1.000  C
  C57      1.0000 0.47573  0.87028  0.32196  Biso   1.000  C
  C58      1.0000 0.47399  0.84298  0.33659  Biso   1.000  C
  C59      1.0000 0.47397  0.36179  0.83255  Biso   1.000  C
  C60      1.0000 0.47250  0.37646  0.80511  Biso   1.000  C
  C61      1.0000 0.47569  0.35968  0.32140  Biso   1.000  C
  C62      1.0000 0.47421  0.37407  0.33602  Biso   1.000  C
  O17      1.0000 0.26164  0.76568  0.45512  Biso   1.000  O
  O18      1.0000 0.30712  0.72010  0.45539  Biso   1.000  O
  C63      1.0000 0.29085  0.74912  0.44053  Biso   1.000  C
  O19      1.0000 0.26160  0.76548  0.50814  Biso   1.000  O
  O20      1.0000 0.30708  0.71989  0.50814  Biso   1.000  O
  C64      1.0000 0.29073  0.74893  0.51028  Biso   1.000  C
  Cu5      1.0000 0.23761  0.75203  0.50027  Biso   1.000  Cu
  Cu6      1.0000 0.29264  0.69701  0.50037  Biso   1.000  Cu
  O21      1.0000 0.22356  0.72847  0.54546  Biso   1.000  O
  O22      1.0000 0.26915  0.68300  0.54535  Biso   1.000  O
  O23      1.0000 0.22413  0.72808  0.49237  Biso   1.000  O
  O24      1.0000 0.26972  0.68261  0.49258  Biso   1.000  O
  C65      1.0000 0.24002  0.69945  0.56015  Biso   1.000  C
  C66      1.0000 0.24069  0.69899  0.49026  Biso   1.000  C
  H28      1.0000 0.16782  0.16507  0.12846  Biso   1.000  H
  C67      1.0000 0.12602  0.16061  0.17318  Biso   1.000  C
  C68      1.0000 0.09346  0.17708  0.18932  Biso   1.000  C
  H29      1.0000 0.08060  0.16459  0.21434  Biso   1.000  H
  C69      1.0000 0.07631  0.21160  0.17265  Biso   1.000  C
  C70      1.0000 0.09304  0.22770  0.14029  Biso   1.000  C
  H30      1.0000 0.08032  0.25262  0.12763  Biso   1.000  H
  C71      1.0000 0.12555  0.21164  0.12366  Biso   1.000  C
  C72      1.0000 0.14228  0.17712  0.14077  Biso   1.000  C
  C73      1.0000 0.03227  0.26152  0.18764  Biso   1.000  C
  H31      1.0000 0.04997  0.27441  0.17330  Biso   1.000  H
  C74      1.0000 0.99983  0.27764  0.20423  Biso   1.000  C
  H32      1.0000 0.99281  0.30280  0.20224  Biso   1.000  H
  C75      1.0000 0.97665  0.26131  0.22340  Biso   1.000  C
  C76      1.0000 0.98600  0.22876  0.22599  Biso   1.000  C
  H33      1.0000 0.96816  0.21599  0.24072  Biso   1.000  H
  C77      1.0000 0.01845  0.21255  0.20947  Biso   1.000  C
  H34      1.0000 0.02514  0.18751  0.21140  Biso   1.000  H
  C78      1.0000 0.04190  0.22880  0.19009  Biso   1.000  C
  C79      1.0000 0.16309  0.10302  0.17378  Biso   1.000  C
  H35      1.0000 0.16556  0.10984  0.14846  Biso   1.000  H
  C80      1.0000 0.17943  0.07068  0.18996  Biso   1.000  C
  H36      1.0000 0.19453  0.05305  0.17691  Biso   1.000  H
  C81      1.0000 0.17619  0.06114  0.22284  Biso   1.000  C
  C82      1.0000 0.15656  0.08405  0.23953  Biso   1.000  C
  H37      1.0000 0.15405  0.07689  0.26495  Biso   1.000  H
  C83      1.0000 0.14018  0.11640  0.22341  Biso   1.000  C
  H38      1.0000 0.12551  0.13389  0.23659  Biso   1.000  H
  C84      1.0000 0.14327  0.12623  0.19035  Biso   1.000  C
  C85      1.0000 0.16304  0.21262  0.06595  Biso   1.000  C
  H39      1.0000 0.16543  0.18746  0.07252  Biso   1.000  H
  C86      1.0000 0.17947  0.22897  0.03359  Biso   1.000  C
  H40      1.0000 0.19455  0.21621  0.01570  Biso   1.000  H
  C87      1.0000 0.17625  0.26169  0.02439  Biso   1.000  C
  C88      1.0000 0.15663  0.27801  0.04763  Biso   1.000  C
  H41      1.0000 0.15415  0.30330  0.04071  Biso   1.000  H
  C89      1.0000 0.14014  0.26175  0.07995  Biso   1.000  C
  H42      1.0000 0.12541  0.27467  0.09769  Biso   1.000  H
  C90      1.0000 0.14312  0.22890  0.08942  Biso   1.000  C
  C91      1.0000 0.19305  0.02788  0.23946  Biso   1.000  C
  C92      1.0000 0.20715  0.00005  0.25348  Biso   1.000  C
  C93      1.0000 0.94332  0.27799  0.24044  Biso   1.000  C
  C94      1.0000 0.91545  0.29211  0.25467  Biso   1.000  C
  C95      1.0000 0.19289  0.27864  0.99107  Biso   1.000  C
  C96      1.0000 0.20668  0.29305  0.96319  Biso   1.000  C
  C97      1.0000 0.20707  0.95017  0.30229  Biso   1.000  C
  H43      1.0000 0.18127  0.96197  0.31426  Biso   1.000  H
  C98      1.0000 0.22353  0.91816  0.31898  Biso   1.000  C
  H44      1.0000 0.21035  0.90546  0.34374  Biso   1.000  H
  C99      1.0000 0.25695  0.90276  0.30381  Biso   1.000  C
  C100     1.0000 0.27380  0.91942  0.27180  Biso   1.000  C
  H45      1.0000 0.29965  0.90770  0.25992  Biso   1.000  H
  C101     1.0000 0.25732  0.95144  0.25511  Biso   1.000  C
  H46      1.0000 0.27056  0.96423  0.23043  Biso   1.000  H
  C102     1.0000 0.22395  0.96690  0.27037  Biso   1.000  C
  C103     1.0000 0.21011  0.34466  0.91724  Biso   1.000  C
  H47      1.0000 0.18773  0.35823  0.93234  Biso   1.000  H
  C104     1.0000 0.22616  0.36157  0.88499  Biso   1.000  C
  H48      1.0000 0.21609  0.38809  0.87540  Biso   1.000  H
  C105     1.0000 0.25517  0.34424  0.86532  Biso   1.000  C
  C106     1.0000 0.26804  0.30995  0.87799  Biso   1.000  C
  H49      1.0000 0.29049  0.29638  0.86295  Biso   1.000  H
  C107     1.0000 0.25200  0.29305  0.91025  Biso   1.000  C
  H50      1.0000 0.26214  0.26654  0.91991  Biso   1.000  H
  C108     1.0000 0.22304  0.31039  0.92994  Biso   1.000  C
  C109     1.0000 0.86573  0.29301  0.30411  Biso   1.000  C
  H51      1.0000 0.87781  0.26766  0.31655  Biso   1.000  H
  C110     1.0000 0.83356  0.30967  0.32070  Biso   1.000  C
  H52      1.0000 0.82100  0.29709  0.34586  Biso   1.000  H
  C111     1.0000 0.81780  0.34250  0.30486  Biso   1.000  C
  C112     1.0000 0.83427  0.35858  0.27235  Biso   1.000  C
  H53      1.0000 0.82227  0.38398  0.25995  Biso   1.000  H
  C113     1.0000 0.86644  0.34191  0.25575  Biso   1.000  C
  H54      1.0000 0.87907  0.35454  0.23064  Biso   1.000  H
  C114     1.0000 0.88224  0.30912  0.27162  Biso   1.000  C
  C115     1.0000 0.27405  0.87016  0.32132  Biso   1.000  C
  C116     1.0000 0.28844  0.84298  0.33614  Biso   1.000  C
  C117     1.0000 0.27207  0.36167  0.83240  Biso   1.000  C
  C118     1.0000 0.28650  0.37626  0.80498  Biso   1.000  C
  C119     1.0000 0.78495  0.35981  0.32213  Biso   1.000  C
  C120     1.0000 0.75756  0.37440  0.33673  Biso   1.000  C
  C121     1.0000 0.67848  0.44275  0.35597  Biso   1.000  C
  C122     1.0000 0.72506  0.39194  0.35432  Biso   1.000  C
  C123     1.0000 0.67827  0.39355  0.40523  Biso   1.000  C
  C124     1.0000 0.70966  0.42492  0.33871  Biso   1.000  C
  H55      1.0000 0.72233  0.43669  0.31323  Biso   1.000  H
  C125     1.0000 0.70949  0.37636  0.38738  Biso   1.000  C
  H56      1.0000 0.72206  0.35095  0.39920  Biso   1.000  H
  C126     1.0000 0.66288  0.42668  0.38916  Biso   1.000  C
  H57      1.0000 0.63906  0.44028  0.40280  Biso   1.000  H
  C127     1.0000 0.72716  0.55583  0.35440  Biso   1.000  C
  C128     1.0000 0.67977  0.55143  0.35559  Biso   1.000  C
  C129     1.0000 0.67974  0.55164  0.40496  Biso   1.000  C
  C130     1.0000 0.71144  0.55427  0.33862  Biso   1.000  C
  H58      1.0000 0.72422  0.55475  0.31326  Biso   1.000  H
  C131     1.0000 0.66407  0.55050  0.38864  Biso   1.000  C
  H59      1.0000 0.63986  0.54792  0.40203  Biso   1.000  H
  C132     1.0000 0.71142  0.55449  0.38739  Biso   1.000  C
  H60      1.0000 0.72418  0.55516  0.39939  Biso   1.000  H
  C133     1.0000 0.59653  0.52379  0.27517  Biso   1.000  C
  C134     1.0000 0.59848  0.51709  0.22879  Biso   1.000  C
  C135     1.0000 0.54721  0.52368  0.27500  Biso   1.000  C
  C136     1.0000 0.61400  0.51935  0.24421  Biso   1.000  C
  H61      1.0000 0.63958  0.51814  0.23169  Biso   1.000  H
  C137     1.0000 0.56534  0.51921  0.24405  Biso   1.000  C
  H62      1.0000 0.55366  0.51789  0.23143  Biso   1.000  H
  C138     1.0000 0.56316  0.52564  0.29050  Biso   1.000  C
  H63      1.0000 0.54934  0.52952  0.31413  Biso   1.000  H
  C139     1.0000 0.22438  0.68374  0.59577  Biso   1.000  C
  C140     1.0000 0.22443  0.63470  0.64516  Biso   1.000  C
  C141     1.0000 0.17746  0.68522  0.64658  Biso   1.000  C
  C142     1.0000 0.23999  0.65077  0.61198  Biso   1.000  C
  H64      1.0000 0.26396  0.63726  0.59843  Biso   1.000  H
  C143     1.0000 0.19307  0.65239  0.66232  Biso   1.000  C
  H65      1.0000 0.18040  0.64057  0.68778  Biso   1.000  H
  C144     1.0000 0.19300  0.70084  0.61352  Biso   1.000  C
  H66      1.0000 0.18027  0.72613  0.60161  Biso   1.000  H
  C145     1.0000 0.59616  0.31237  0.59611  Biso   1.000  C
  C146     1.0000 0.59728  0.26585  0.64694  Biso   1.000  C
  C147     1.0000 0.54647  0.31248  0.64527  Biso   1.000  C
  C148     1.0000 0.61322  0.28127  0.61395  Biso   1.000  C
  H67      1.0000 0.63876  0.26866  0.60214  Biso   1.000  H
  C149     1.0000 0.56412  0.28137  0.66252  Biso   1.000  C
  H68      1.0000 0.55206  0.26885  0.68794  Biso   1.000  H
  C150     1.0000 0.56286  0.32784  0.61214  Biso   1.000  C
  H69      1.0000 0.54935  0.35153  0.59848  Biso   1.000  H
  C151     1.0000 0.47176  0.39149  0.35364  Biso   1.000  C
  C152     1.0000 0.46569  0.44233  0.35542  Biso   1.000  C
  C153     1.0000 0.46562  0.39315  0.40472  Biso   1.000  C
  C154     1.0000 0.46987  0.42445  0.33805  Biso   1.000  C
  H70      1.0000 0.47109  0.43620  0.31252  Biso   1.000  H
  C155     1.0000 0.46390  0.42631  0.38869  Biso   1.000  C
  H71      1.0000 0.46020  0.43997  0.40244  Biso   1.000  H
  C156     1.0000 0.46967  0.37591  0.38676  Biso   1.000  C
  H72      1.0000 0.47068  0.35051  0.39855  Biso   1.000  H
  C157     1.0000 0.59828  0.68322  0.22715  Biso   1.000  C
  C158     1.0000 0.59711  0.63294  0.27428  Biso   1.000  C
  C159     1.0000 0.54753  0.68194  0.27415  Biso   1.000  C
  C160     1.0000 0.61417  0.65048  0.24282  Biso   1.000  C
  H73      1.0000 0.63965  0.63862  0.23011  Biso   1.000  H
  C161     1.0000 0.56386  0.64905  0.28984  Biso   1.000  C
  H74      1.0000 0.55036  0.63566  0.31387  Biso   1.000  H
  C162     1.0000 0.56520  0.69887  0.24270  Biso   1.000  C
  H75      1.0000 0.55318  0.72407  0.22989  Biso   1.000  H
  C163     1.0000 0.35603  0.55119  0.35434  Biso   1.000  C
  C164     1.0000 0.30544  0.55607  0.35274  Biso   1.000  C
  C165     1.0000 0.30630  0.55173  0.40347  Biso   1.000  C
  C166     1.0000 0.33857  0.55425  0.33716  Biso   1.000  C
  H76      1.0000 0.35076  0.55474  0.31180  Biso   1.000  H
  C167     1.0000 0.28939  0.55478  0.38572  Biso   1.000  C
  H77      1.0000 0.26391  0.55567  0.39757  Biso   1.000  H
  C168     1.0000 0.33950  0.55031  0.38736  Biso   1.000  C
  H78      1.0000 0.35284  0.54755  0.40091  Biso   1.000  H
  C169     1.0000 0.43713  0.63483  0.64550  Biso   1.000  C
  C170     1.0000 0.43261  0.68534  0.64661  Biso   1.000  C
  C171     1.0000 0.43769  0.68374  0.59598  Biso   1.000  C
  C172     1.0000 0.43392  0.65253  0.66251  Biso   1.000  C
  H79      1.0000 0.43302  0.64077  0.68794  Biso   1.000  H
  C173     1.0000 0.43450  0.70084  0.61357  Biso   1.000  C
  H80      1.0000 0.43404  0.72608  0.60153  Biso   1.000  H
  C174     1.0000 0.43864  0.65083  0.61232  Biso   1.000  C
  H81      1.0000 0.44152  0.63733  0.59887  Biso   1.000  H
  C175     1.0000 0.42957  0.26655  0.64722  Biso   1.000  C
  C176     1.0000 0.43661  0.31268  0.64519  Biso   1.000  C
  C177     1.0000 0.43673  0.31229  0.59589  Biso   1.000  C
  C178     1.0000 0.43182  0.28202  0.66273  Biso   1.000  C
  H82      1.0000 0.43029  0.26982  0.68836  Biso   1.000  H
  C179     1.0000 0.43878  0.32767  0.61185  Biso   1.000  C
  H83      1.0000 0.44302  0.35101  0.59800  Biso   1.000  H
  C180     1.0000 0.43201  0.28158  0.61399  Biso   1.000  C
  H84      1.0000 0.43070  0.26902  0.60226  Biso   1.000  H
  C181     1.0000 0.59664  0.63401  0.48654  Biso   1.000  C
  C182     1.0000 0.59815  0.68496  0.48045  Biso   1.000  C
  C183     1.0000 0.54718  0.68317  0.48660  Biso   1.000  C
  C184     1.0000 0.61387  0.65193  0.48250  Biso   1.000  C
  H85      1.0000 0.63940  0.64020  0.48137  Biso   1.000  H
  C185     1.0000 0.56503  0.70048  0.48254  Biso   1.000  C
  H86      1.0000 0.55316  0.72593  0.48145  Biso   1.000  H
  C186     1.0000 0.56336  0.65002  0.48823  Biso   1.000  C
  H87      1.0000 0.54973  0.63635  0.49176  Biso   1.000  H
  C187     1.0000 0.30668  0.76438  0.51456  Biso   1.000  C
  C188     1.0000 0.30537  0.81112  0.51991  Biso   1.000  C
  C189     1.0000 0.35610  0.76436  0.51462  Biso   1.000  C
  C190     1.0000 0.28959  0.79561  0.51815  Biso   1.000  C
  H88      1.0000 0.26415  0.80827  0.51899  Biso   1.000  H
  C191     1.0000 0.33839  0.79560  0.51822  Biso   1.000  C
  H89      1.0000 0.35033  0.80824  0.51912  Biso   1.000  H
  C192     1.0000 0.33986  0.74883  0.51317  Biso   1.000  C
  H90      1.0000 0.35339  0.72499  0.50993  Biso   1.000  H
  C193     1.0000 0.46456  0.39529  0.72587  Biso   1.000  C
  C194     1.0000 0.46433  0.44462  0.72612  Biso   1.000  C
  C195     1.0000 0.47016  0.39391  0.77259  Biso   1.000  C
  C196     1.0000 0.46287  0.42845  0.71049  Biso   1.000  C
  H91      1.0000 0.45946  0.44197  0.68671  Biso   1.000  H
  C197     1.0000 0.46819  0.42688  0.75727  Biso   1.000  C
  H92      1.0000 0.46911  0.43873  0.76999  Biso   1.000  H
  C198     1.0000 0.46838  0.37821  0.75702  Biso   1.000  C
  H93      1.0000 0.46944  0.35279  0.76956  Biso   1.000  H
  C199     1.0000 0.22544  0.63408  0.48509  Biso   1.000  C
  C200     1.0000 0.22534  0.68320  0.48566  Biso   1.000  C
  C201     1.0000 0.17915  0.68501  0.47876  Biso   1.000  C
  C202     1.0000 0.24078  0.65006  0.48718  Biso   1.000  C
  H94      1.0000 0.26443  0.63639  0.49094  Biso   1.000  H
  C203     1.0000 0.19440  0.70050  0.48128  Biso   1.000  C
  H95      1.0000 0.18183  0.72593  0.48027  Biso   1.000  H
  C204     1.0000 0.19451  0.65200  0.48072  Biso   1.000  C
  H96      1.0000 0.18203  0.64029  0.47927  Biso   1.000  H
  C205     1.0000 0.30594  0.44437  0.72597  Biso   1.000  C
  C206     1.0000 0.35522  0.39505  0.72596  Biso   1.000  C
  C207     1.0000 0.30410  0.39368  0.77249  Biso   1.000  C
  C208     1.0000 0.33921  0.42818  0.71051  Biso   1.000  C
  H97      1.0000 0.35297  0.44169  0.68678  Biso   1.000  H
  C209     1.0000 0.33721  0.37797  0.75707  Biso   1.000  C
  H98      1.0000 0.34897  0.35256  0.76966  Biso   1.000  H
  C210     1.0000 0.28853  0.42665  0.75705  Biso   1.000  C
  H99      1.0000 0.26300  0.43853  0.76962  Biso   1.000  H
  O25      1.0000 0.63344  0.39403  0.45567  Biso   1.000  O
  O26      1.0000 0.67914  0.34867  0.45544  Biso   1.000  O
  C211     1.0000 0.66262  0.37771  0.44082  Biso   1.000  C
  O27      1.0000 0.63313  0.39443  0.50828  Biso   1.000  O
  O28      1.0000 0.67882  0.34907  0.50833  Biso   1.000  O
  C212     1.0000 0.66223  0.37817  0.51040  Biso   1.000  C
  Cu7      1.0000 0.61013  0.37989  0.50070  Biso   1.000  Cu
  Cu8      1.0000 0.66529  0.32502  0.50064  Biso   1.000  Cu
  O29      1.0000 0.59586  0.35680  0.54572  Biso   1.000  O
  O30      1.0000 0.64145  0.31134  0.54586  Biso   1.000  O
  O31      1.0000 0.59571  0.35679  0.49312  Biso   1.000  O
  O32      1.0000 0.64131  0.31134  0.49297  Biso   1.000  O
  C213     1.0000 0.61222  0.32783  0.56053  Biso   1.000  C
  C214     1.0000 0.61213  0.32776  0.49095  Biso   1.000  C
  H100     1.0000 0.08583  0.56089  0.20975  Biso   1.000  H
  C215     1.0000 0.13125  0.55983  0.16851  Biso   1.000  C
  C216     1.0000 0.14767  0.55793  0.13648  Biso   1.000  C
  H101     1.0000 0.17272  0.55834  0.12349  Biso   1.000  H
  C217     1.0000 0.13164  0.55663  0.12067  Biso   1.000  C
  C218     1.0000 0.09874  0.55721  0.13738  Biso   1.000  C
  H102     1.0000 0.08623  0.55611  0.12545  Biso   1.000  H
  C219     1.0000 0.08185  0.55914  0.16939  Biso   1.000  C
  C220     1.0000 0.09835  0.56043  0.18472  Biso   1.000  C
  C221     1.0000 0.13312  0.57296  0.06325  Biso   1.000  C
  H103     1.0000 0.10794  0.58943  0.06931  Biso   1.000  H
  C222     1.0000 0.14949  0.57048  0.03158  Biso   1.000  C
  H104     1.0000 0.13667  0.58463  0.01384  Biso   1.000  H
  C223     1.0000 0.18227  0.54976  0.02286  Biso   1.000  C
  C224     1.0000 0.19850  0.53148  0.04607  Biso   1.000  C
  H105     1.0000 0.22373  0.51515  0.03966  Biso   1.000  H
  C225     1.0000 0.18218  0.53390  0.07776  Biso   1.000  C
  H106     1.0000 0.19505  0.51909  0.09548  Biso   1.000  H
  C226     1.0000 0.14924  0.55458  0.08676  Biso   1.000  C
  C227     1.0000 0.13202  0.58212  0.20377  Biso   1.000  C
  H107     1.0000 0.10694  0.59845  0.20544  Biso   1.000  H
  C228     1.0000 0.14798  0.58267  0.22002  Biso   1.000  C
  H108     1.0000 0.13496  0.59909  0.23426  Biso   1.000  H
  C229     1.0000 0.18053  0.56209  0.21798  Biso   1.000  C
  C230     1.0000 0.19716  0.54109  0.19939  Biso   1.000  C
  H109     1.0000 0.22232  0.52499  0.19777  Biso   1.000  H
  C231     1.0000 0.18126  0.54052  0.18307  Biso   1.000  C
  H110     1.0000 0.19436  0.52367  0.16932  Biso   1.000  H
  C232     1.0000 0.14844  0.56094  0.18520  Biso   1.000  C
  C233     1.0000 0.02381  0.58106  0.20519  Biso   1.000  C
  H111     1.0000 0.03084  0.59785  0.20622  Biso   1.000  H
  C234     1.0000 0.99112  0.58140  0.22182  Biso   1.000  C
  H112     1.0000 0.97349  0.59813  0.23571  Biso   1.000  H
  C235     1.0000 0.98125  0.56030  0.22049  Biso   1.000  C
  C236     1.0000 0.00421  0.53888  0.20237  Biso   1.000  C
  H113     1.0000 0.99682  0.52237  0.20132  Biso   1.000  H
  C237     1.0000 0.03691  0.53853  0.18567  Biso   1.000  C
  H114     1.0000 0.05440  0.52142  0.17221  Biso   1.000  H
  C238     1.0000 0.04709  0.55960  0.18693  Biso   1.000  C
  C239     1.0000 0.19670  0.56219  0.23530  Biso   1.000  C
  C240     1.0000 0.21016  0.56212  0.24999  Biso   1.000  C
  C241     1.0000 0.19961  0.54596  0.98948  Biso   1.000  C
  C242     1.0000 0.20470  0.57784  0.96260  Biso   1.000  C
  C243     1.0000 0.94764  0.56051  0.23785  Biso   1.000  C
  C244     1.0000 0.91952  0.56061  0.25248  Biso   1.000  C
  C245     1.0000 0.25679  0.56679  0.25104  Biso   1.000  C
  H115     1.0000 0.26844  0.57105  0.22475  Biso   1.000  H
  C246     1.0000 0.27252  0.56613  0.26833  Biso   1.000  C
  H116     1.0000 0.29622  0.56986  0.25527  Biso   1.000  H
  C247     1.0000 0.25776  0.56050  0.30236  Biso   1.000  C
  C248     1.0000 0.22714  0.55561  0.31900  Biso   1.000  C
  H117     1.0000 0.21557  0.55117  0.34531  Biso   1.000  H
  C249     1.0000 0.21140  0.55628  0.30171  Biso   1.000  C
  H118     1.0000 0.18779  0.55236  0.31480  Biso   1.000  H
  C250     1.0000 0.22620  0.56182  0.26770  Biso   1.000  C
  C251     1.0000 0.86860  0.56140  0.25426  Biso   1.000  C
  H119     1.0000 0.88018  0.56228  0.22879  Biso   1.000  H
  C252     1.0000 0.83617  0.56095  0.27143  Biso   1.000  C
  H120     1.0000 0.82298  0.56145  0.25908  Biso   1.000  H
  C253     1.0000 0.82097  0.55968  0.30442  Biso   1.000  C
  C254     1.0000 0.83831  0.55896  0.32015  Biso   1.000  C
  H121     1.0000 0.82678  0.55792  0.34567  Biso   1.000  H
  C255     1.0000 0.87075  0.55941  0.30299  Biso   1.000  C
  H122     1.0000 0.88401  0.55873  0.31537  Biso   1.000  H
  C256     1.0000 0.88599  0.56057  0.27002  Biso   1.000  C
  C257     1.0000 0.25381  0.57631  0.91094  Biso   1.000  C
  H123     1.0000 0.26585  0.58040  0.92107  Biso   1.000  H
  C258     1.0000 0.27007  0.57347  0.87942  Biso   1.000  C
  H124     1.0000 0.29459  0.57530  0.86548  Biso   1.000  H
  C259     1.0000 0.25467  0.56837  0.86598  Biso   1.000  C
  C260     1.0000 0.22294  0.56609  0.88422  Biso   1.000  C
  H125     1.0000 0.21082  0.56220  0.87401  Biso   1.000  H
  C261     1.0000 0.20667  0.56893  0.91576  Biso   1.000  C
  H126     1.0000 0.18207  0.56733  0.92963  Biso   1.000  H
  C262     1.0000 0.22212  0.57393  0.92928  Biso   1.000  C
  C263     1.0000 0.27423  0.55930  0.32021  Biso   1.000  C
  C264     1.0000 0.28828  0.55802  0.33509  Biso   1.000  C
  C265     1.0000 0.78778  0.55869  0.32218  Biso   1.000  C
  C266     1.0000 0.76008  0.55757  0.33694  Biso   1.000  C
  C267     1.0000 0.27151  0.56546  0.83353  Biso   1.000  C
  C268     1.0000 0.28593  0.56292  0.80639  Biso   1.000  C
  C269     1.0000 0.43772  0.63272  0.27422  Biso   1.000  C
  C270     1.0000 0.43780  0.68194  0.27438  Biso   1.000  C
  C271     1.0000 0.43220  0.68335  0.22763  Biso   1.000  C
  C272     1.0000 0.43920  0.64887  0.28984  Biso   1.000  C
  H127     1.0000 0.44246  0.63538  0.31369  Biso   1.000  H
  C273     1.0000 0.43409  0.69902  0.24317  Biso   1.000  C
  H128     1.0000 0.43324  0.72438  0.23056  Biso   1.000  H
  C274     1.0000 0.43404  0.65041  0.24300  Biso   1.000  C
  H129     1.0000 0.43314  0.63854  0.23028  Biso   1.000  H
  O33      1.0000 0.59629  0.58372  0.49252  Biso   1.000  O
  O34      1.0000 0.64166  0.58384  0.49299  Biso   1.000  O
  C275     1.0000 0.61258  0.59849  0.49069  Biso   1.000  C
  O35      1.0000 0.59575  0.53154  0.54514  Biso   1.000  O
  O36      1.0000 0.64117  0.53130  0.54588  Biso   1.000  O
  C276     1.0000 0.61193  0.52939  0.56026  Biso   1.000  C
  Cu9      1.0000 0.61063  0.53886  0.50003  Biso   1.000  Cu
  Cu10     1.0000 0.66553  0.53869  0.50075  Biso   1.000  Cu
  O37      1.0000 0.63344  0.49392  0.50774  Biso   1.000  O
  O38      1.0000 0.67893  0.49359  0.50843  Biso   1.000  O
  O39      1.0000 0.63451  0.54609  0.45508  Biso   1.000  O
  O40      1.0000 0.68002  0.54601  0.45546  Biso   1.000  O
  C277     1.0000 0.66241  0.47904  0.51022  Biso   1.000  C
  C278     1.0000 0.66376  0.54796  0.44053  Biso   1.000  C
  H130     1.0000 0.82399  0.50835  0.87287  Biso   1.000  H
  C279     1.0000 0.77847  0.50892  0.87676  Biso   1.000  C
  C280     1.0000 0.76231  0.50872  0.86038  Biso   1.000  C
  H131     1.0000 0.73685  0.50953  0.87277  Biso   1.000  H
  C281     1.0000 0.77833  0.50879  0.82769  Biso   1.000  C
  C282     1.0000 0.81094  0.50898  0.81140  Biso   1.000  C
  H132     1.0000 0.82344  0.50908  0.78617  Biso   1.000  H
  C283     1.0000 0.82750  0.50917  0.82739  Biso   1.000  C
  C284     1.0000 0.81107  0.50910  0.86008  Biso   1.000  C
  C285     1.0000 0.76326  0.52966  0.77775  Biso   1.000  C
  H133     1.0000 0.77757  0.54593  0.76487  Biso   1.000  H
  C286     1.0000 0.74667  0.52992  0.76161  Biso   1.000  C
  H134     1.0000 0.74864  0.54606  0.73643  Biso   1.000  H
  C287     1.0000 0.72756  0.50954  0.77795  Biso   1.000  C
  C288     1.0000 0.72499  0.48893  0.81051  Biso   1.000  C
  H135     1.0000 0.71029  0.47303  0.82328  Biso   1.000  H
  C289     1.0000 0.74151  0.48866  0.82673  Biso   1.000  C
  H136     1.0000 0.73958  0.47225  0.85180  Biso   1.000  H
  C290     1.0000 0.76085  0.50901  0.81049  Biso   1.000  C
  C291     1.0000 0.76404  0.52957  0.92089  Biso   1.000  C
  H137     1.0000 0.77838  0.54580  0.90316  Biso   1.000  H
  C292     1.0000 0.74781  0.52970  0.95338  Biso   1.000  C
  H138     1.0000 0.75005  0.54572  0.96045  Biso   1.000  H
  C293     1.0000 0.72870  0.50935  0.97657  Biso   1.000  C
  C294     1.0000 0.72578  0.48889  0.96720  Biso   1.000  C
  H139     1.0000 0.71107  0.47302  0.98507  Biso   1.000  H
  C295     1.0000 0.74194  0.48875  0.93471  Biso   1.000  C
  H140     1.0000 0.73975  0.47244  0.92800  Biso   1.000  H
  C296     1.0000 0.76127  0.50907  0.91123  Biso   1.000  C
  C297     1.0000 0.87150  0.53004  0.81274  Biso   1.000  C
  H141     1.0000 0.85375  0.54617  0.82724  Biso   1.000  H
  C298     1.0000 0.90392  0.53040  0.79628  Biso   1.000  C
  H142     1.0000 0.91090  0.54649  0.79850  Biso   1.000  H
  C299     1.0000 0.92713  0.51019  0.77695  Biso   1.000  C
  C300     1.0000 0.91787  0.48961  0.77410  Biso   1.000  C
  H143     1.0000 0.93578  0.47382  0.75926  Biso   1.000  H
  C301     1.0000 0.88545  0.48923  0.79051  Biso   1.000  C
  H144     1.0000 0.87884  0.47282  0.78837  Biso   1.000  H
  C302     1.0000 0.86193  0.50946  0.81000  Biso   1.000  C
  C303     1.0000 0.71207  0.50946  0.00999  Biso   1.000  C
  C304     1.0000 0.69807  0.50955  0.03799  Biso   1.000  C
  C305     1.0000 0.71063  0.50974  0.76127  Biso   1.000  C
  C306     1.0000 0.69649  0.50995  0.74722  Biso   1.000  C
  C307     1.0000 0.96044  0.51063  0.75998  Biso   1.000  C
  C308     1.0000 0.98835  0.51100  0.74569  Biso   1.000  C
  C309     1.0000 0.64965  0.50715  0.08852  Biso   1.000  C
  H145     1.0000 0.63779  0.50485  0.07679  Biso   1.000  H
  C310     1.0000 0.63313  0.50773  0.12087  Biso   1.000  C
  H146     1.0000 0.60858  0.50593  0.13392  Biso   1.000  H
  C311     1.0000 0.64822  0.51088  0.13614  Biso   1.000  C
  C312     1.0000 0.67991  0.51333  0.11905  Biso   1.000  C
  H147     1.0000 0.69167  0.51588  0.13069  Biso   1.000  H
  C313     1.0000 0.69643  0.51274  0.08670  Biso   1.000  C
  H148     1.0000 0.72089  0.51478  0.07356  Biso   1.000  H
  C314     1.0000 0.68129  0.50973  0.07137  Biso   1.000  C
  C315     1.0000 0.03693  0.51374  0.69530  Biso   1.000  C
  H149     1.0000 0.02381  0.51502  0.68238  Biso   1.000  H
  C316     1.0000 0.06922  0.51449  0.67855  Biso   1.000  C
  H150     1.0000 0.08085  0.51639  0.65278  Biso   1.000  H
  C317     1.0000 0.08630  0.51300  0.69504  Biso   1.000  C
  C318     1.0000 0.07104  0.51067  0.72832  Biso   1.000  C
  H151     1.0000 0.08409  0.50960  0.74119  Biso   1.000  H
  C319     1.0000 0.03875  0.50992  0.74507  Biso   1.000  C
  H152     1.0000 0.02706  0.50822  0.77079  Biso   1.000  H
  C320     1.0000 0.02163  0.51150  0.72857  Biso   1.000  C
  C321     1.0000 0.64667  0.51156  0.74614  Biso   1.000  C
  H153     1.0000 0.63374  0.51207  0.77118  Biso   1.000  H
  C322     1.0000 0.63017  0.51238  0.72953  Biso   1.000  C
  H154     1.0000 0.60459  0.51357  0.74182  Biso   1.000  H
  C323     1.0000 0.64662  0.51195  0.69708  Biso   1.000  C
  C324     1.0000 0.67966  0.51053  0.68134  Biso   1.000  C
  H155     1.0000 0.69251  0.51028  0.65622  Biso   1.000  H
  C325     1.0000 0.69616  0.50970  0.69795  Biso   1.000  C
  H156     1.0000 0.72166  0.50877  0.68557  Biso   1.000  H
  C326     1.0000 0.67966  0.51030  0.73034  Biso   1.000  C
  C327     1.0000 0.63089  0.51241  0.16904  Biso   1.000  C
  C328     1.0000 0.61621  0.51421  0.19642  Biso   1.000  C
  C329     1.0000 0.11918  0.51458  0.67765  Biso   1.000  C
  C330     1.0000 0.14657  0.51636  0.66301  Biso   1.000  C
  C331     1.0000 0.62938  0.51376  0.67969  Biso   1.000  C
  C332     1.0000 0.61479  0.51577  0.66496  Biso   1.000  C
  O41      1.0000 0.22331  0.58458  0.69003  Biso   1.000  O
  O42      1.0000 0.26924  0.58454  0.64464  Biso   1.000  O
  C333     1.0000 0.23999  0.59925  0.66100  Biso   1.000  C
  O43      1.0000 0.26044  0.54708  0.72802  Biso   1.000  O
  O44      1.0000 0.30624  0.54711  0.68252  Biso   1.000  O
  C334     1.0000 0.28963  0.54916  0.71170  Biso   1.000  C
  Cu11     1.0000 0.23695  0.53951  0.71368  Biso   1.000  Cu
  Cu12     1.0000 0.29239  0.53968  0.65878  Biso   1.000  Cu
  O45      1.0000 0.26087  0.49447  0.72710  Biso   1.000  O
  O46      1.0000 0.30671  0.49476  0.68163  Biso   1.000  O
  O47      1.0000 0.22377  0.53199  0.68919  Biso   1.000  O
  O48      1.0000 0.26966  0.53224  0.64378  Biso   1.000  O
  C335     1.0000 0.29014  0.47991  0.71058  Biso   1.000  C
  C336     1.0000 0.24054  0.53004  0.65995  Biso   1.000  C
  O49      1.0000 0.40592  0.39509  0.68140  Biso   1.000  O
  O50      1.0000 0.40538  0.35003  0.72726  Biso   1.000  O
  C337     1.0000 0.39088  0.37901  0.71056  Biso   1.000  C
  O51      1.0000 0.44342  0.35715  0.64432  Biso   1.000  O
  O52      1.0000 0.44291  0.31203  0.69011  Biso   1.000  O
  C338     1.0000 0.44102  0.32826  0.66091  Biso   1.000  C
  Cu13     1.0000 0.45105  0.38047  0.65842  Biso   1.000  Cu
  Cu14     1.0000 0.45058  0.32599  0.71381  Biso   1.000  Cu
  O53      1.0000 0.49611  0.35706  0.64441  Biso   1.000  O
  O54      1.0000 0.49589  0.31193  0.69019  Biso   1.000  O
  O55      1.0000 0.45855  0.39528  0.68124  Biso   1.000  O
  O56      1.0000 0.45826  0.35021  0.72710  Biso   1.000  O
  C339     1.0000 0.51077  0.32815  0.66099  Biso   1.000  C
  C340     1.0000 0.46045  0.37922  0.71040  Biso   1.000  C
  O57      1.0000 0.40634  0.39420  0.50772  Biso   1.000  O
  O58      1.0000 0.40599  0.34883  0.50768  Biso   1.000  O
  C341     1.0000 0.39141  0.37795  0.50972  Biso   1.000  C
  O59      1.0000 0.45918  0.39369  0.45528  Biso   1.000  O
  O60      1.0000 0.45917  0.34830  0.45495  Biso   1.000  O
  C342     1.0000 0.46132  0.37734  0.44036  Biso   1.000  C
  Cu15     1.0000 0.45136  0.37960  0.50037  Biso   1.000  Cu
  Cu16     1.0000 0.45123  0.32471  0.50020  Biso   1.000  Cu
  O61      1.0000 0.49638  0.35654  0.49299  Biso   1.000  O
  O62      1.0000 0.49651  0.31103  0.49277  Biso   1.000  O
  O63      1.0000 0.44351  0.35651  0.54540  Biso   1.000  O
  O64      1.0000 0.44327  0.31102  0.54549  Biso   1.000  O
  C343     1.0000 0.51120  0.32750  0.49084  Biso   1.000  C
  C344     1.0000 0.44121  0.32756  0.56021  Biso   1.000  C
  O65      1.0000 0.22417  0.58392  0.49143  Biso   1.000  O
  O66      1.0000 0.27007  0.58380  0.49110  Biso   1.000  O
  C345     1.0000 0.24087  0.59857  0.48922  Biso   1.000  C
  O67      1.0000 0.22420  0.53138  0.54430  Biso   1.000  O
  O68      1.0000 0.27005  0.53161  0.54372  Biso   1.000  O
  C346     1.0000 0.24091  0.52948  0.55876  Biso   1.000  C
  Cu17     1.0000 0.23762  0.53877  0.49918  Biso   1.000  Cu
  Cu18     1.0000 0.29301  0.53893  0.49860  Biso   1.000  Cu
  O69      1.0000 0.26161  0.49365  0.50687  Biso   1.000  O
  O70      1.0000 0.30740  0.49398  0.50630  Biso   1.000  O
  O71      1.0000 0.26108  0.54612  0.45389  Biso   1.000  O
  O72      1.0000 0.30684  0.54619  0.45364  Biso   1.000  O
  C347     1.0000 0.29085  0.47908  0.50875  Biso   1.000  C
  C348     1.0000 0.29032  0.54807  0.43903  Biso   1.000  C
  O73      1.0000 0.40515  0.54741  0.68260  Biso   1.000  O
  O74      1.0000 0.40518  0.54734  0.72829  Biso   1.000  O
  C349     1.0000 0.39040  0.54942  0.71181  Biso   1.000  C
  O75      1.0000 0.45779  0.49503  0.68181  Biso   1.000  O
  O76      1.0000 0.45809  0.49465  0.72752  Biso   1.000  O
  C350     1.0000 0.46005  0.48014  0.71083  Biso   1.000  C
  Cu19     1.0000 0.45022  0.53992  0.65912  Biso   1.000  Cu
  Cu20     1.0000 0.45050  0.53967  0.71428  Biso   1.000  Cu
  O77      1.0000 0.49537  0.53233  0.64459  Biso   1.000  O
  O78      1.0000 0.49573  0.53202  0.69024  Biso   1.000  O
  O79      1.0000 0.44280  0.58472  0.64501  Biso   1.000  O
  O80      1.0000 0.44297  0.58476  0.69057  Biso   1.000  O
  C351     1.0000 0.51033  0.53005  0.66101  Biso   1.000  C
  C352     1.0000 0.44092  0.59941  0.66143  Biso   1.000  C
  H157     1.0000 0.73689  0.91126  0.47113  Biso   1.000  H
  C353     1.0000 0.77802  0.86612  0.47081  Biso   1.000  C
  C354     1.0000 0.81083  0.85005  0.47026  Biso   1.000  C
  H158     1.0000 0.82312  0.82484  0.47059  Biso   1.000  H
  C355     1.0000 0.82750  0.86582  0.47056  Biso   1.000  C
  C356     1.0000 0.81100  0.89812  0.47132  Biso   1.000  C
  H159     1.0000 0.82374  0.91042  0.47154  Biso   1.000  H
  C357     1.0000 0.77819  0.91464  0.47183  Biso   1.000  C
  C358     1.0000 0.76189  0.89841  0.47161  Biso   1.000  C
  C359     1.0000 0.87205  0.85016  0.49119  Biso   1.000  C
  H160     1.0000 0.85446  0.86378  0.50816  Biso   1.000  H
  C360     1.0000 0.90467  0.83373  0.49086  Biso   1.000  C
  H161     1.0000 0.91197  0.83512  0.50727  Biso   1.000  H
  C361     1.0000 0.92768  0.81549  0.46956  Biso   1.000  C
  C362     1.0000 0.91798  0.81363  0.44862  Biso   1.000  C
  H162     1.0000 0.93569  0.79962  0.43201  Biso   1.000  H
  C363     1.0000 0.88536  0.82997  0.44898  Biso   1.000  C
  H163     1.0000 0.87836  0.82856  0.43236  Biso   1.000  H
  C364     1.0000 0.86208  0.84845  0.47023  Biso   1.000  C
  C365     1.0000 0.72786  0.85147  0.49139  Biso   1.000  C
  H164     1.0000 0.71508  0.86532  0.50811  Biso   1.000  H
  C366     1.0000 0.71156  0.83533  0.49125  Biso   1.000  C
  H165     1.0000 0.68638  0.83714  0.50757  Biso   1.000  H
  C367     1.0000 0.72779  0.81675  0.47031  Biso   1.000  C
  C368     1.0000 0.76041  0.81428  0.44953  Biso   1.000  C
  H166     1.0000 0.77311  0.79995  0.43324  Biso   1.000  H
  C369     1.0000 0.77678  0.83034  0.44967  Biso   1.000  C
  H167     1.0000 0.80191  0.82842  0.43319  Biso   1.000  H
  C370     1.0000 0.76065  0.84914  0.47059  Biso   1.000  C
  C371     1.0000 0.72807  0.95836  0.49316  Biso   1.000  C
  H168     1.0000 0.71510  0.94074  0.50910  Biso   1.000  H
  C372     1.0000 0.71183  0.99058  0.49380  Biso   1.000  C
  H169     1.0000 0.68653  0.99752  0.50993  Biso   1.000  H
  C373     1.0000 0.72822  0.01367  0.47376  Biso   1.000  C
  C374     1.0000 0.76095  0.00445  0.45315  Biso   1.000  C
  H170     1.0000 0.77374  0.02225  0.43748  Biso   1.000  H
  C375     1.0000 0.77726  0.97222  0.45252  Biso   1.000  C
  H171     1.0000 0.80243  0.96567  0.43605  Biso   1.000  H
  C376     1.0000 0.76097  0.94884  0.47250  Biso   1.000  C
  C377     1.0000 0.71103  0.80005  0.47034  Biso   1.000  C
  C378     1.0000 0.69693  0.78596  0.47058  Biso   1.000  C
  C379     1.0000 0.96121  0.79867  0.46926  Biso   1.000  C
  C380     1.0000 0.98924  0.78461  0.46921  Biso   1.000  C
  C381     1.0000 0.71140  0.04688  0.47420  Biso   1.000  C
  C382     1.0000 0.69726  0.07473  0.47449  Biso   1.000  C
  C383     1.0000 0.69808  0.74065  0.46212  Biso   1.000  C
  H172     1.0000 0.72477  0.73155  0.45434  Biso   1.000  H
  C384     1.0000 0.68162  0.72380  0.46331  Biso   1.000  C
  H173     1.0000 0.69570  0.70178  0.45645  Biso   1.000  H
  C385     1.0000 0.64710  0.73526  0.47356  Biso   1.000  C
  C386     1.0000 0.62908  0.76367  0.48252  Biso   1.000  C
  H174     1.0000 0.60237  0.77261  0.49059  Biso   1.000  H
  C387     1.0000 0.64554  0.78052  0.48133  Biso   1.000  C
  H175     1.0000 0.63145  0.80239  0.48846  Biso   1.000  H
  C388     1.0000 0.68006  0.76900  0.47118  Biso   1.000  C
  C389     1.0000 0.69669  0.12474  0.47396  Biso   1.000  C
  H176     1.0000 0.72222  0.11285  0.47283  Biso   1.000  H
  C390     1.0000 0.68007  0.15696  0.47464  Biso   1.000  C
  H177     1.0000 0.69286  0.16972  0.47410  Biso   1.000  H
  C391     1.0000 0.64702  0.17252  0.47618  Biso   1.000  C
  C392     1.0000 0.63065  0.15575  0.47702  Biso   1.000  C
  H178     1.0000 0.60508  0.16758  0.47830  Biso   1.000  H
  C393     1.0000 0.64727  0.12353  0.47635  Biso   1.000  C
  H179     1.0000 0.63443  0.11069  0.47707  Biso   1.000  H
  C394     1.0000 0.68030  0.10796  0.47486  Biso   1.000  C
  C395     1.0000 0.03993  0.73651  0.46639  Biso   1.000  C
  H180     1.0000 0.02846  0.72487  0.46348  Biso   1.000  H
  C396     1.0000 0.07212  0.71996  0.46736  Biso   1.000  C
  H181     1.0000 0.08531  0.69563  0.46522  Biso   1.000  H
  C397     1.0000 0.08703  0.73472  0.47140  Biso   1.000  C
  C398     1.0000 0.06975  0.76612  0.47431  Biso   1.000  C
  H182     1.0000 0.08109  0.77763  0.47757  Biso   1.000  H
  C399     1.0000 0.03757  0.78266  0.47334  Biso   1.000  C
  H183     1.0000 0.02427  0.80686  0.47581  Biso   1.000  H
  C400     1.0000 0.02258  0.76785  0.46947  Biso   1.000  C
  C401     1.0000 0.63011  0.71757  0.47550  Biso   1.000  C
  C402     1.0000 0.61568  0.70271  0.47752  Biso   1.000  C
  C403     1.0000 0.62976  0.20543  0.47749  Biso   1.000  C
  C404     1.0000 0.61520  0.23286  0.47897  Biso   1.000  C
  C405     1.0000 0.11973  0.71734  0.47341  Biso   1.000  C
  C406     1.0000 0.14693  0.70267  0.47557  Biso   1.000  C
  H184     1.0000 0.08056  0.25257  0.52751  Biso   1.000  H
  C407     1.0000 0.07643  0.21124  0.52792  Biso   1.000  C
  C408     1.0000 0.09305  0.17882  0.52752  Biso   1.000  C
  H185     1.0000 0.08047  0.16627  0.52746  Biso   1.000  H
  C409     1.0000 0.12578  0.16248  0.52725  Biso   1.000  C
  C410     1.0000 0.14188  0.17893  0.52741  Biso   1.000  C
  H186     1.0000 0.16678  0.16614  0.52819  Biso   1.000  H
  C411     1.0000 0.12567  0.21135  0.52779  Biso   1.000  C
  C412     1.0000 0.09294  0.22728  0.52808  Biso   1.000  C
  C413     1.0000 0.17600  0.11873  0.50618  Biso   1.000  C
  H187     1.0000 0.18882  0.13646  0.48994  Biso   1.000  H
  C414     1.0000 0.19233  0.08643  0.50578  Biso   1.000  C
  H188     1.0000 0.21759  0.07953  0.48955  Biso   1.000  H
  C415     1.0000 0.17606  0.06325  0.52612  Biso   1.000  C
  C416     1.0000 0.14340  0.07242  0.54691  Biso   1.000  C
  H189     1.0000 0.13070  0.05456  0.56282  Biso   1.000  H
  C417     1.0000 0.12700  0.10472  0.54731  Biso   1.000  C
  H190     1.0000 0.10186  0.11129  0.56384  Biso   1.000  H
  C418     1.0000 0.14314  0.12820  0.52692  Biso   1.000  C
  C419     1.0000 0.01852  0.24734  0.54885  Biso   1.000  C
  H191     1.0000 0.02537  0.24917  0.56530  Biso   1.000  H
  C420     1.0000 0.98597  0.26360  0.54897  Biso   1.000  C
  H192     1.0000 0.96820  0.27800  0.56521  Biso   1.000  H
  C421     1.0000 0.97644  0.26121  0.52825  Biso   1.000  C
  C422     1.0000 0.99952  0.24245  0.50746  Biso   1.000  C
  H193     1.0000 0.99232  0.24062  0.49125  Biso   1.000  H
  C423     1.0000 0.03207  0.22608  0.50737  Biso   1.000  C
  H194     1.0000 0.04971  0.21204  0.49078  Biso   1.000  H
  C424     1.0000 0.04190  0.22840  0.52806  Biso   1.000  C
  C425     1.0000 0.12649  0.24768  0.54856  Biso   1.000  C
  H195     1.0000 0.10129  0.24968  0.56486  Biso   1.000  H
  C426     1.0000 0.14269  0.26391  0.54871  Biso   1.000  C
  H196     1.0000 0.12977  0.27847  0.56481  Biso   1.000  H
  C427     1.0000 0.17541  0.26126  0.52823  Biso   1.000  C
  C428     1.0000 0.19196  0.24224  0.50767  Biso   1.000  C
  H197     1.0000 0.21728  0.24016  0.49168  Biso   1.000  H
  C429     1.0000 0.17584  0.22592  0.50753  Biso   1.000  C
  H198     1.0000 0.18890  0.21167  0.49113  Biso   1.000  H
  C430     1.0000 0.14289  0.22853  0.52795  Biso   1.000  C
  C431     1.0000 0.94303  0.27817  0.52823  Biso   1.000  C
  C432     1.0000 0.91505  0.29244  0.52814  Biso   1.000  C
  C433     1.0000 0.19287  0.03007  0.52559  Biso   1.000  C
  C434     1.0000 0.20698  0.00229  0.52511  Biso   1.000  C
  C435     1.0000 0.19199  0.27818  0.52817  Biso   1.000  C
  C436     1.0000 0.20598  0.29239  0.52793  Biso   1.000  C
  C437     1.0000 0.86632  0.29487  0.52430  Biso   1.000  C
  H199     1.0000 0.87936  0.27064  0.52190  Biso   1.000  H
  C438     1.0000 0.83403  0.31161  0.52361  Biso   1.000  C
  H200     1.0000 0.82237  0.30020  0.52066  Biso   1.000  H
  C439     1.0000 0.81703  0.34302  0.52653  Biso   1.000  C
  C440     1.0000 0.83237  0.35759  0.53025  Biso   1.000  C
  H201     1.0000 0.81941  0.38190  0.53245  Biso   1.000  H
  C441     1.0000 0.86467  0.34085  0.53093  Biso   1.000  C
  H202     1.0000 0.87644  0.35232  0.53368  Biso   1.000  H
  C442     1.0000 0.88171  0.30950  0.52789  Biso   1.000  C
  C443     1.0000 0.25734  0.29835  0.51648  Biso   1.000  C
  H203     1.0000 0.27149  0.27693  0.50862  Biso   1.000  H
  C444     1.0000 0.27376  0.31509  0.51553  Biso   1.000  C
  H204     1.0000 0.30048  0.30651  0.50691  Biso   1.000  H
  C445     1.0000 0.25570  0.34289  0.52552  Biso   1.000  C
  C446     1.0000 0.22115  0.35383  0.53657  Biso   1.000  C
  H205     1.0000 0.20701  0.37532  0.54431  Biso   1.000  H
  C447     1.0000 0.20473  0.33708  0.53751  Biso   1.000  C
  H206     1.0000 0.17801  0.34573  0.54599  Biso   1.000  H
  C448     1.0000 0.22281  0.30937  0.52739  Biso   1.000  C
  C449     1.0000 0.20946  0.95444  0.51977  Biso   1.000  C
  H207     1.0000 0.18561  0.96799  0.51638  Biso   1.000  H
  C450     1.0000 0.22587  0.92215  0.51931  Biso   1.000  C
  H208     1.0000 0.21461  0.91096  0.51555  Biso   1.000  H
  C451     1.0000 0.25673  0.90445  0.52363  Biso   1.000  C
  C452     1.0000 0.27115  0.91915  0.52837  Biso   1.000  C
  H209     1.0000 0.29504  0.90563  0.53166  Biso   1.000  H
  C453     1.0000 0.25474  0.95144  0.52883  Biso   1.000  C
  H210     1.0000 0.26604  0.96266  0.53250  Biso   1.000  H
  C454     1.0000 0.22387  0.96912  0.52455  Biso   1.000  C
  C455     1.0000 0.78411  0.36048  0.52505  Biso   1.000  C
  C456     1.0000 0.75671  0.37512  0.52337  Biso   1.000  C
  C457     1.0000 0.27267  0.36037  0.52397  Biso   1.000  C
  C458     1.0000 0.28714  0.37503  0.52226  Biso   1.000  C
  C459     1.0000 0.27374  0.87139  0.52280  Biso   1.000  C
  C460     1.0000 0.28809  0.84381  0.52177  Biso   1.000  C
  C461     1.0000 0.67771  0.39413  0.51464  Biso   1.000  C
  C462     1.0000 0.67780  0.44347  0.51455  Biso   1.000  C
  C463     1.0000 0.72424  0.39263  0.52072  Biso   1.000  C
  C464     1.0000 0.66231  0.42733  0.51288  Biso   1.000  C
  H211     1.0000 0.63859  0.44092  0.50929  Biso   1.000  H
  C465     1.0000 0.70887  0.42567  0.51866  Biso   1.000  C
  H212     1.0000 0.72148  0.43752  0.51973  Biso   1.000  H
  C466     1.0000 0.70878  0.37695  0.51874  Biso   1.000  C
  H213     1.0000 0.72132  0.35148  0.51990  Biso   1.000  H
  C467     1.0000 0.46589  0.76380  0.35573  Biso   1.000  C
  C468     1.0000 0.47142  0.81057  0.35418  Biso   1.000  C
  C469     1.0000 0.46562  0.76420  0.40510  Biso   1.000  C
  C470     1.0000 0.46967  0.79492  0.33850  Biso   1.000  C
  H214     1.0000 0.47075  0.80735  0.31301  Biso   1.000  H
  C471     1.0000 0.46936  0.79534  0.38729  Biso   1.000  C
  H215     1.0000 0.47021  0.80808  0.39916  Biso   1.000  H
  C472     1.0000 0.46424  0.74853  0.38894  Biso   1.000  C
  H216     1.0000 0.46094  0.72475  0.40254  Biso   1.000  H
  C473     1.0000 0.59770  0.26539  0.48128  Biso   1.000  C
  C474     1.0000 0.59623  0.31218  0.48673  Biso   1.000  C
  C475     1.0000 0.54684  0.31203  0.48671  Biso   1.000  C
  C476     1.0000 0.61340  0.28095  0.48311  Biso   1.000  C
  H217     1.0000 0.63884  0.26837  0.48225  Biso   1.000  H
  C477     1.0000 0.56306  0.32766  0.48806  Biso   1.000  C
  H218     1.0000 0.54955  0.35159  0.49109  Biso   1.000  H
  C478     1.0000 0.56463  0.28079  0.48312  Biso   1.000  C
  H219     1.0000 0.55274  0.26808  0.48227  Biso   1.000  H
  C479     1.0000 0.35473  0.55353  0.72747  Biso   1.000  C
  C480     1.0000 0.30536  0.55336  0.72748  Biso   1.000  C
  C481     1.0000 0.30362  0.55962  0.77408  Biso   1.000  C
  C482     1.0000 0.33863  0.55173  0.71205  Biso   1.000  C
  H220     1.0000 0.35233  0.54817  0.68828  Biso   1.000  H
  C483     1.0000 0.28799  0.55745  0.75863  Biso   1.000  C
  H221     1.0000 0.26243  0.55860  0.77115  Biso   1.000  H
  C484     1.0000 0.33680  0.55763  0.75860  Biso   1.000  C
  H222     1.0000 0.34862  0.55891  0.77111  Biso   1.000  H
  C485     1.0000 0.59720  0.51882  0.64716  Biso   1.000  C
  C486     1.0000 0.59573  0.52526  0.59591  Biso   1.000  C
  C487     1.0000 0.54606  0.52564  0.64514  Biso   1.000  C
  C488     1.0000 0.61300  0.52081  0.61404  Biso   1.000  C
  H223     1.0000 0.63865  0.51936  0.60239  Biso   1.000  H
  C489     1.0000 0.56230  0.52737  0.61182  Biso   1.000  C
  H224     1.0000 0.54864  0.53125  0.59798  Biso   1.000  H
  C490     1.0000 0.56396  0.52122  0.66263  Biso   1.000  C
  H225     1.0000 0.55205  0.52010  0.68818  Biso   1.000  H
  C491     1.0000 0.22527  0.52573  0.64381  Biso   1.000  C
  C492     1.0000 0.22548  0.52538  0.59440  Biso   1.000  C
  C493     1.0000 0.17898  0.51915  0.64544  Biso   1.000  C
  C494     1.0000 0.24080  0.52741  0.61049  Biso   1.000  C
  H226     1.0000 0.26446  0.53120  0.59680  Biso   1.000  H
  C495     1.0000 0.19447  0.52106  0.61235  Biso   1.000  C
  H227     1.0000 0.18199  0.51968  0.60058  Biso   1.000  H
  C496     1.0000 0.19425  0.52145  0.66109  Biso   1.000  C
  H228     1.0000 0.18159  0.52038  0.68662  Biso   1.000  H
  C497     1.0000 0.30475  0.39256  0.51960  Biso   1.000  C
  C498     1.0000 0.30663  0.44347  0.51321  Biso   1.000  C
  C499     1.0000 0.35579  0.39399  0.51377  Biso   1.000  C
  C500     1.0000 0.28926  0.42568  0.51725  Biso   1.000  C
  H229     1.0000 0.26382  0.43758  0.51809  Biso   1.000  H
  C501     1.0000 0.33982  0.42725  0.51183  Biso   1.000  C
  H230     1.0000 0.35355  0.44081  0.50831  Biso   1.000  H
  C502     1.0000 0.33778  0.37680  0.51788  Biso   1.000  C
  H231     1.0000 0.34946  0.35126  0.51928  Biso   1.000  H
  C503     1.0000 0.30581  0.81071  0.35392  Biso   1.000  C
  C504     1.0000 0.35655  0.76404  0.35569  Biso   1.000  C
  C505     1.0000 0.30698  0.76448  0.40495  Biso   1.000  C
  C506     1.0000 0.33891  0.79509  0.33836  Biso   1.000  C
  H232     1.0000 0.35092  0.80746  0.31285  Biso   1.000  H
  C507     1.0000 0.34021  0.74885  0.38890  Biso   1.000  C
  H233     1.0000 0.35369  0.72514  0.40257  Biso   1.000  H
  C508     1.0000 0.28994  0.79554  0.38703  Biso   1.000  C
  H234     1.0000 0.26443  0.80825  0.39881  Biso   1.000  H
  O81      1.0000 0.59679  0.58293  0.31917  Biso   1.000  O
  O82      1.0000 0.64227  0.58285  0.27334  Biso   1.000  O
  C509     1.0000 0.61313  0.59756  0.28994  Biso   1.000  C
  O83      1.0000 0.63466  0.54563  0.35627  Biso   1.000  O
  O84      1.0000 0.68026  0.54542  0.31056  Biso   1.000  O
  C510     1.0000 0.66389  0.54753  0.33975  Biso   1.000  C
  Cu21     1.0000 0.61106  0.53811  0.34233  Biso   1.000  Cu
  Cu22     1.0000 0.66608  0.53779  0.28701  Biso   1.000  Cu
  O85      1.0000 0.63405  0.49320  0.35663  Biso   1.000  O
  O86      1.0000 0.67963  0.49276  0.31089  Biso   1.000  O
  O87      1.0000 0.59622  0.53050  0.31958  Biso   1.000  O
  O88      1.0000 0.64176  0.53012  0.27380  Biso   1.000  O
  C511     1.0000 0.66307  0.47828  0.34013  Biso   1.000  C
  C512     1.0000 0.61252  0.52819  0.29051  Biso   1.000  C
  H235     1.0000 0.81710  0.82073  0.86810  Biso   1.000  H
  C513     1.0000 0.77190  0.86190  0.87178  Biso   1.000  C
  C514     1.0000 0.75623  0.89468  0.85545  Biso   1.000  C
  H236     1.0000 0.73080  0.90710  0.86770  Biso   1.000  H
  C515     1.0000 0.77284  0.91128  0.82313  Biso   1.000  C
  C516     1.0000 0.80552  0.89463  0.80713  Biso   1.000  C
  H237     1.0000 0.81856  0.90728  0.78228  Biso   1.000  H
  C517     1.0000 0.82160  0.86184  0.82306  Biso   1.000  C
  C518     1.0000 0.80453  0.84566  0.85532  Biso   1.000  C
  C519     1.0000 0.75948  0.95685  0.77297  Biso   1.000  C
  H238     1.0000 0.77383  0.93977  0.75934  Biso   1.000  H
  C520     1.0000 0.74373  0.98967  0.75718  Biso   1.000  C
  H239     1.0000 0.74632  0.99757  0.73160  Biso   1.000  H
  C521     1.0000 0.72461  0.01212  0.77440  Biso   1.000  C
  C522     1.0000 0.72123  0.00166  0.80749  Biso   1.000  C
  H240     1.0000 0.70655  0.01891  0.82097  Biso   1.000  H
  C523     1.0000 0.73688  0.96885  0.82335  Biso   1.000  C
  H241     1.0000 0.73432  0.96132  0.84884  Biso   1.000  H
  C524     1.0000 0.75617  0.94608  0.80626  Biso   1.000  C
  C525     1.0000 0.75722  0.81195  0.91608  Biso   1.000  C
  H242     1.0000 0.77143  0.79897  0.89842  Biso   1.000  H
  C526     1.0000 0.74133  0.79570  0.94875  Biso   1.000  C
  H243     1.0000 0.74369  0.77039  0.95598  Biso   1.000  H
  C527     1.0000 0.72262  0.81205  0.97195  Biso   1.000  C
  C528     1.0000 0.71967  0.84474  0.96239  Biso   1.000  C
  H244     1.0000 0.70537  0.85747  0.98028  Biso   1.000  H
  C529     1.0000 0.73548  0.86105  0.92974  Biso   1.000  C
  H245     1.0000 0.73346  0.88613  0.92298  Biso   1.000  H
  C530     1.0000 0.75449  0.84480  0.90625  Biso   1.000  C
  C531     1.0000 0.86650  0.81196  0.80851  Biso   1.000  C
  H246     1.0000 0.84882  0.79912  0.82191  Biso   1.000  H
  C532     1.0000 0.89938  0.79574  0.79293  Biso   1.000  C
  H247     1.0000 0.90675  0.77059  0.79468  Biso   1.000  H
  C533     1.0000 0.92258  0.81197  0.77510  Biso   1.000  C
  C534     1.0000 0.91281  0.84450  0.77284  Biso   1.000  C
  H248     1.0000 0.93066  0.85719  0.75917  Biso   1.000  H
  C535     1.0000 0.87993  0.86078  0.78834  Biso   1.000  C
  H249     1.0000 0.87294  0.88578  0.78675  Biso   1.000  H
  C536     1.0000 0.85642  0.84468  0.80634  Biso   1.000  C
  C537     1.0000 0.70669  0.79524  0.00567  Biso   1.000  C
  C538     1.0000 0.69340  0.78122  0.03397  Biso   1.000  C
  C539     1.0000 0.70832  0.04582  0.75814  Biso   1.000  C
  C540     1.0000 0.69460  0.07400  0.74445  Biso   1.000  C
  C541     1.0000 0.95638  0.79533  0.75901  Biso   1.000  C
  C542     1.0000 0.98469  0.78147  0.74541  Biso   1.000  C
  C543     1.0000 0.64987  0.78234  0.08775  Biso   1.000  C
  H250     1.0000 0.64034  0.80890  0.07798  Biso   1.000  H
  C544     1.0000 0.63421  0.76595  0.12045  Biso   1.000  C
  H251     1.0000 0.61265  0.77992  0.13572  Biso   1.000  H
  C545     1.0000 0.64625  0.73161  0.13324  Biso   1.000  C
  C546     1.0000 0.67408  0.71373  0.11330  Biso   1.000  C
  H252     1.0000 0.68348  0.68716  0.12301  Biso   1.000  H
  C547     1.0000 0.68974  0.73012  0.08061  Biso   1.000  C
  H253     1.0000 0.71118  0.71612  0.06529  Biso   1.000  H
  C548     1.0000 0.67758  0.76444  0.06774  Biso   1.000  C
  C549     1.0000 0.03900  0.78325  0.70340  Biso   1.000  C
  H254     1.0000 0.02975  0.80981  0.69614  Biso   1.000  H
  C550     1.0000 0.07160  0.76726  0.68694  Biso   1.000  C
  H255     1.0000 0.08732  0.78156  0.66706  Biso   1.000  H
  C551     1.0000 0.08373  0.73295  0.69603  Biso   1.000  C
  C552     1.0000 0.06322  0.71467  0.72177  Biso   1.000  C
  H256     1.0000 0.07242  0.68812  0.72894  Biso   1.000  H
  C553     1.0000 0.03063  0.73065  0.73824  Biso   1.000  C
  H257     1.0000 0.01488  0.71635  0.75804  Biso   1.000  H
  C554     1.0000 0.01842  0.76498  0.72898  Biso   1.000  C
  C555     1.0000 0.64475  0.12300  0.74332  Biso   1.000  C
  H258     1.0000 0.63127  0.10982  0.76757  Biso   1.000  H
  C556     1.0000 0.62859  0.15547  0.72719  Biso   1.000  C
  H259     1.0000 0.60273  0.16716  0.73910  Biso   1.000  H
  C557     1.0000 0.64572  0.17262  0.69569  Biso   1.000  C
  C558     1.0000 0.67913  0.15723  0.68046  Biso   1.000  C
  H260     1.0000 0.69253  0.17028  0.65607  Biso   1.000  H
  C559     1.0000 0.69530  0.12475  0.69661  Biso   1.000  C
  H261     1.0000 0.72108  0.11296  0.68459  Biso   1.000  H
  C560     1.0000 0.67812  0.10756  0.72804  Biso   1.000  C
  C561     1.0000 0.62964  0.71468  0.16656  Biso   1.000  C
  C562     1.0000 0.61550  0.70039  0.19430  Biso   1.000  C
  C563     1.0000 0.11697  0.71649  0.67864  Biso   1.000  C
  C564     1.0000 0.14466  0.70242  0.66403  Biso   1.000  C
  C565     1.0000 0.62885  0.20571  0.67873  Biso   1.000  C
  C566     1.0000 0.61455  0.23325  0.66436  Biso   1.000  C
  O89      1.0000 0.40678  0.54494  0.30959  Biso   1.000  O
  O90      1.0000 0.40612  0.54519  0.35546  Biso   1.000  O
  C567     1.0000 0.39168  0.54711  0.33875  Biso   1.000  C
  O91      1.0000 0.45974  0.49233  0.31030  Biso   1.000  O
  O92      1.0000 0.45879  0.49284  0.35618  Biso   1.000  O
  C568     1.0000 0.46138  0.47787  0.33960  Biso   1.000  C
  Cu23     1.0000 0.45214  0.53738  0.28635  Biso   1.000  Cu
  Cu24     1.0000 0.45108  0.53776  0.34187  Biso   1.000  Cu
  O93      1.0000 0.49724  0.52986  0.27331  Biso   1.000  O
  O94      1.0000 0.49626  0.53028  0.31926  Biso   1.000  O
  O95      1.0000 0.44435  0.58249  0.27287  Biso   1.000  O
  O96      1.0000 0.44359  0.58258  0.31887  Biso   1.000  O
  C569     1.0000 0.51152  0.52798  0.29017  Biso   1.000  C
  C570     1.0000 0.44189  0.59723  0.28963  Biso   1.000  C
  H262     1.0000 0.43277  0.82201  0.86822  Biso   1.000  H
  C571     1.0000 0.43132  0.86314  0.87362  Biso   1.000  C
  C572     1.0000 0.43084  0.89583  0.85783  Biso   1.000  C
  H263     1.0000 0.43060  0.90808  0.87093  Biso   1.000  H
  C573     1.0000 0.43042  0.91289  0.82536  Biso   1.000  C
  C574     1.0000 0.43060  0.89678  0.80866  Biso   1.000  C
  H264     1.0000 0.42925  0.91006  0.78400  Biso   1.000  H
  C575     1.0000 0.43105  0.86410  0.82405  Biso   1.000  C
  C576     1.0000 0.43152  0.84748  0.85649  Biso   1.000  C
  C577     1.0000 0.44840  0.95881  0.77590  Biso   1.000  C
  H265     1.0000 0.46492  0.94194  0.76205  Biso   1.000  H
  C578     1.0000 0.44686  0.99169  0.76047  Biso   1.000  C
  H266     1.0000 0.46190  0.99986  0.73492  Biso   1.000  H
  C579     1.0000 0.42603  0.01389  0.77796  Biso   1.000  C
  C580     1.0000 0.40683  0.00309  0.81099  Biso   1.000  C
  H267     1.0000 0.39058  0.02016  0.82466  Biso   1.000  H
  C581     1.0000 0.40837  0.97019  0.82650  Biso   1.000  C
  H268     1.0000 0.39293  0.96242  0.85192  Biso   1.000  H
  C582     1.0000 0.42914  0.94771  0.80908  Biso   1.000  C
  C583     1.0000 0.41089  0.82592  0.93090  Biso   1.000  C
  H269     1.0000 0.39502  0.82379  0.92354  Biso   1.000  H
  C584     1.0000 0.41041  0.80953  0.96352  Biso   1.000  C
  H270     1.0000 0.39450  0.79476  0.98082  Biso   1.000  H
  C585     1.0000 0.43022  0.81238  0.97380  Biso   1.000  C
  C586     1.0000 0.45064  0.83156  0.95130  Biso   1.000  C
  H271     1.0000 0.46619  0.83372  0.95905  Biso   1.000  H
  C587     1.0000 0.45113  0.84803  0.91865  Biso   1.000  C
  H272     1.0000 0.46737  0.86246  0.90149  Biso   1.000  H
  C588     1.0000 0.43118  0.84544  0.90813  Biso   1.000  C
  C589     1.0000 0.41073  0.82756  0.82296  Biso   1.000  C
  H273     1.0000 0.39521  0.82456  0.84850  Biso   1.000  H
  C590     1.0000 0.41032  0.81181  0.80645  Biso   1.000  C
  H274     1.0000 0.39486  0.79661  0.81947  Biso   1.000  H
  C591     1.0000 0.42971  0.81572  0.77329  Biso   1.000  C
  C592     1.0000 0.44953  0.83546  0.75665  Biso   1.000  C
  H275     1.0000 0.46472  0.83847  0.73100  Biso   1.000  H
  C593     1.0000 0.44998  0.85125  0.77311  Biso   1.000  C
  H276     1.0000 0.46585  0.86603  0.75996  Biso   1.000  H
  C594     1.0000 0.43059  0.84744  0.80647  Biso   1.000  C
  C595     1.0000 0.42950  0.79568  0.00743  Biso   1.000  C
  C596     1.0000 0.42889  0.78171  0.03562  Biso   1.000  C
  C597     1.0000 0.42440  0.04773  0.76190  Biso   1.000  C
  C598     1.0000 0.42332  0.07600  0.74817  Biso   1.000  C
  C599     1.0000 0.42944  0.79925  0.75647  Biso   1.000  C
  C600     1.0000 0.42927  0.78528  0.74251  Biso   1.000  C
  C601     1.0000 0.42745  0.78126  0.08612  Biso   1.000  C
  H277     1.0000 0.42714  0.80645  0.07403  Biso   1.000  H
  C602     1.0000 0.42729  0.76489  0.11866  Biso   1.000  C
  H278     1.0000 0.42691  0.77752  0.13149  Biso   1.000  H
  C603     1.0000 0.42791  0.73225  0.13441  Biso   1.000  C
  C604     1.0000 0.42857  0.71605  0.11759  Biso   1.000  C
  H279     1.0000 0.42919  0.69076  0.12958  Biso   1.000  H
  C605     1.0000 0.42873  0.73242  0.08504  Biso   1.000  C
  H280     1.0000 0.42942  0.71968  0.07212  Biso   1.000  H
  C606     1.0000 0.42824  0.76502  0.06924  Biso   1.000  C
  C607     1.0000 0.45365  0.76596  0.69563  Biso   1.000  C
  H281     1.0000 0.47259  0.77689  0.68444  Biso   1.000  H
  C608     1.0000 0.45384  0.74920  0.67971  Biso   1.000  C
  H282     1.0000 0.47292  0.74729  0.65633  Biso   1.000  H
  C609     1.0000 0.42955  0.73486  0.69406  Biso   1.000  C
  C610     1.0000 0.40503  0.73737  0.72435  Biso   1.000  C
  H283     1.0000 0.38620  0.72631  0.73560  Biso   1.000  H
  C611     1.0000 0.40485  0.75414  0.74027  Biso   1.000  C
  H284     1.0000 0.38587  0.75591  0.76374  Biso   1.000  H
  C612     1.0000 0.42919  0.76841  0.72595  Biso   1.000  C
  C613     1.0000 0.42637  0.12511  0.74570  Biso   1.000  C
  H285     1.0000 0.42958  0.11205  0.76960  Biso   1.000  H
  C614     1.0000 0.42657  0.15746  0.72893  Biso   1.000  C
  H286     1.0000 0.42995  0.16916  0.73997  Biso   1.000  H
  C615     1.0000 0.42288  0.17440  0.69782  Biso   1.000  C
  C616     1.0000 0.41864  0.15901  0.68368  Biso   1.000  C
  H287     1.0000 0.41587  0.17191  0.65960  Biso   1.000  H
  C617     1.0000 0.41842  0.12667  0.70048  Biso   1.000  C
  H288     1.0000 0.41542  0.11483  0.68927  Biso   1.000  H
  C618     1.0000 0.42245  0.10961  0.73144  Biso   1.000  C
  C619     1.0000 0.42875  0.71514  0.16750  Biso   1.000  C
  C620     1.0000 0.43000  0.70071  0.19504  Biso   1.000  C
  C621     1.0000 0.43003  0.71740  0.67773  Biso   1.000  C
  C622     1.0000 0.43090  0.70277  0.66375  Biso   1.000  C
  C623     1.0000 0.42446  0.20717  0.68003  Biso   1.000  C
  C624     1.0000 0.42641  0.23439  0.66508  Biso   1.000  C
