data_image0
_cell_length_a       14.0578
_cell_length_b       23.0013
_cell_length_c       31.238
_cell_angle_alpha    90.881
_cell_angle_beta     90
_cell_angle_gamma    90

_symmetry_space_group_name_H-M    P 1
_symmetry_int_tables_number       1

loop_
  _symmetry_equiv_pos_as_xyz
  'x, y, z'

loop_
  _atom_site_label
  _atom_site_occupancy
  _atom_site_fract_x
  _atom_site_fract_y
  _atom_site_fract_z
  _atom_site_thermal_displace_type
  _atom_site_B_iso_or_equiv
  _atom_site_type_symbol
  Zn1      1.0000 0.29873  0.26792  0.34257  Biso   1.000  Zn
  Zn2      1.0000 0.50560  0.21418  0.34962  Biso   1.000  Zn
  Zn3      1.0000 0.33398  0.03042  0.60843  Biso   1.000  Zn
  Zn4      1.0000 0.21250  0.96913  0.12686  Biso   1.000  Zn
  Zn5      1.0000 0.20127  0.76792  0.84257  Biso   1.000  Zn
  Zn6      1.0000 0.99440  0.71418  0.84962  Biso   1.000  Zn
  Zn7      1.0000 0.16602  0.53042  0.10843  Biso   1.000  Zn
  Zn8      1.0000 0.28750  0.46913  0.62686  Biso   1.000  Zn
  H1       1.0000 0.22010  0.16820  0.44860  Biso   1.000  H
  H2       1.0000 0.48750  0.11290  0.46810  Biso   1.000  H
  H3       1.0000 0.14950  0.12330  0.57840  Biso   1.000  H
  H4       1.0000 0.04790  0.14550  0.56600  Biso   1.000  H
  H5       1.0000 0.13700  0.18500  0.55860  Biso   1.000  H
  H6       1.0000 0.00160  0.15970  0.49240  Biso   1.000  H
  H7       1.0000 0.07200  0.14490  0.45490  Biso   1.000  H
  H8       1.0000 0.09180  0.19840  0.48520  Biso   1.000  H
  H9       1.0000 0.11890  0.03360  0.52950  Biso   1.000  H
  H10      1.0000 0.08680  0.04500  0.48230  Biso   1.000  H
  H11      1.0000 0.01840  0.06030  0.52050  Biso   1.000  H
  H12      1.0000 0.52830  0.05260  0.52230  Biso   1.000  H
  H13      1.0000 0.64630  0.02760  0.55560  Biso   1.000  H
  H14      1.0000 0.76490  0.98310  0.59510  Biso   1.000  H
  H15      1.0000 0.72630  0.93330  0.65670  Biso   1.000  H
  H16      1.0000 0.56900  0.92780  0.67880  Biso   1.000  H
  H17      1.0000 0.42940  0.91530  0.68500  Biso   1.000  H
  H18      1.0000 0.03860  0.89940  0.71880  Biso   1.000  H
  H19      1.0000 0.32070  0.87650  0.73080  Biso   1.000  H
  H20      1.0000 0.97360  0.05110  0.64270  Biso   1.000  H
  H21      1.0000 0.08510  0.04990  0.64370  Biso   1.000  H
  H22      1.0000 0.02730  0.04680  0.68650  Biso   1.000  H
  H23      1.0000 0.97000  0.96800  0.59290  Biso   1.000  H
  H24      1.0000 0.02130  0.91000  0.60490  Biso   1.000  H
  H25      1.0000 0.08140  0.96470  0.59270  Biso   1.000  H
  H26      1.0000 0.88200  0.96800  0.65800  Biso   1.000  H
  H27      1.0000 0.93270  0.96280  0.70240  Biso   1.000  H
  H28      1.0000 0.93050  0.90940  0.67070  Biso   1.000  H
  H29      1.0000 0.22500  0.12830  0.25020  Biso   1.000  H
  H30      1.0000 0.50700  0.11480  0.23160  Biso   1.000  H
  H31      1.0000 0.57440  0.96370  0.14850  Biso   1.000  H
  H32      1.0000 0.46360  0.96160  0.15390  Biso   1.000  H
  H33      1.0000 0.52920  0.96670  0.19440  Biso   1.000  H
  H34      1.0000 0.56040  0.05190  0.10010  Biso   1.000  H
  H35      1.0000 0.50240  0.10630  0.11590  Biso   1.000  H
  H36      1.0000 0.44950  0.04810  0.10450  Biso   1.000  H
  H37      1.0000 0.66370  0.05610  0.16380  Biso   1.000  H
  H38      1.0000 0.61980  0.05550  0.20990  Biso   1.000  H
  H39      1.0000 0.60970  0.11090  0.18170  Biso   1.000  H
  H40      1.0000 0.11560  0.08920  0.20380  Biso   1.000  H
  H41      1.0000 0.97210  0.06840  0.19990  Biso   1.000  H
  H42      1.0000 0.81610  0.06040  0.17640  Biso   1.000  H
  H43      1.0000 0.78250  0.01230  0.11230  Biso   1.000  H
  H44      1.0000 0.90500  0.97220  0.07180  Biso   1.000  H
  H45      1.0000 0.02560  0.95670  0.03730  Biso   1.000  H
  H46      1.0000 0.33420  0.84760  0.95640  Biso   1.000  H
  H47      1.0000 0.06940  0.90750  0.97740  Biso   1.000  H
  H48      1.0000 0.48660  0.83090  0.07830  Biso   1.000  H
  H49      1.0000 0.39090  0.80160  0.06400  Biso   1.000  H
  H50      1.0000 0.38920  0.85860  0.09210  Biso   1.000  H
  H51      1.0000 0.53620  0.92590  0.04790  Biso   1.000  H
  H52      1.0000 0.43820  0.95420  0.06020  Biso   1.000  H
  H53      1.0000 0.47380  0.95500  0.01260  Biso   1.000  H
  H54      1.0000 0.54340  0.83400  0.00700  Biso   1.000  H
  H55      1.0000 0.48470  0.86310  0.97040  Biso   1.000  H
  H56      1.0000 0.45070  0.80410  0.98960  Biso   1.000  H
  H57      1.0000 0.65820  0.27020  0.29720  Biso   1.000  H
  H58      1.0000 0.82270  0.27800  0.29620  Biso   1.000  H
  H59      1.0000 0.83860  0.18060  0.40160  Biso   1.000  H
  H60      1.0000 0.67410  0.17270  0.40260  Biso   1.000  H
  H61      1.0000 0.96650  0.23950  0.28350  Biso   1.000  H
  H62      1.0000 0.13040  0.25070  0.28120  Biso   1.000  H
  H63      1.0000 0.14050  0.24700  0.40970  Biso   1.000  H
  H64      1.0000 0.97650  0.23580  0.41200  Biso   1.000  H
  H65      1.0000 0.03220  0.83870  0.12560  Biso   1.000  H
  H66      1.0000 0.03200  0.80670  0.16960  Biso   1.000  H
  H67      1.0000 0.08750  0.77990  0.13050  Biso   1.000  H
  H68      1.0000 0.17890  0.74430  0.22890  Biso   1.000  H
  H69      1.0000 0.11210  0.74770  0.18880  Biso   1.000  H
  H70      1.0000 0.09950  0.79210  0.22700  Biso   1.000  H
  H71      1.0000 0.33470  0.78450  0.21360  Biso   1.000  H
  H72      1.0000 0.33060  0.85140  0.20500  Biso   1.000  H
  H73      1.0000 0.34250  0.80730  0.16670  Biso   1.000  H
  H74      1.0000 0.27990  0.66820  0.94860  Biso   1.000  H
  H75      1.0000 0.01250  0.61290  0.96810  Biso   1.000  H
  H76      1.0000 0.35050  0.62330  0.07840  Biso   1.000  H
  H77      1.0000 0.45210  0.64550  0.06600  Biso   1.000  H
  H78      1.0000 0.36300  0.68500  0.05860  Biso   1.000  H
  H79      1.0000 0.49840  0.65970  0.99240  Biso   1.000  H
  H80      1.0000 0.42800  0.64490  0.95490  Biso   1.000  H
  H81      1.0000 0.40820  0.69840  0.98520  Biso   1.000  H
  H82      1.0000 0.38110  0.53360  0.02950  Biso   1.000  H
  H83      1.0000 0.41320  0.54500  0.98230  Biso   1.000  H
  H84      1.0000 0.48160  0.56030  0.02050  Biso   1.000  H
  H85      1.0000 0.97170  0.55260  0.02230  Biso   1.000  H
  H86      1.0000 0.85370  0.52760  0.05560  Biso   1.000  H
  H87      1.0000 0.73510  0.48310  0.09510  Biso   1.000  H
  H88      1.0000 0.77370  0.43330  0.15670  Biso   1.000  H
  H89      1.0000 0.93100  0.42780  0.17880  Biso   1.000  H
  H90      1.0000 0.07060  0.41530  0.18500  Biso   1.000  H
  H91      1.0000 0.46140  0.39940  0.21880  Biso   1.000  H
  H92      1.0000 0.17930  0.37650  0.23080  Biso   1.000  H
  H93      1.0000 0.52640  0.55110  0.14270  Biso   1.000  H
  H94      1.0000 0.41490  0.54990  0.14370  Biso   1.000  H
  H95      1.0000 0.47270  0.54680  0.18650  Biso   1.000  H
  H96      1.0000 0.53000  0.46800  0.09290  Biso   1.000  H
  H97      1.0000 0.47870  0.41000  0.10490  Biso   1.000  H
  H98      1.0000 0.41860  0.46470  0.09270  Biso   1.000  H
  H99      1.0000 0.61800  0.46800  0.15800  Biso   1.000  H
  H100     1.0000 0.56730  0.46280  0.20240  Biso   1.000  H
  H101     1.0000 0.56950  0.40940  0.17070  Biso   1.000  H
  H102     1.0000 0.27500  0.62830  0.75020  Biso   1.000  H
  H103     1.0000 0.99300  0.61480  0.73160  Biso   1.000  H
  H104     1.0000 0.92560  0.46370  0.64850  Biso   1.000  H
  H105     1.0000 0.03640  0.46160  0.65390  Biso   1.000  H
  H106     1.0000 0.97080  0.46670  0.69440  Biso   1.000  H
  H107     1.0000 0.93960  0.55190  0.60010  Biso   1.000  H
  H108     1.0000 0.99760  0.60630  0.61590  Biso   1.000  H
  H109     1.0000 0.05050  0.54810  0.60450  Biso   1.000  H
  H110     1.0000 0.83630  0.55610  0.66380  Biso   1.000  H
  H111     1.0000 0.88020  0.55550  0.70990  Biso   1.000  H
  H112     1.0000 0.89030  0.61090  0.68170  Biso   1.000  H
  H113     1.0000 0.38440  0.58920  0.70380  Biso   1.000  H
  H114     1.0000 0.52790  0.56840  0.69990  Biso   1.000  H
  H115     1.0000 0.68390  0.56040  0.67640  Biso   1.000  H
  H116     1.0000 0.71750  0.51230  0.61230  Biso   1.000  H
  H117     1.0000 0.59500  0.47220  0.57180  Biso   1.000  H
  H118     1.0000 0.47440  0.45670  0.53730  Biso   1.000  H
  H119     1.0000 0.16580  0.34760  0.45640  Biso   1.000  H
  H120     1.0000 0.43060  0.40750  0.47740  Biso   1.000  H
  H121     1.0000 0.01340  0.33090  0.57830  Biso   1.000  H
  H122     1.0000 0.10910  0.30160  0.56400  Biso   1.000  H
  H123     1.0000 0.11080  0.35860  0.59210  Biso   1.000  H
  H124     1.0000 0.96380  0.42590  0.54790  Biso   1.000  H
  H125     1.0000 0.06180  0.45420  0.56020  Biso   1.000  H
  H126     1.0000 0.02620  0.45500  0.51260  Biso   1.000  H
  H127     1.0000 0.95660  0.33400  0.50700  Biso   1.000  H
  H128     1.0000 0.01530  0.36310  0.47040  Biso   1.000  H
  H129     1.0000 0.04930  0.30410  0.48960  Biso   1.000  H
  H130     1.0000 0.84180  0.77020  0.79720  Biso   1.000  H
  H131     1.0000 0.67730  0.77800  0.79620  Biso   1.000  H
  H132     1.0000 0.66140  0.68060  0.90160  Biso   1.000  H
  H133     1.0000 0.82590  0.67270  0.90260  Biso   1.000  H
  H134     1.0000 0.53350  0.73950  0.78350  Biso   1.000  H
  H135     1.0000 0.36960  0.75070  0.78120  Biso   1.000  H
  H136     1.0000 0.35950  0.74700  0.90970  Biso   1.000  H
  H137     1.0000 0.52350  0.73580  0.91200  Biso   1.000  H
  H138     1.0000 0.46780  0.33870  0.62560  Biso   1.000  H
  H139     1.0000 0.46800  0.30670  0.66960  Biso   1.000  H
  H140     1.0000 0.41250  0.27990  0.63050  Biso   1.000  H
  H141     1.0000 0.32110  0.24430  0.72890  Biso   1.000  H
  H142     1.0000 0.38790  0.24770  0.68880  Biso   1.000  H
  H143     1.0000 0.40050  0.29210  0.72700  Biso   1.000  H
  H144     1.0000 0.16530  0.28450  0.71360  Biso   1.000  H
  H145     1.0000 0.16940  0.35140  0.70500  Biso   1.000  H
  H146     1.0000 0.15750  0.30730  0.66670  Biso   1.000  H
  C1       1.0000 0.38940  0.17680  0.41320  Biso   1.000  C
  C2       1.0000 0.35870  0.14550  0.45238  Biso   1.000  C
  C3       1.0000 0.26370  0.14730  0.46460  Biso   1.000  C
  C4       1.0000 0.23390  0.11780  0.50070  Biso   1.000  C
  C5       1.0000 0.29910  0.08640  0.52460  Biso   1.000  C
  C6       1.0000 0.39410  0.08460  0.51230  Biso   1.000  C
  C7       1.0000 0.42400  0.11420  0.47620  Biso   1.000  C
  C8       1.0000 0.12580  0.11980  0.51420  Biso   1.000  C
  C9       1.0000 0.11400  0.14570  0.55830  Biso   1.000  C
  C10      1.0000 0.06710  0.15950  0.48370  Biso   1.000  C
  C11      1.0000 0.08360  0.05910  0.51140  Biso   1.000  C
  C12      1.0000 0.46880  0.05450  0.53530  Biso   1.000  C
  C13      1.0000 0.53660  0.00430  0.59360  Biso   1.000  C
  C14      1.0000 0.63080  0.00760  0.58030  Biso   1.000  C
  C15      1.0000 0.70190  0.98100  0.60400  Biso   1.000  C
  C16      1.0000 0.67870  0.95110  0.64090  Biso   1.000  C
  C17      1.0000 0.58450  0.94780  0.65410  Biso   1.000  C
  C18      1.0000 0.51350  0.97440  0.63050  Biso   1.000  C
  C19      1.0000 0.38480  0.93790  0.67090  Biso   1.000  C
  C20      1.0000 0.28470  0.93120  0.68340  Biso   1.000  C
  C21      1.0000 0.20800  0.95690  0.66294  Biso   1.000  C
  C22      1.0000 0.11570  0.94490  0.67620  Biso   1.000  C
  C23      1.0000 0.10030  0.90740  0.71000  Biso   1.000  C
  C24      1.0000 0.17710  0.88170  0.73041  Biso   1.000  C
  C25      1.0000 0.26930  0.89370  0.71712  Biso   1.000  C
  C26      1.0000 0.02650  0.97100  0.65310  Biso   1.000  C
  C27      1.0000 0.02830  0.03540  0.65680  Biso   1.000  C
  C28      1.0000 0.02470  0.95170  0.60670  Biso   1.000  C
  C29      1.0000 0.93460  0.95100  0.67290  Biso   1.000  C
  C30      1.0000 0.15520  0.84230  0.76720  Biso   1.000  C
  C31      1.0000 0.38510  0.17000  0.28310  Biso   1.000  C
  C32      1.0000 0.36860  0.12790  0.24649  Biso   1.000  C
  C33      1.0000 0.27620  0.11260  0.23512  Biso   1.000  C
  C34      1.0000 0.26050  0.07400  0.20120  Biso   1.000  C
  C35      1.0000 0.33710  0.05060  0.17872  Biso   1.000  C
  C36      1.0000 0.42940  0.06590  0.19010  Biso   1.000  C
  C37      1.0000 0.44520  0.10460  0.22400  Biso   1.000  C
  C38      1.0000 0.51730  0.04520  0.16270  Biso   1.000  C
  C39      1.0000 0.52160  0.97790  0.16510  Biso   1.000  C
  C40      1.0000 0.50640  0.06470  0.11650  Biso   1.000  C
  C41      1.0000 0.61150  0.06920  0.18130  Biso   1.000  C
  C42      1.0000 0.16010  0.06590  0.18980  Biso   1.000  C
  C43      1.0000 0.03210  0.02510  0.14990  Biso   1.000  C
  C44      1.0000 0.95870  0.04910  0.17422  Biso   1.000  C
  C45      1.0000 0.86520  0.04430  0.16010  Biso   1.000  C
  C46      1.0000 0.84510  0.01550  0.12180  Biso   1.000  C
  C47      1.0000 0.91850  0.99150  0.09750  Biso   1.000  C
  C48      1.0000 0.01200  0.99630  0.11150  Biso   1.000  C
  C49      1.0000 0.08390  0.95180  0.05090  Biso   1.000  C
  C50      1.0000 0.15930  0.92300  0.02680  Biso   1.000  C
  C51      1.0000 0.25240  0.91530  0.04063  Biso   1.000  C
  C52      1.0000 0.31790  0.88710  0.01430  Biso   1.000  C
  C53      1.0000 0.29030  0.86650  0.97408  Biso   1.000  C
  C54      1.0000 0.19720  0.87410  0.96026  Biso   1.000  C
  C55      1.0000 0.13170  0.90240  0.98660  Biso   1.000  C
  C56      1.0000 0.42180  0.87390  0.02950  Biso   1.000  C
  C57      1.0000 0.42220  0.83800  0.06970  Biso   1.000  C
  C58      1.0000 0.47230  0.93290  0.03840  Biso   1.000  C
  C59      1.0000 0.48060  0.84070  0.99600  Biso   1.000  C
  C60      1.0000 0.16720  0.84870  0.91760  Biso   1.000  C
  C61      1.0000 0.69440  0.25220  0.31809  Biso   1.000  C
  C62      1.0000 0.79290  0.25690  0.31750  Biso   1.000  C
  C63      1.0000 0.84700  0.23010  0.34880  Biso   1.000  C
  C64      1.0000 0.80250  0.19850  0.38066  Biso   1.000  C
  C65      1.0000 0.70390  0.19380  0.38125  Biso   1.000  C
  C66      1.0000 0.95530  0.23650  0.34801  Biso   1.000  C
  C67      1.0000 0.00140  0.24100  0.30884  Biso   1.000  C
  C68      1.0000 0.09960  0.24770  0.30746  Biso   1.000  C
  C69      1.0000 0.10560  0.24550  0.38444  Biso   1.000  C
  C70      1.0000 0.00740  0.23880  0.38582  Biso   1.000  C
  C71      1.0000 0.06900  0.81550  0.14470  Biso   1.000  C
  C72      1.0000 0.16300  0.85060  0.15900  Biso   1.000  C
  C73      1.0000 0.14500  0.77000  0.21040  Biso   1.000  C
  C74      1.0000 0.31330  0.81360  0.19410  Biso   1.000  C
  C75      1.0000 0.11060  0.67680  0.91320  Biso   1.000  C
  C76      1.0000 0.14130  0.64550  0.95238  Biso   1.000  C
  C77      1.0000 0.23630  0.64730  0.96460  Biso   1.000  C
  C78      1.0000 0.26610  0.61780  0.00070  Biso   1.000  C
  C79      1.0000 0.20090  0.58640  0.02460  Biso   1.000  C
  C80      1.0000 0.10590  0.58460  0.01230  Biso   1.000  C
  C81      1.0000 0.07600  0.61420  0.97620  Biso   1.000  C
  C82      1.0000 0.37420  0.61980  0.01420  Biso   1.000  C
  C83      1.0000 0.38600  0.64570  0.05830  Biso   1.000  C
  C84      1.0000 0.43290  0.65950  0.98370  Biso   1.000  C
  C85      1.0000 0.41640  0.55910  0.01140  Biso   1.000  C
  C86      1.0000 0.03120  0.55450  0.03530  Biso   1.000  C
  C87      1.0000 0.96340  0.50430  0.09360  Biso   1.000  C
  C88      1.0000 0.86920  0.50760  0.08030  Biso   1.000  C
  C89      1.0000 0.79810  0.48100  0.10400  Biso   1.000  C
  C90      1.0000 0.82130  0.45110  0.14090  Biso   1.000  C
  C91      1.0000 0.91550  0.44780  0.15410  Biso   1.000  C
  C92      1.0000 0.98650  0.47440  0.13050  Biso   1.000  C
  C93      1.0000 0.11520  0.43790  0.17090  Biso   1.000  C
  C94      1.0000 0.21530  0.43120  0.18340  Biso   1.000  C
  C95      1.0000 0.29200  0.45690  0.16294  Biso   1.000  C
  C96      1.0000 0.38430  0.44490  0.17620  Biso   1.000  C
  C97      1.0000 0.39970  0.40740  0.21000  Biso   1.000  C
  C98      1.0000 0.32290  0.38170  0.23041  Biso   1.000  C
  C99      1.0000 0.23070  0.39370  0.21712  Biso   1.000  C
  C100     1.0000 0.47350  0.47100  0.15310  Biso   1.000  C
  C101     1.0000 0.47170  0.53540  0.15680  Biso   1.000  C
  C102     1.0000 0.47530  0.45170  0.10670  Biso   1.000  C
  C103     1.0000 0.56540  0.45100  0.17290  Biso   1.000  C
  C104     1.0000 0.34480  0.34230  0.26720  Biso   1.000  C
  C105     1.0000 0.11490  0.67000  0.78310  Biso   1.000  C
  C106     1.0000 0.13140  0.62790  0.74649  Biso   1.000  C
  C107     1.0000 0.22380  0.61260  0.73512  Biso   1.000  C
  C108     1.0000 0.23950  0.57400  0.70120  Biso   1.000  C
  C109     1.0000 0.16290  0.55060  0.67872  Biso   1.000  C
  C110     1.0000 0.07060  0.56590  0.69010  Biso   1.000  C
  C111     1.0000 0.05480  0.60460  0.72400  Biso   1.000  C
  C112     1.0000 0.98270  0.54520  0.66270  Biso   1.000  C
  C113     1.0000 0.97840  0.47790  0.66510  Biso   1.000  C
  C114     1.0000 0.99360  0.56470  0.61650  Biso   1.000  C
  C115     1.0000 0.88850  0.56920  0.68130  Biso   1.000  C
  C116     1.0000 0.33990  0.56590  0.68980  Biso   1.000  C
  C117     1.0000 0.46790  0.52510  0.64990  Biso   1.000  C
  C118     1.0000 0.54130  0.54910  0.67422  Biso   1.000  C
  C119     1.0000 0.63480  0.54430  0.66010  Biso   1.000  C
  C120     1.0000 0.65490  0.51550  0.62180  Biso   1.000  C
  C121     1.0000 0.58150  0.49150  0.59750  Biso   1.000  C
  C122     1.0000 0.48800  0.49630  0.61150  Biso   1.000  C
  C123     1.0000 0.41610  0.45180  0.55090  Biso   1.000  C
  C124     1.0000 0.34070  0.42300  0.52680  Biso   1.000  C
  C125     1.0000 0.24760  0.41530  0.54063  Biso   1.000  C
  C126     1.0000 0.18210  0.38710  0.51430  Biso   1.000  C
  C127     1.0000 0.20970  0.36650  0.47408  Biso   1.000  C
  C128     1.0000 0.30280  0.37410  0.46026  Biso   1.000  C
  C129     1.0000 0.36830  0.40240  0.48660  Biso   1.000  C
  C130     1.0000 0.07820  0.37390  0.52950  Biso   1.000  C
  C131     1.0000 0.07780  0.33800  0.56970  Biso   1.000  C
  C132     1.0000 0.02770  0.43290  0.53840  Biso   1.000  C
  C133     1.0000 0.01940  0.34070  0.49600  Biso   1.000  C
  C134     1.0000 0.33280  0.34870  0.41760  Biso   1.000  C
  C135     1.0000 0.80560  0.75220  0.81809  Biso   1.000  C
  C136     1.0000 0.70710  0.75690  0.81750  Biso   1.000  C
  C137     1.0000 0.65300  0.73010  0.84880  Biso   1.000  C
  C138     1.0000 0.69750  0.69850  0.88066  Biso   1.000  C
  C139     1.0000 0.79610  0.69380  0.88125  Biso   1.000  C
  C140     1.0000 0.54470  0.73650  0.84801  Biso   1.000  C
  C141     1.0000 0.49860  0.74100  0.80884  Biso   1.000  C
  C142     1.0000 0.40040  0.74770  0.80746  Biso   1.000  C
  C143     1.0000 0.39440  0.74550  0.88444  Biso   1.000  C
  C144     1.0000 0.49260  0.73880  0.88582  Biso   1.000  C
  C145     1.0000 0.43100  0.31550  0.64470  Biso   1.000  C
  C146     1.0000 0.33700  0.35060  0.65900  Biso   1.000  C
  C147     1.0000 0.35500  0.27000  0.71040  Biso   1.000  C
  C148     1.0000 0.18670  0.31360  0.69410  Biso   1.000  C
  N1       1.0000 0.64980  0.22060  0.34997  Biso   1.000  N
  N2       1.0000 0.46010  0.02990  0.57210  Biso   1.000  N
  N3       1.0000 0.15170  0.24990  0.34526  Biso   1.000  N
  N4       1.0000 0.41620  0.97250  0.64200  Biso   1.000  N
  N5       1.0000 0.12870  0.02830  0.16150  Biso   1.000  N
  N6       1.0000 0.09180  0.97120  0.08990  Biso   1.000  N
  N7       1.0000 0.21280  0.81020  0.18980  Biso   1.000  N
  N8       1.0000 0.85020  0.72060  0.84997  Biso   1.000  N
  N9       1.0000 0.03990  0.52990  0.07210  Biso   1.000  N
  N10      1.0000 0.34830  0.74990  0.84526  Biso   1.000  N
  N11      1.0000 0.08380  0.47250  0.14200  Biso   1.000  N
  N12      1.0000 0.37130  0.52830  0.66150  Biso   1.000  N
  N13      1.0000 0.40820  0.47120  0.58990  Biso   1.000  N
  N14      1.0000 0.28720  0.31020  0.68980  Biso   1.000  N
  O1       1.0000 0.47650  0.17510  0.40180  Biso   1.000  O
  O2       1.0000 0.32450  0.20460  0.39280  Biso   1.000  O
  O3       1.0000 0.26730  0.05540  0.55760  Biso   1.000  O
  O4       1.0000 0.22000  0.99420  0.63160  Biso   1.000  O
  O5       1.0000 0.06830  0.83100  0.77320  Biso   1.000  O
  O6       1.0000 0.22220  0.82270  0.79020  Biso   1.000  O
  O7       1.0000 0.47300  0.17400  0.29590  Biso   1.000  O
  O8       1.0000 0.31750  0.19880  0.29810  Biso   1.000  O
  O9       1.0000 0.32490  0.01180  0.14740  Biso   1.000  O
  O10      1.0000 0.28110  0.93320  0.07840  Biso   1.000  O
  O11      1.0000 0.22680  0.82790  0.89280  Biso   1.000  O
  O12      1.0000 0.07690  0.84850  0.91030  Biso   1.000  O
  O13      1.0000 0.44590  0.28960  0.34620  Biso   1.000  O
  O14      1.0000 0.34600  0.10550  0.64450  Biso   1.000  O
  O15      1.0000 0.20260  0.89850  0.16520  Biso   1.000  O
  O16      1.0000 0.02350  0.67510  0.90180  Biso   1.000  O
  O17      1.0000 0.17550  0.70460  0.89280  Biso   1.000  O
  O18      1.0000 0.23270  0.55540  0.05760  Biso   1.000  O
  O19      1.0000 0.28000  0.49420  0.13160  Biso   1.000  O
  O20      1.0000 0.43170  0.33100  0.27320  Biso   1.000  O
  O21      1.0000 0.27780  0.32270  0.29020  Biso   1.000  O
  O22      1.0000 0.02700  0.67400  0.79590  Biso   1.000  O
  O23      1.0000 0.18250  0.69880  0.79810  Biso   1.000  O
  O24      1.0000 0.17510  0.51180  0.64740  Biso   1.000  O
  O25      1.0000 0.21890  0.43320  0.57840  Biso   1.000  O
  O26      1.0000 0.27320  0.32790  0.39280  Biso   1.000  O
  O27      1.0000 0.42310  0.34850  0.41030  Biso   1.000  O
  O28      1.0000 0.05410  0.78960  0.84620  Biso   1.000  O
  O29      1.0000 0.15400  0.60550  0.14450  Biso   1.000  O
  O30      1.0000 0.29740  0.39850  0.66520  Biso   1.000  O
  Zn9      1.0000 0.79873  0.23208  0.15743  Biso   1.000  Zn
  Zn10     1.0000 0.00560  0.28582  0.15038  Biso   1.000  Zn
  Zn11     1.0000 0.83398  0.46958  0.89157  Biso   1.000  Zn
  Zn12     1.0000 0.71250  0.53087  0.37314  Biso   1.000  Zn
  Zn13     1.0000 0.70127  0.73208  0.65743  Biso   1.000  Zn
  Zn14     1.0000 0.49440  0.78582  0.65038  Biso   1.000  Zn
  Zn15     1.0000 0.66602  0.96958  0.39157  Biso   1.000  Zn
  Zn16     1.0000 0.78750  0.03087  0.87314  Biso   1.000  Zn
  H147     1.0000 0.72010  0.33180  0.05140  Biso   1.000  H
  H148     1.0000 0.98750  0.38710  0.03190  Biso   1.000  H
  H149     1.0000 0.64950  0.37670  0.92160  Biso   1.000  H
  H150     1.0000 0.54790  0.35450  0.93400  Biso   1.000  H
  H151     1.0000 0.63700  0.31500  0.94140  Biso   1.000  H
  H152     1.0000 0.50160  0.34030  0.00760  Biso   1.000  H
  H153     1.0000 0.57200  0.35510  0.04510  Biso   1.000  H
  H154     1.0000 0.59180  0.30160  0.01480  Biso   1.000  H
  H155     1.0000 0.61890  0.46640  0.97050  Biso   1.000  H
  H156     1.0000 0.58680  0.45500  0.01770  Biso   1.000  H
  H157     1.0000 0.51840  0.43970  0.97950  Biso   1.000  H
  H158     1.0000 0.02830  0.44740  0.97770  Biso   1.000  H
  H159     1.0000 0.14630  0.47240  0.94440  Biso   1.000  H
  H160     1.0000 0.26490  0.51690  0.90490  Biso   1.000  H
  H161     1.0000 0.22630  0.56670  0.84330  Biso   1.000  H
  H162     1.0000 0.06900  0.57220  0.82120  Biso   1.000  H
  H163     1.0000 0.92940  0.58470  0.81500  Biso   1.000  H
  H164     1.0000 0.53860  0.60060  0.78120  Biso   1.000  H
  H165     1.0000 0.82070  0.62350  0.76920  Biso   1.000  H
  H166     1.0000 0.47360  0.44890  0.85730  Biso   1.000  H
  H167     1.0000 0.58510  0.45010  0.85630  Biso   1.000  H
  H168     1.0000 0.52730  0.45320  0.81350  Biso   1.000  H
  H169     1.0000 0.47000  0.53200  0.90710  Biso   1.000  H
  H170     1.0000 0.52130  0.59000  0.89510  Biso   1.000  H
  H171     1.0000 0.58140  0.53530  0.90730  Biso   1.000  H
  H172     1.0000 0.38200  0.53200  0.84200  Biso   1.000  H
  H173     1.0000 0.43270  0.53720  0.79760  Biso   1.000  H
  H174     1.0000 0.43050  0.59060  0.82930  Biso   1.000  H
  H175     1.0000 0.72500  0.37170  0.24980  Biso   1.000  H
  H176     1.0000 0.00700  0.38520  0.26840  Biso   1.000  H
  H177     1.0000 0.07440  0.53630  0.35150  Biso   1.000  H
  H178     1.0000 0.96360  0.53840  0.34610  Biso   1.000  H
  H179     1.0000 0.02920  0.53330  0.30560  Biso   1.000  H
  H180     1.0000 0.06040  0.44810  0.39990  Biso   1.000  H
  H181     1.0000 0.00240  0.39370  0.38410  Biso   1.000  H
  H182     1.0000 0.94950  0.45190  0.39550  Biso   1.000  H
  H183     1.0000 0.16370  0.44390  0.33620  Biso   1.000  H
  H184     1.0000 0.11980  0.44450  0.29010  Biso   1.000  H
  H185     1.0000 0.10970  0.38910  0.31830  Biso   1.000  H
  H186     1.0000 0.61560  0.41080  0.29620  Biso   1.000  H
  H187     1.0000 0.47210  0.43160  0.30010  Biso   1.000  H
  H188     1.0000 0.31610  0.43960  0.32360  Biso   1.000  H
  H189     1.0000 0.28250  0.48770  0.38770  Biso   1.000  H
  H190     1.0000 0.40500  0.52780  0.42820  Biso   1.000  H
  H191     1.0000 0.52560  0.54330  0.46270  Biso   1.000  H
  H192     1.0000 0.83420  0.65240  0.54360  Biso   1.000  H
  H193     1.0000 0.56940  0.59250  0.52260  Biso   1.000  H
  H194     1.0000 0.98660  0.66910  0.42170  Biso   1.000  H
  H195     1.0000 0.89090  0.69840  0.43600  Biso   1.000  H
  H196     1.0000 0.88920  0.64140  0.40790  Biso   1.000  H
  H197     1.0000 0.03620  0.57410  0.45210  Biso   1.000  H
  H198     1.0000 0.93820  0.54580  0.43980  Biso   1.000  H
  H199     1.0000 0.97380  0.54500  0.48740  Biso   1.000  H
  H200     1.0000 0.04340  0.66600  0.49300  Biso   1.000  H
  H201     1.0000 0.98470  0.63690  0.52960  Biso   1.000  H
  H202     1.0000 0.95070  0.69590  0.51040  Biso   1.000  H
  H203     1.0000 0.15820  0.22980  0.20280  Biso   1.000  H
  H204     1.0000 0.32270  0.22200  0.20380  Biso   1.000  H
  H205     1.0000 0.33860  0.31940  0.09840  Biso   1.000  H
  H206     1.0000 0.17410  0.32730  0.09740  Biso   1.000  H
  H207     1.0000 0.46650  0.26050  0.21650  Biso   1.000  H
  H208     1.0000 0.63040  0.24930  0.21880  Biso   1.000  H
  H209     1.0000 0.64050  0.25300  0.09030  Biso   1.000  H
  H210     1.0000 0.47650  0.26420  0.08800  Biso   1.000  H
  H211     1.0000 0.53220  0.66130  0.37440  Biso   1.000  H
  H212     1.0000 0.53200  0.69330  0.33040  Biso   1.000  H
  H213     1.0000 0.58750  0.72010  0.36950  Biso   1.000  H
  H214     1.0000 0.67890  0.75570  0.27110  Biso   1.000  H
  H215     1.0000 0.61210  0.75230  0.31120  Biso   1.000  H
  H216     1.0000 0.59950  0.70790  0.27300  Biso   1.000  H
  H217     1.0000 0.83470  0.71550  0.28640  Biso   1.000  H
  H218     1.0000 0.83060  0.64860  0.29500  Biso   1.000  H
  H219     1.0000 0.84250  0.69270  0.33330  Biso   1.000  H
  H220     1.0000 0.77990  0.83180  0.55140  Biso   1.000  H
  H221     1.0000 0.51250  0.88710  0.53190  Biso   1.000  H
  H222     1.0000 0.85050  0.87670  0.42160  Biso   1.000  H
  H223     1.0000 0.95210  0.85450  0.43400  Biso   1.000  H
  H224     1.0000 0.86300  0.81500  0.44140  Biso   1.000  H
  H225     1.0000 0.99840  0.84030  0.50760  Biso   1.000  H
  H226     1.0000 0.92800  0.85510  0.54510  Biso   1.000  H
  H227     1.0000 0.90820  0.80160  0.51480  Biso   1.000  H
  H228     1.0000 0.88110  0.96640  0.47050  Biso   1.000  H
  H229     1.0000 0.91320  0.95500  0.51770  Biso   1.000  H
  H230     1.0000 0.98160  0.93970  0.47950  Biso   1.000  H
  H231     1.0000 0.47170  0.94740  0.47770  Biso   1.000  H
  H232     1.0000 0.35370  0.97240  0.44440  Biso   1.000  H
  H233     1.0000 0.23510  0.01690  0.40490  Biso   1.000  H
  H234     1.0000 0.27370  0.06670  0.34330  Biso   1.000  H
  H235     1.0000 0.43100  0.07220  0.32120  Biso   1.000  H
  H236     1.0000 0.57060  0.08470  0.31500  Biso   1.000  H
  H237     1.0000 0.96140  0.10060  0.28120  Biso   1.000  H
  H238     1.0000 0.67930  0.12350  0.26920  Biso   1.000  H
  H239     1.0000 0.02640  0.94890  0.35730  Biso   1.000  H
  H240     1.0000 0.91490  0.95010  0.35630  Biso   1.000  H
  H241     1.0000 0.97270  0.95320  0.31350  Biso   1.000  H
  H242     1.0000 0.03000  0.03200  0.40710  Biso   1.000  H
  H243     1.0000 0.97870  0.09000  0.39510  Biso   1.000  H
  H244     1.0000 0.91860  0.03530  0.40730  Biso   1.000  H
  H245     1.0000 0.11800  0.03200  0.34200  Biso   1.000  H
  H246     1.0000 0.06730  0.03720  0.29760  Biso   1.000  H
  H247     1.0000 0.06950  0.09060  0.32930  Biso   1.000  H
  H248     1.0000 0.77500  0.87170  0.74980  Biso   1.000  H
  H249     1.0000 0.49300  0.88520  0.76840  Biso   1.000  H
  H250     1.0000 0.42560  0.03630  0.85150  Biso   1.000  H
  H251     1.0000 0.53640  0.03840  0.84610  Biso   1.000  H
  H252     1.0000 0.47080  0.03330  0.80560  Biso   1.000  H
  H253     1.0000 0.43960  0.94810  0.89990  Biso   1.000  H
  H254     1.0000 0.49760  0.89370  0.88410  Biso   1.000  H
  H255     1.0000 0.55050  0.95190  0.89550  Biso   1.000  H
  H256     1.0000 0.33630  0.94390  0.83620  Biso   1.000  H
  H257     1.0000 0.38020  0.94450  0.79010  Biso   1.000  H
  H258     1.0000 0.39030  0.88910  0.81830  Biso   1.000  H
  H259     1.0000 0.88440  0.91080  0.79620  Biso   1.000  H
  H260     1.0000 0.02790  0.93160  0.80010  Biso   1.000  H
  H261     1.0000 0.18390  0.93960  0.82360  Biso   1.000  H
  H262     1.0000 0.21750  0.98770  0.88770  Biso   1.000  H
  H263     1.0000 0.09500  0.02780  0.92820  Biso   1.000  H
  H264     1.0000 0.97440  0.04330  0.96270  Biso   1.000  H
  H265     1.0000 0.66580  0.15240  0.04360  Biso   1.000  H
  H266     1.0000 0.93060  0.09250  0.02260  Biso   1.000  H
  H267     1.0000 0.51340  0.16910  0.92170  Biso   1.000  H
  H268     1.0000 0.60910  0.19840  0.93600  Biso   1.000  H
  H269     1.0000 0.61080  0.14140  0.90790  Biso   1.000  H
  H270     1.0000 0.46380  0.07410  0.95210  Biso   1.000  H
  H271     1.0000 0.56180  0.04580  0.93980  Biso   1.000  H
  H272     1.0000 0.52620  0.04500  0.98740  Biso   1.000  H
  H273     1.0000 0.45660  0.16600  0.99300  Biso   1.000  H
  H274     1.0000 0.51530  0.13690  0.02960  Biso   1.000  H
  H275     1.0000 0.54930  0.19590  0.01040  Biso   1.000  H
  H276     1.0000 0.34180  0.72980  0.70280  Biso   1.000  H
  H277     1.0000 0.17730  0.72200  0.70380  Biso   1.000  H
  H278     1.0000 0.16140  0.81940  0.59840  Biso   1.000  H
  H279     1.0000 0.32590  0.82730  0.59740  Biso   1.000  H
  H280     1.0000 0.03350  0.76050  0.71650  Biso   1.000  H
  H281     1.0000 0.86960  0.74930  0.71880  Biso   1.000  H
  H282     1.0000 0.85950  0.75300  0.59030  Biso   1.000  H
  H283     1.0000 0.02350  0.76420  0.58800  Biso   1.000  H
  H284     1.0000 0.96780  0.16130  0.87440  Biso   1.000  H
  H285     1.0000 0.96800  0.19330  0.83040  Biso   1.000  H
  H286     1.0000 0.91250  0.22010  0.86950  Biso   1.000  H
  H287     1.0000 0.82110  0.25570  0.77110  Biso   1.000  H
  H288     1.0000 0.88790  0.25230  0.81120  Biso   1.000  H
  H289     1.0000 0.90050  0.20790  0.77300  Biso   1.000  H
  H290     1.0000 0.66530  0.21550  0.78640  Biso   1.000  H
  H291     1.0000 0.66940  0.14860  0.79500  Biso   1.000  H
  H292     1.0000 0.65750  0.19270  0.83330  Biso   1.000  H
  C149     1.0000 0.88940  0.32320  0.08680  Biso   1.000  C
  C150     1.0000 0.85870  0.35450  0.04762  Biso   1.000  C
  C151     1.0000 0.76370  0.35270  0.03540  Biso   1.000  C
  C152     1.0000 0.73390  0.38220  0.99930  Biso   1.000  C
  C153     1.0000 0.79910  0.41360  0.97540  Biso   1.000  C
  C154     1.0000 0.89410  0.41540  0.98770  Biso   1.000  C
  C155     1.0000 0.92400  0.38580  0.02380  Biso   1.000  C
  C156     1.0000 0.62580  0.38020  0.98580  Biso   1.000  C
  C157     1.0000 0.61400  0.35430  0.94170  Biso   1.000  C
  C158     1.0000 0.56710  0.34050  0.01630  Biso   1.000  C
  C159     1.0000 0.58360  0.44090  0.98860  Biso   1.000  C
  C160     1.0000 0.96880  0.44550  0.96470  Biso   1.000  C
  C161     1.0000 0.03660  0.49570  0.90640  Biso   1.000  C
  C162     1.0000 0.13080  0.49240  0.91970  Biso   1.000  C
  C163     1.0000 0.20190  0.51900  0.89600  Biso   1.000  C
  C164     1.0000 0.17870  0.54890  0.85910  Biso   1.000  C
  C165     1.0000 0.08450  0.55220  0.84590  Biso   1.000  C
  C166     1.0000 0.01350  0.52560  0.86950  Biso   1.000  C
  C167     1.0000 0.88480  0.56210  0.82910  Biso   1.000  C
  C168     1.0000 0.78470  0.56880  0.81660  Biso   1.000  C
  C169     1.0000 0.70800  0.54310  0.83706  Biso   1.000  C
  C170     1.0000 0.61570  0.55510  0.82380  Biso   1.000  C
  C171     1.0000 0.60030  0.59260  0.79000  Biso   1.000  C
  C172     1.0000 0.67710  0.61830  0.76959  Biso   1.000  C
  C173     1.0000 0.76930  0.60630  0.78288  Biso   1.000  C
  C174     1.0000 0.52650  0.52900  0.84690  Biso   1.000  C
  C175     1.0000 0.52830  0.46460  0.84320  Biso   1.000  C
  C176     1.0000 0.52470  0.54830  0.89330  Biso   1.000  C
  C177     1.0000 0.43460  0.54900  0.82710  Biso   1.000  C
  C178     1.0000 0.65520  0.65770  0.73280  Biso   1.000  C
  C179     1.0000 0.88510  0.33000  0.21690  Biso   1.000  C
  C180     1.0000 0.86860  0.37210  0.25351  Biso   1.000  C
  C181     1.0000 0.77620  0.38740  0.26488  Biso   1.000  C
  C182     1.0000 0.76050  0.42600  0.29880  Biso   1.000  C
  C183     1.0000 0.83710  0.44940  0.32128  Biso   1.000  C
  C184     1.0000 0.92940  0.43410  0.30990  Biso   1.000  C
  C185     1.0000 0.94520  0.39540  0.27600  Biso   1.000  C
  C186     1.0000 0.01730  0.45480  0.33730  Biso   1.000  C
  C187     1.0000 0.02160  0.52210  0.33490  Biso   1.000  C
  C188     1.0000 0.00640  0.43530  0.38350  Biso   1.000  C
  C189     1.0000 0.11150  0.43080  0.31870  Biso   1.000  C
  C190     1.0000 0.66010  0.43410  0.31020  Biso   1.000  C
  C191     1.0000 0.53210  0.47490  0.35010  Biso   1.000  C
  C192     1.0000 0.45870  0.45090  0.32578  Biso   1.000  C
  C193     1.0000 0.36520  0.45570  0.33990  Biso   1.000  C
  C194     1.0000 0.34510  0.48450  0.37820  Biso   1.000  C
  C195     1.0000 0.41850  0.50850  0.40250  Biso   1.000  C
  C196     1.0000 0.51200  0.50370  0.38850  Biso   1.000  C
  C197     1.0000 0.58390  0.54820  0.44910  Biso   1.000  C
  C198     1.0000 0.65930  0.57700  0.47320  Biso   1.000  C
  C199     1.0000 0.75240  0.58470  0.45937  Biso   1.000  C
  C200     1.0000 0.81790  0.61290  0.48570  Biso   1.000  C
  C201     1.0000 0.79030  0.63350  0.52592  Biso   1.000  C
  C202     1.0000 0.69720  0.62590  0.53974  Biso   1.000  C
  C203     1.0000 0.63170  0.59760  0.51340  Biso   1.000  C
  C204     1.0000 0.92180  0.62610  0.47050  Biso   1.000  C
  C205     1.0000 0.92220  0.66200  0.43030  Biso   1.000  C
  C206     1.0000 0.97230  0.56710  0.46160  Biso   1.000  C
  C207     1.0000 0.98060  0.65930  0.50400  Biso   1.000  C
  C208     1.0000 0.66720  0.65130  0.58240  Biso   1.000  C
  C209     1.0000 0.19440  0.24780  0.18191  Biso   1.000  C
  C210     1.0000 0.29290  0.24310  0.18250  Biso   1.000  C
  C211     1.0000 0.34700  0.26990  0.15120  Biso   1.000  C
  C212     1.0000 0.30250  0.30150  0.11934  Biso   1.000  C
  C213     1.0000 0.20390  0.30620  0.11875  Biso   1.000  C
  C214     1.0000 0.45530  0.26350  0.15199  Biso   1.000  C
  C215     1.0000 0.50140  0.25900  0.19116  Biso   1.000  C
  C216     1.0000 0.59960  0.25230  0.19254  Biso   1.000  C
  C217     1.0000 0.60560  0.25450  0.11556  Biso   1.000  C
  C218     1.0000 0.50740  0.26120  0.11418  Biso   1.000  C
  C219     1.0000 0.56900  0.68450  0.35530  Biso   1.000  C
  C220     1.0000 0.66300  0.64940  0.34100  Biso   1.000  C
  C221     1.0000 0.64500  0.73000  0.28960  Biso   1.000  C
  C222     1.0000 0.81330  0.68640  0.30590  Biso   1.000  C
  C223     1.0000 0.61060  0.82320  0.58680  Biso   1.000  C
  C224     1.0000 0.64130  0.85450  0.54762  Biso   1.000  C
  C225     1.0000 0.73630  0.85270  0.53540  Biso   1.000  C
  C226     1.0000 0.76610  0.88220  0.49930  Biso   1.000  C
  C227     1.0000 0.70090  0.91360  0.47540  Biso   1.000  C
  C228     1.0000 0.60590  0.91540  0.48770  Biso   1.000  C
  C229     1.0000 0.57600  0.88580  0.52380  Biso   1.000  C
  C230     1.0000 0.87420  0.88020  0.48580  Biso   1.000  C
  C231     1.0000 0.88600  0.85430  0.44170  Biso   1.000  C
  C232     1.0000 0.93290  0.84050  0.51630  Biso   1.000  C
  C233     1.0000 0.91640  0.94090  0.48860  Biso   1.000  C
  C234     1.0000 0.53120  0.94550  0.46470  Biso   1.000  C
  C235     1.0000 0.46340  0.99570  0.40640  Biso   1.000  C
  C236     1.0000 0.36920  0.99240  0.41970  Biso   1.000  C
  C237     1.0000 0.29810  0.01900  0.39600  Biso   1.000  C
  C238     1.0000 0.32130  0.04890  0.35910  Biso   1.000  C
  C239     1.0000 0.41550  0.05220  0.34590  Biso   1.000  C
  C240     1.0000 0.48650  0.02560  0.36950  Biso   1.000  C
  C241     1.0000 0.61520  0.06210  0.32910  Biso   1.000  C
  C242     1.0000 0.71530  0.06880  0.31660  Biso   1.000  C
  C243     1.0000 0.79200  0.04310  0.33706  Biso   1.000  C
  C244     1.0000 0.88430  0.05510  0.32380  Biso   1.000  C
  C245     1.0000 0.89970  0.09260  0.29000  Biso   1.000  C
  C246     1.0000 0.82290  0.11830  0.26959  Biso   1.000  C
  C247     1.0000 0.73070  0.10630  0.28288  Biso   1.000  C
  C248     1.0000 0.97350  0.02900  0.34690  Biso   1.000  C
  C249     1.0000 0.97170  0.96460  0.34320  Biso   1.000  C
  C250     1.0000 0.97530  0.04830  0.39330  Biso   1.000  C
  C251     1.0000 0.06540  0.04900  0.32710  Biso   1.000  C
  C252     1.0000 0.84480  0.15770  0.23280  Biso   1.000  C
  C253     1.0000 0.61490  0.83000  0.71690  Biso   1.000  C
  C254     1.0000 0.63140  0.87210  0.75351  Biso   1.000  C
  C255     1.0000 0.72380  0.88740  0.76488  Biso   1.000  C
  C256     1.0000 0.73950  0.92600  0.79880  Biso   1.000  C
  C257     1.0000 0.66290  0.94940  0.82128  Biso   1.000  C
  C258     1.0000 0.57060  0.93410  0.80990  Biso   1.000  C
  C259     1.0000 0.55480  0.89540  0.77600  Biso   1.000  C
  C260     1.0000 0.48270  0.95480  0.83730  Biso   1.000  C
  C261     1.0000 0.47840  0.02210  0.83490  Biso   1.000  C
  C262     1.0000 0.49360  0.93530  0.88350  Biso   1.000  C
  C263     1.0000 0.38850  0.93080  0.81870  Biso   1.000  C
  C264     1.0000 0.83990  0.93410  0.81020  Biso   1.000  C
  C265     1.0000 0.96790  0.97490  0.85010  Biso   1.000  C
  C266     1.0000 0.04130  0.95090  0.82578  Biso   1.000  C
  C267     1.0000 0.13480  0.95570  0.83990  Biso   1.000  C
  C268     1.0000 0.15490  0.98450  0.87820  Biso   1.000  C
  C269     1.0000 0.08150  0.00850  0.90250  Biso   1.000  C
  C270     1.0000 0.98800  0.00370  0.88850  Biso   1.000  C
  C271     1.0000 0.91610  0.04820  0.94910  Biso   1.000  C
  C272     1.0000 0.84070  0.07700  0.97320  Biso   1.000  C
  C273     1.0000 0.74760  0.08470  0.95937  Biso   1.000  C
  C274     1.0000 0.68210  0.11290  0.98570  Biso   1.000  C
  C275     1.0000 0.70970  0.13350  0.02592  Biso   1.000  C
  C276     1.0000 0.80280  0.12590  0.03974  Biso   1.000  C
  C277     1.0000 0.86830  0.09760  0.01340  Biso   1.000  C
  C278     1.0000 0.57820  0.12610  0.97050  Biso   1.000  C
  C279     1.0000 0.57780  0.16200  0.93030  Biso   1.000  C
  C280     1.0000 0.52770  0.06710  0.96160  Biso   1.000  C
  C281     1.0000 0.51940  0.15930  0.00400  Biso   1.000  C
  C282     1.0000 0.83280  0.15130  0.08240  Biso   1.000  C
  C283     1.0000 0.30560  0.74780  0.68191  Biso   1.000  C
  C284     1.0000 0.20710  0.74310  0.68250  Biso   1.000  C
  C285     1.0000 0.15300  0.76990  0.65120  Biso   1.000  C
  C286     1.0000 0.19750  0.80150  0.61934  Biso   1.000  C
  C287     1.0000 0.29610  0.80620  0.61875  Biso   1.000  C
  C288     1.0000 0.04470  0.76350  0.65199  Biso   1.000  C
  C289     1.0000 0.99860  0.75900  0.69116  Biso   1.000  C
  C290     1.0000 0.90040  0.75230  0.69254  Biso   1.000  C
  C291     1.0000 0.89440  0.75450  0.61556  Biso   1.000  C
  C292     1.0000 0.99260  0.76120  0.61418  Biso   1.000  C
  C293     1.0000 0.93100  0.18450  0.85530  Biso   1.000  C
  C294     1.0000 0.83700  0.14940  0.84100  Biso   1.000  C
  C295     1.0000 0.85500  0.23000  0.78960  Biso   1.000  C
  C296     1.0000 0.68670  0.18640  0.80590  Biso   1.000  C
  N15      1.0000 0.14980  0.27940  0.15003  Biso   1.000  N
  N16      1.0000 0.96010  0.47010  0.92790  Biso   1.000  N
  N17      1.0000 0.65170  0.25010  0.15474  Biso   1.000  N
  N18      1.0000 0.91620  0.52750  0.85800  Biso   1.000  N
  N19      1.0000 0.62870  0.47170  0.33850  Biso   1.000  N
  N20      1.0000 0.59180  0.52880  0.41010  Biso   1.000  N
  N21      1.0000 0.71280  0.68980  0.31020  Biso   1.000  N
  N22      1.0000 0.35020  0.77940  0.65003  Biso   1.000  N
  N23      1.0000 0.53990  0.97010  0.42790  Biso   1.000  N
  N24      1.0000 0.84830  0.75010  0.65474  Biso   1.000  N
  N25      1.0000 0.58380  0.02750  0.35800  Biso   1.000  N
  N26      1.0000 0.87130  0.97170  0.83850  Biso   1.000  N
  N27      1.0000 0.90820  0.02880  0.91010  Biso   1.000  N
  N28      1.0000 0.78720  0.18980  0.81020  Biso   1.000  N
  O31      1.0000 0.97650  0.32490  0.09820  Biso   1.000  O
  O32      1.0000 0.82450  0.29540  0.10720  Biso   1.000  O
  O33      1.0000 0.76730  0.44460  0.94240  Biso   1.000  O
  O34      1.0000 0.72000  0.50580  0.86840  Biso   1.000  O
  O35      1.0000 0.56830  0.66900  0.72680  Biso   1.000  O
  O36      1.0000 0.72220  0.67730  0.70980  Biso   1.000  O
  O37      1.0000 0.97300  0.32600  0.20410  Biso   1.000  O
  O38      1.0000 0.81750  0.30120  0.20190  Biso   1.000  O
  O39      1.0000 0.82490  0.48820  0.35260  Biso   1.000  O
  O40      1.0000 0.78110  0.56680  0.42160  Biso   1.000  O
  O41      1.0000 0.72680  0.67210  0.60720  Biso   1.000  O
  O42      1.0000 0.57690  0.65150  0.58970  Biso   1.000  O
  O43      1.0000 0.94590  0.21040  0.15380  Biso   1.000  O
  O44      1.0000 0.84600  0.39450  0.85550  Biso   1.000  O
  O45      1.0000 0.70260  0.60150  0.33480  Biso   1.000  O
  O46      1.0000 0.52350  0.82490  0.59820  Biso   1.000  O
  O47      1.0000 0.67550  0.79540  0.60720  Biso   1.000  O
  O48      1.0000 0.73270  0.94460  0.44240  Biso   1.000  O
  O49      1.0000 0.78000  0.00580  0.36840  Biso   1.000  O
  O50      1.0000 0.93170  0.16900  0.22680  Biso   1.000  O
  O51      1.0000 0.77780  0.17730  0.20980  Biso   1.000  O
  O52      1.0000 0.52700  0.82600  0.70410  Biso   1.000  O
  O53      1.0000 0.68250  0.80120  0.70190  Biso   1.000  O
  O54      1.0000 0.67510  0.98820  0.85260  Biso   1.000  O
  O55      1.0000 0.71890  0.06680  0.92160  Biso   1.000  O
  O56      1.0000 0.77320  0.17210  0.10720  Biso   1.000  O
  O57      1.0000 0.92310  0.15150  0.08970  Biso   1.000  O
  O58      1.0000 0.55410  0.71040  0.65380  Biso   1.000  O
  O59      1.0000 0.65400  0.89450  0.35550  Biso   1.000  O
  O60      1.0000 0.79740  0.10150  0.83480  Biso   1.000  O
