data_image0
_cell_length_a       25.3323
_cell_length_b       25.9201
_cell_length_c       25.9201
_cell_angle_alpha    76.1849
_cell_angle_beta     60.7474
_cell_angle_gamma    60.7474

_symmetry_space_group_name_H-M    P 1
_symmetry_int_tables_number       1

loop_
  _symmetry_equiv_pos_as_xyz
  'x, y, z'

loop_
  _atom_site_label
  _atom_site_occupancy
  _atom_site_fract_x
  _atom_site_fract_y
  _atom_site_fract_z
  _atom_site_thermal_displace_type
  _atom_site_B_iso_or_equiv
  _atom_site_type_symbol
  Co1      1.0000 0.82904  0.77153  0.73945  Biso   1.000  Co
  Co2      1.0000 0.33373  0.76990  0.73320  Biso   1.000  Co
  Co3      1.0000 0.85041  0.72953  0.23701  Biso   1.000  Co
  Co4      1.0000 0.31294  0.27107  0.76277  Biso   1.000  Co
  Co5      1.0000 0.34002  0.22847  0.26055  Biso   1.000  Co
  Co6      1.0000 0.83683  0.23010  0.26680  Biso   1.000  Co
  Co7      1.0000 0.81695  0.27047  0.76299  Biso   1.000  Co
  Co8      1.0000 0.34678  0.72893  0.23723  Biso   1.000  Co
  H1       1.0000 0.72590  0.12760  0.78680  Biso   1.000  H
  H2       1.0000 0.09610  0.39510  0.80550  Biso   1.000  H
  H3       1.0000 0.93010  0.89460  0.68340  Biso   1.000  H
  H4       1.0000 0.42400  0.07350  0.66770  Biso   1.000  H
  H5       1.0000 0.41850  0.15360  0.69220  Biso   1.000  H
  H6       1.0000 0.42610  0.98530  0.69330  Biso   1.000  H
  H7       1.0000 0.69470  0.25770  0.30870  Biso   1.000  H
  H8       1.0000 0.05720  0.63420  0.73300  Biso   1.000  H
  H9       1.0000 0.43350  0.89390  0.68250  Biso   1.000  H
  H10      1.0000 0.91770  0.07590  0.66970  Biso   1.000  H
  H11      1.0000 0.90990  0.36850  0.28690  Biso   1.000  H
  H12      1.0000 0.59520  0.27690  0.39530  Biso   1.000  H
  H13      1.0000 0.92100  0.98760  0.69740  Biso   1.000  H
  H14      1.0000 0.91260  0.76630  0.35510  Biso   1.000  H
  H15      1.0000 0.82410  0.33330  0.18590  Biso   1.000  H
  H16      1.0000 0.91600  0.57250  0.83390  Biso   1.000  H
  H17      1.0000 0.53820  0.78030  0.10270  Biso   1.000  H
  H18      1.0000 0.00240  0.48100  0.81580  Biso   1.000  H
  H19      1.0000 0.76790  0.72690  0.69510  Biso   1.000  H
  H20      1.0000 0.78290  0.69320  0.44540  Biso   1.000  H
  H21      1.0000 0.80880  0.51520  0.18280  Biso   1.000  H
  H22      1.0000 0.80230  0.60270  0.19410  Biso   1.000  H
  H23      1.0000 0.15400  0.72850  0.85950  Biso   1.000  H
  H24      1.0000 0.78440  0.26520  0.39260  Biso   1.000  H
  H25      1.0000 0.55360  0.73670  0.94330  Biso   1.000  H
  H26      1.0000 0.95460  0.52100  0.23960  Biso   1.000  H
  H27      1.0000 0.72390  0.21500  0.80500  Biso   1.000  H
  H28      1.0000 0.22340  0.21370  0.79490  Biso   1.000  H
  H29      1.0000 0.91960  0.15050  0.69570  Biso   1.000  H
  H30      1.0000 0.83140  0.42380  0.16660  Biso   1.000  H
  H31      1.0000 0.83560  0.66210  0.81430  Biso   1.000  H
  H32      1.0000 0.96170  0.43300  0.23040  Biso   1.000  H
  H33      1.0000 0.23930  0.97810  0.70550  Biso   1.000  H
  H34      1.0000 0.73230  0.97820  0.72120  Biso   1.000  H
  H35      1.0000 0.78480  0.69490  0.53570  Biso   1.000  H
  H36      1.0000 0.17320  0.83210  0.93630  Biso   1.000  H
  H37      1.0000 0.19590  0.48180  0.79360  Biso   1.000  H
  H38      1.0000 0.23470  0.06900  0.72180  Biso   1.000  H
  H39      1.0000 0.44830  0.77300  0.01900  Biso   1.000  H
  H40      1.0000 0.53080  0.22850  0.64370  Biso   1.000  H
  H41      1.0000 0.58470  0.82210  0.02770  Biso   1.000  H
  H42      1.0000 0.72660  0.06900  0.73660  Biso   1.000  H
  H43      1.0000 0.09310  0.81480  0.02440  Biso   1.000  H
  H44      1.0000 0.90810  0.77560  0.44840  Biso   1.000  H
  H45      1.0000 0.68670  0.29540  0.47900  Biso   1.000  H
  H46      1.0000 0.89870  0.28660  0.29800  Biso   1.000  H
  H47      1.0000 0.67140  0.83280  0.93820  Biso   1.000  H
  H48      1.0000 0.06340  0.72530  0.94330  Biso   1.000  H
  H49      1.0000 0.96030  0.76380  0.18940  Biso   1.000  H
  H50      1.0000 0.88080  0.74060  0.10540  Biso   1.000  H
  H51      1.0000 0.62300  0.23710  0.55490  Biso   1.000  H
  H52      1.0000 0.92160  0.76880  0.60460  Biso   1.000  H
  H53      1.0000 0.04590  0.77560  0.10280  Biso   1.000  H
  H54      1.0000 0.96940  0.74980  0.01500  Biso   1.000  H
  H55      1.0000 0.91430  0.77420  0.51900  Biso   1.000  H
  H56      1.0000 0.46340  0.75040  0.19180  Biso   1.000  H
  H57      1.0000 0.36570  0.76100  0.10580  Biso   1.000  H
  H58      1.0000 0.41460  0.33510  0.55870  Biso   1.000  H
  H59      1.0000 0.63700  0.74860  0.85560  Biso   1.000  H
  H60      1.0000 0.22690  0.12730  0.77470  Biso   1.000  H
  H61      1.0000 0.10770  0.57080  0.79500  Biso   1.000  H
  H62      1.0000 0.50270  0.33600  0.47800  Biso   1.000  H
  H63      1.0000 0.97670  0.71810  0.72050  Biso   1.000  H
  H64      1.0000 0.77110  0.71960  0.60780  Biso   1.000  H
  H65      1.0000 0.64030  0.87240  0.21320  Biso   1.000  H
  H66      1.0000 0.29670  0.60490  0.19450  Biso   1.000  H
  H67      1.0000 0.50810  0.10540  0.31660  Biso   1.000  H
  H68      1.0000 0.16520  0.92650  0.33230  Biso   1.000  H
  H69      1.0000 0.26430  0.84640  0.30780  Biso   1.000  H
  H70      1.0000 0.10470  0.01470  0.30670  Biso   1.000  H
  H71      1.0000 0.26110  0.74230  0.69130  Biso   1.000  H
  H72      1.0000 0.42440  0.36580  0.26700  Biso   1.000  H
  H73      1.0000 0.00990  0.10610  0.31750  Biso   1.000  H
  H74      1.0000 0.66330  0.92410  0.33030  Biso   1.000  H
  H75      1.0000 0.56530  0.63150  0.71310  Biso   1.000  H
  H76      1.0000 0.26740  0.72310  0.60470  Biso   1.000  H
  H77      1.0000 0.60600  0.01240  0.30260  Biso   1.000  H
  H78      1.0000 0.03400  0.23370  0.64490  Biso   1.000  H
  H79      1.0000 0.34330  0.66670  0.81410  Biso   1.000  H
  H80      1.0000 0.32240  0.42750  0.16610  Biso   1.000  H
  H81      1.0000 0.42120  0.21970  0.89730  Biso   1.000  H
  H82      1.0000 0.29920  0.51900  0.18420  Biso   1.000  H
  H83      1.0000 0.18990  0.27310  0.30490  Biso   1.000  H
  H84      1.0000 0.92150  0.30680  0.55460  Biso   1.000  H
  H85      1.0000 0.50680  0.48480  0.81720  Biso   1.000  H
  H86      1.0000 0.59910  0.39730  0.80590  Biso   1.000  H
  H87      1.0000 0.74200  0.27150  0.14050  Biso   1.000  H
  H88      1.0000 0.44220  0.73480  0.60740  Biso   1.000  H
  H89      1.0000 0.23360  0.26330  0.05670  Biso   1.000  H
  H90      1.0000 0.71520  0.47900  0.76040  Biso   1.000  H
  H91      1.0000 0.74390  0.78500  0.19500  Biso   1.000  H
  H92      1.0000 0.23200  0.78630  0.20510  Biso   1.000  H
  H93      1.0000 0.76580  0.84950  0.30430  Biso   1.000  H
  H94      1.0000 0.42180  0.57620  0.83340  Biso   1.000  H
  H95      1.0000 0.31200  0.33790  0.18570  Biso   1.000  H
  H96      1.0000 0.62510  0.56700  0.76960  Biso   1.000  H
  H97      1.0000 0.92290  0.02190  0.29450  Biso   1.000  H
  H98      1.0000 0.43170  0.02180  0.27880  Biso   1.000  H
  H99      1.0000 0.01540  0.30510  0.46430  Biso   1.000  H
  H100     1.0000 0.94160  0.16790  0.06370  Biso   1.000  H
  H101     1.0000 0.47130  0.51820  0.20640  Biso   1.000  H
  H102     1.0000 0.02550  0.93100  0.27820  Biso   1.000  H
  H103     1.0000 0.24030  0.22700  0.98100  Biso   1.000  H
  H104     1.0000 0.40300  0.77150  0.35630  Biso   1.000  H
  H105     1.0000 0.43450  0.17790  0.97230  Biso   1.000  H
  H106     1.0000 0.53220  0.93100  0.26340  Biso   1.000  H
  H107     1.0000 0.93230  0.18520  0.97560  Biso   1.000  H
  H108     1.0000 0.13210  0.22440  0.55160  Biso   1.000  H
  H109     1.0000 0.46110  0.70460  0.52100  Biso   1.000  H
  H110     1.0000 0.48330  0.71340  0.70200  Biso   1.000  H
  H111     1.0000 0.44240  0.16720  0.06180  Biso   1.000  H
  H112     1.0000 0.73200  0.27470  0.05670  Biso   1.000  H
  H113     1.0000 0.91350  0.23620  0.81060  Biso   1.000  H
  H114     1.0000 0.72680  0.25940  0.89460  Biso   1.000  H
  H115     1.0000 0.41500  0.76290  0.44510  Biso   1.000  H
  H116     1.0000 0.29500  0.23120  0.39540  Biso   1.000  H
  H117     1.0000 0.92430  0.22440  0.89720  Biso   1.000  H
  H118     1.0000 0.73420  0.25020  0.98500  Biso   1.000  H
  H119     1.0000 0.20750  0.22580  0.48100  Biso   1.000  H
  H120     1.0000 0.40560  0.24960  0.80820  Biso   1.000  H
  H121     1.0000 0.23250  0.23900  0.89420  Biso   1.000  H
  H122     1.0000 0.30840  0.66490  0.44130  Biso   1.000  H
  H123     1.0000 0.24120  0.25140  0.14440  Biso   1.000  H
  H124     1.0000 0.12890  0.87270  0.22530  Biso   1.000  H
  H125     1.0000 0.47350  0.42920  0.20500  Biso   1.000  H
  H126     1.0000 0.31670  0.66400  0.52200  Biso   1.000  H
  H127     1.0000 0.41530  0.28190  0.27950  Biso   1.000  H
  H128     1.0000 0.09850  0.28040  0.39220  Biso   1.000  H
  C1       1.0000 0.85060  0.72550  0.39210  Biso   1.000  C
  C2       1.0000 0.84540  0.72960  0.33400  Biso   1.000  C
  C3       1.0000 0.23300  0.77910  0.83490  Biso   1.000  C
  C4       1.0000 0.82810  0.92750  0.70910  Biso   1.000  C
  C5       1.0000 0.66820  0.78090  0.88990  Biso   1.000  C
  C6       1.0000 0.76500  0.13420  0.76520  Biso   1.000  C
  C7       1.0000 0.40380  0.27870  0.67130  Biso   1.000  C
  C8       1.0000 0.09740  0.43140  0.80400  Biso   1.000  C
  C9       1.0000 0.63040  0.28000  0.45320  Biso   1.000  C
  C10      1.0000 0.72890  0.78050  0.83730  Biso   1.000  C
  C11      1.0000 0.50290  0.77470  0.05450  Biso   1.000  C
  C12      1.0000 0.46210  0.28430  0.60990  Biso   1.000  C
  C13      1.0000 0.88820  0.92890  0.69570  Biso   1.000  C
  C14      1.0000 0.33350  0.92560  0.70000  Biso   1.000  C
  C15      1.0000 0.17760  0.77840  0.88620  Biso   1.000  C
  C16      1.0000 0.38200  0.10190  0.69370  Biso   1.000  C
  C17      1.0000 0.15510  0.42900  0.79960  Biso   1.000  C
  C18      1.0000 0.37760  0.15040  0.70720  Biso   1.000  C
  C19      1.0000 0.99550  0.59140  0.78700  Biso   1.000  C
  C20      1.0000 0.38780  0.98430  0.69610  Biso   1.000  C
  C21      1.0000 0.21650  0.36950  0.79090  Biso   1.000  C
  C22      1.0000 0.33130  0.03630  0.70450  Biso   1.000  C
  C23      1.0000 0.69420  0.26240  0.34420  Biso   1.000  C
  C24      1.0000 0.01250  0.63840  0.75000  Biso   1.000  C
  C25      1.0000 0.39210  0.92870  0.69130  Biso   1.000  C
  C26      1.0000 0.01530  0.76450  0.05050  Biso   1.000  C
  C27      1.0000 0.32490  0.09260  0.71780  Biso   1.000  C
  C28      1.0000 0.87740  0.10360  0.69820  Biso   1.000  C
  C29      1.0000 0.89020  0.36410  0.26610  Biso   1.000  C
  C30      1.0000 0.63360  0.27360  0.39660  Biso   1.000  C
  C31      1.0000 0.88270  0.98530  0.70190  Biso   1.000  C
  C32      1.0000 0.87340  0.46540  0.21900  Biso   1.000  C
  C33      1.0000 0.88750  0.75150  0.39090  Biso   1.000  C
  C34      1.0000 0.82470  0.87300  0.71480  Biso   1.000  C
  C35      1.0000 0.83820  0.34320  0.20840  Biso   1.000  C
  C36      1.0000 0.92980  0.60140  0.80920  Biso   1.000  C
  C37      1.0000 0.85280  0.73740  0.55200  Biso   1.000  C
  C38      1.0000 0.07200  0.77120  0.99160  Biso   1.000  C
  C39      1.0000 0.50560  0.77240  0.10220  Biso   1.000  C
  C40      1.0000 0.55870  0.78330  0.99390  Biso   1.000  C
  C41      1.0000 0.82310  0.03620  0.71400  Biso   1.000  C
  C42      1.0000 0.04350  0.48120  0.80640  Biso   1.000  C
  C43      1.0000 0.80090  0.73430  0.65970  Biso   1.000  C
  C44      1.0000 0.81130  0.70720  0.44540  Biso   1.000  C
  C45      1.0000 0.83520  0.51610  0.19850  Biso   1.000  C
  C46      1.0000 0.83540  0.56680  0.20080  Biso   1.000  C
  C47      1.0000 0.14020  0.74830  0.89350  Biso   1.000  C
  C48      1.0000 0.74540  0.26830  0.39270  Biso   1.000  C
  C49      1.0000 0.32940  0.87230  0.70370  Biso   1.000  C
  C50      1.0000 0.57690  0.75670  0.94250  Biso   1.000  C
  C51      1.0000 0.92540  0.51920  0.22800  Biso   1.000  C
  C52      1.0000 0.76350  0.18650  0.77690  Biso   1.000  C
  C53      1.0000 0.26440  0.18520  0.76760  Biso   1.000  C
  C54      1.0000 0.87770  0.14910  0.71130  Biso   1.000  C
  C55      1.0000 0.05020  0.53350  0.79410  Biso   1.000  C
  C56      1.0000 0.84430  0.39710  0.19510  Biso   1.000  C
  C57      1.0000 0.88150  0.65470  0.79590  Biso   1.000  C
  C58      1.0000 0.86980  0.41010  0.22530  Biso   1.000  C
  C59      1.0000 0.92620  0.46860  0.22660  Biso   1.000  C
  C60      1.0000 0.57300  0.28460  0.50780  Biso   1.000  C
  C61      1.0000 0.27680  0.97790  0.70570  Biso   1.000  C
  C62      1.0000 0.77080  0.97880  0.71860  Biso   1.000  C
  C63      1.0000 0.81140  0.70810  0.49970  Biso   1.000  C
  C64      1.0000 0.15480  0.80740  0.93700  Biso   1.000  C
  C65      1.0000 0.15700  0.48240  0.79580  Biso   1.000  C
  C66      1.0000 0.27560  0.03390  0.71210  Biso   1.000  C
  C67      1.0000 0.45060  0.77010  0.05510  Biso   1.000  C
  C68      1.0000 0.52470  0.25150  0.61070  Biso   1.000  C
  C69      1.0000 0.59530  0.80710  0.99210  Biso   1.000  C
  C70      1.0000 0.76810  0.03430  0.72470  Biso   1.000  C
  C71      1.0000 0.10450  0.79920  0.98880  Biso   1.000  C
  C72      1.0000 0.88620  0.75530  0.44690  Biso   1.000  C
  C73      1.0000 0.82030  0.09450  0.72450  Biso   1.000  C
  C74      1.0000 0.68750  0.28320  0.44680  Biso   1.000  C
  C75      1.0000 0.88110  0.31630  0.27350  Biso   1.000  C
  C76      1.0000 0.64920  0.81120  0.94000  Biso   1.000  C
  C77      1.0000 0.08750  0.74450  0.94250  Biso   1.000  C
  C78      1.0000 0.96180  0.76130  0.15270  Biso   1.000  C
  C79      1.0000 0.57920  0.25600  0.55640  Biso   1.000  C
  C80      1.0000 0.88800  0.76020  0.60700  Biso   1.000  C
  C81      1.0000 0.01320  0.76840  0.10140  Biso   1.000  C
  C82      1.0000 0.96820  0.75310  0.05130  Biso   1.000  C
  C83      1.0000 0.88840  0.75920  0.55380  Biso   1.000  C
  C84      1.0000 0.45850  0.75770  0.15630  Biso   1.000  C
  C85      1.0000 0.40280  0.76190  0.10550  Biso   1.000  C
  C86      1.0000 0.45760  0.31420  0.55860  Biso   1.000  C
  C87      1.0000 0.85480  0.73040  0.49600  Biso   1.000  C
  C88      1.0000 0.62890  0.76090  0.89150  Biso   1.000  C
  C89      1.0000 0.26640  0.13330  0.75590  Biso   1.000  C
  C90      1.0000 0.10670  0.53460  0.79500  Biso   1.000  C
  C91      1.0000 0.50890  0.31450  0.51150  Biso   1.000  C
  C92      1.0000 0.96510  0.68670  0.74030  Biso   1.000  C
  C93      1.0000 0.80310  0.72900  0.60740  Biso   1.000  C
  C94      1.0000 0.88190  0.56890  0.21250  Biso   1.000  C
  C95      1.0000 0.87570  0.63250  0.21490  Biso   1.000  C
  C96      1.0000 0.91800  0.74640  0.10420  Biso   1.000  C
  C97      1.0000 0.96820  0.27450  0.60790  Biso   1.000  C
  C98      1.0000 0.90900  0.27040  0.66600  Biso   1.000  C
  C99      1.0000 0.84700  0.22090  0.16510  Biso   1.000  C
  C100     1.0000 0.46470  0.07250  0.29090  Biso   1.000  C
  C101     1.0000 0.33900  0.21910  0.11010  Biso   1.000  C
  C102     1.0000 0.66440  0.86580  0.23480  Biso   1.000  C
  C103     1.0000 0.35380  0.72130  0.32870  Biso   1.000  C
  C104     1.0000 0.33280  0.56860  0.19600  Biso   1.000  C
  C105     1.0000 0.36360  0.72000  0.54680  Biso   1.000  C
  C106     1.0000 0.34670  0.21950  0.16270  Biso   1.000  C
  C107     1.0000 0.33210  0.22530  0.94550  Biso   1.000  C
  C108     1.0000 0.35630  0.71570  0.39010  Biso   1.000  C
  C109     1.0000 0.51280  0.07110  0.30430  Biso   1.000  C
  C110     1.0000 0.95910  0.07440  0.30000  Biso   1.000  C
  C111     1.0000 0.84220  0.22160  0.11380  Biso   1.000  C
  C112     1.0000 0.17760  0.89810  0.30630  Biso   1.000  C
  C113     1.0000 0.38370  0.57100  0.20040  Biso   1.000  C
  C114     1.0000 0.23520  0.84960  0.29280  Biso   1.000  C
  C115     1.0000 0.37390  0.40860  0.21300  Biso   1.000  C
  C116     1.0000 0.06820  0.01570  0.30390  Biso   1.000  C
  C117     1.0000 0.37690  0.63050  0.20910  Biso   1.000  C
  C118     1.0000 0.07210  0.96370  0.29550  Biso   1.000  C
  C119     1.0000 0.30080  0.73760  0.65580  Biso   1.000  C
  C120     1.0000 0.40090  0.36160  0.25000  Biso   1.000  C
  C121     1.0000 0.01210  0.07130  0.30870  Biso   1.000  C
  C122     1.0000 0.83030  0.23550  0.94950  Biso   1.000  C
  C123     1.0000 0.13530  0.90740  0.28220  Biso   1.000  C
  C124     1.0000 0.67920  0.89640  0.30180  Biso   1.000  C
  C125     1.0000 0.52040  0.63590  0.73390  Biso   1.000  C
  C126     1.0000 0.30380  0.72640  0.60340  Biso   1.000  C
  C127     1.0000 0.56990  0.01470  0.29810  Biso   1.000  C
  C128     1.0000 0.55780  0.53460  0.78100  Biso   1.000  C
  C129     1.0000 0.02990  0.24850  0.60910  Biso   1.000  C
  C130     1.0000 0.41250  0.12700  0.28520  Biso   1.000  C
  C131     1.0000 0.38980  0.65680  0.79160  Biso   1.000  C
  C132     1.0000 0.34040  0.39860  0.19080  Biso   1.000  C
  C133     1.0000 0.14220  0.26260  0.44800  Biso   1.000  C
  C134     1.0000 0.83480  0.22880  0.00840  Biso   1.000  C
  C135     1.0000 0.38020  0.22760  0.89780  Biso   1.000  C
  C136     1.0000 0.33590  0.21670  0.00610  Biso   1.000  C
  C137     1.0000 0.57330  0.96380  0.28600  Biso   1.000  C
  C138     1.0000 0.33110  0.51880  0.19360  Biso   1.000  C
  C139     1.0000 0.19490  0.26570  0.34030  Biso   1.000  C
  C140     1.0000 0.96390  0.29280  0.55460  Biso   1.000  C
  C141     1.0000 0.54980  0.48390  0.80150  Biso   1.000  C
  C142     1.0000 0.60300  0.43320  0.79920  Biso   1.000  C
  C143     1.0000 0.78200  0.25170  0.10650  Biso   1.000  C
  C144     1.0000 0.40640  0.73170  0.60730  Biso   1.000  C
  C145     1.0000 0.90540  0.12770  0.29630  Biso   1.000  C
  C146     1.0000 0.27610  0.24330  0.05750  Biso   1.000  C
  C147     1.0000 0.67260  0.48080  0.77200  Biso   1.000  C
  C148     1.0000 0.72690  0.81350  0.22310  Biso   1.000  C
  C149     1.0000 0.21720  0.81480  0.23240  Biso   1.000  C
  C150     1.0000 0.73810  0.85090  0.28870  Biso   1.000  C
  C151     1.0000 0.37780  0.46650  0.20590  Biso   1.000  C
  C152     1.0000 0.43650  0.60290  0.80490  Biso   1.000  C
  C153     1.0000 0.33210  0.34530  0.20410  Biso   1.000  C
  C154     1.0000 0.50520  0.58990  0.77470  Biso   1.000  C
  C155     1.0000 0.62140  0.53140  0.77340  Biso   1.000  C
  C156     1.0000 0.36540  0.71540  0.49220  Biso   1.000  C
  C157     1.0000 0.96040  0.02210  0.29430  Biso   1.000  C
  C158     1.0000 0.46820  0.02120  0.28140  Biso   1.000  C
  C159     1.0000 0.01920  0.29190  0.50030  Biso   1.000  C
  C160     1.0000 0.89920  0.19260  0.06300  Biso   1.000  C
  C161     1.0000 0.43520  0.51760  0.20420  Biso   1.000  C
  C162     1.0000 0.02160  0.96610  0.28790  Biso   1.000  C
  C163     1.0000 0.27580  0.22990  0.94490  Biso   1.000  C
  C164     1.0000 0.38690  0.74850  0.38930  Biso   1.000  C
  C165     1.0000 0.39450  0.19290  0.00790  Biso   1.000  C
  C166     1.0000 0.52710  0.96570  0.27530  Biso   1.000  C
  C167     1.0000 0.89250  0.20080  0.01120  Biso   1.000  C
  C168     1.0000 0.08840  0.24470  0.55310  Biso   1.000  C
  C169     1.0000 0.63930  0.90550  0.27550  Biso   1.000  C
  C170     1.0000 0.41750  0.71680  0.55320  Biso   1.000  C
  C171     1.0000 0.47090  0.68370  0.72650  Biso   1.000  C
  C172     1.0000 0.40040  0.18880  0.06000  Biso   1.000  C
  C173     1.0000 0.77450  0.25550  0.05750  Biso   1.000  C
  C174     1.0000 0.87580  0.23870  0.84730  Biso   1.000  C
  C175     1.0000 0.39160  0.74400  0.44360  Biso   1.000  C
  C176     1.0000 0.25520  0.23980  0.39300  Biso   1.000  C
  C177     1.0000 0.88300  0.23160  0.89860  Biso   1.000  C
  C178     1.0000 0.77260  0.24690  0.94870  Biso   1.000  C
  C179     1.0000 0.20140  0.24080  0.44620  Biso   1.000  C
  C180     1.0000 0.37250  0.24230  0.84370  Biso   1.000  C
  C181     1.0000 0.27020  0.23810  0.89450  Biso   1.000  C
  C182     1.0000 0.33040  0.68580  0.44140  Biso   1.000  C
  C183     1.0000 0.08120  0.26960  0.50400  Biso   1.000  C
  C184     1.0000 0.28130  0.23910  0.10850  Biso   1.000  C
  C185     1.0000 0.15560  0.86670  0.24410  Biso   1.000  C
  C186     1.0000 0.43630  0.46540  0.20500  Biso   1.000  C
  C187     1.0000 0.33490  0.68550  0.48850  Biso   1.000  C
  C188     1.0000 0.39210  0.31330  0.25970  Biso   1.000  C
  C189     1.0000 0.13950  0.27100  0.39260  Biso   1.000  C
  C190     1.0000 0.66330  0.43110  0.78750  Biso   1.000  C
  C191     1.0000 0.72310  0.36750  0.78510  Biso   1.000  C
  C192     1.0000 0.76860  0.25360  0.89580  Biso   1.000  C
  N1       1.0000 0.32150  0.19500  0.73960  Biso   1.000  N
  N2       1.0000 0.84400  0.75000  0.66480  Biso   1.000  N
  N3       1.0000 0.82260  0.19340  0.74520  Biso   1.000  N
  N4       1.0000 0.75210  0.25790  0.34030  Biso   1.000  N
  N5       1.0000 0.85160  0.30420  0.25240  Biso   1.000  N
  N6       1.0000 0.90190  0.69630  0.75550  Biso   1.000  N
  N7       1.0000 0.91580  0.75160  0.15400  Biso   1.000  N
  N8       1.0000 0.40910  0.75480  0.15520  Biso   1.000  N
  N9       1.0000 0.25610  0.80500  0.26040  Biso   1.000  N
  N10      1.0000 0.25880  0.25000  0.33520  Biso   1.000  N
  N11      1.0000 0.76120  0.80660  0.25480  Biso   1.000  N
  N12      1.0000 0.35030  0.74210  0.65970  Biso   1.000  N
  N13      1.0000 0.40820  0.69580  0.74760  Biso   1.000  N
  N14      1.0000 0.35370  0.30370  0.24450  Biso   1.000  N
  N15      1.0000 0.82140  0.24840  0.84600  Biso   1.000  N
  N16      1.0000 0.31910  0.24520  0.84480  Biso   1.000  N
  O1       1.0000 0.80690  0.70980  0.33780  Biso   1.000  O
  O2       1.0000 0.34700  0.30270  0.66450  Biso   1.000  O
  O3       1.0000 0.76790  0.79840  0.83400  Biso   1.000  O
  O4       1.0000 0.27370  0.79710  0.82990  Biso   1.000  O
  O5       1.0000 0.21080  0.32600  0.79120  Biso   1.000  O
  O6       1.0000 0.38010  0.82150  0.70930  Biso   1.000  O
  O7       1.0000 0.74490  0.75490  0.78770  Biso   1.000  O
  O8       1.0000 0.41190  0.25520  0.70900  Biso   1.000  O
  O9       1.0000 0.87670  0.82380  0.71420  Biso   1.000  O
  O10      1.0000 0.25020  0.75610  0.78290  Biso   1.000  O
  O11      1.0000 0.87790  0.74690  0.29130  Biso   1.000  O
  O12      1.0000 0.26770  0.36750  0.78690  Biso   1.000  O
  O13      1.0000 0.77220  0.86990  0.72390  Biso   1.000  O
  O14      1.0000 0.27590  0.86950  0.71250  Biso   1.000  O
  O15      1.0000 0.83140  0.67510  0.20930  Biso   1.000  O
  O16      1.0000 0.91870  0.63490  0.22250  Biso   1.000  O
  O17      1.0000 0.85450  0.29020  0.66220  Biso   1.000  O
  O18      1.0000 0.31420  0.69730  0.33550  Biso   1.000  O
  O19      1.0000 0.40030  0.20160  0.16600  Biso   1.000  O
  O20      1.0000 0.90070  0.20290  0.17010  Biso   1.000  O
  O21      1.0000 0.32800  0.67400  0.20880  Biso   1.000  O
  O22      1.0000 0.91090  0.17850  0.29070  Biso   1.000  O
  O23      1.0000 0.28750  0.24510  0.21230  Biso   1.000  O
  O24      1.0000 0.37610  0.74480  0.29100  Biso   1.000  O
  O25      1.0000 0.41470  0.17620  0.28580  Biso   1.000  O
  O26      1.0000 0.78920  0.24390  0.21710  Biso   1.000  O
  O27      1.0000 0.91610  0.25310  0.70870  Biso   1.000  O
  O28      1.0000 0.42210  0.63250  0.21310  Biso   1.000  O
  O29      1.0000 0.36600  0.13010  0.27610  Biso   1.000  O
  O30      1.0000 0.85790  0.13050  0.28750  Biso   1.000  O
  O31      1.0000 0.71580  0.32490  0.79070  Biso   1.000  O
  O32      1.0000 0.77610  0.36510  0.77750  Biso   1.000  O
  Co9      1.0000 0.56849  0.26055  0.77153  Biso   1.000  Co
  Co10     1.0000 0.06693  0.26680  0.76990  Biso   1.000  Co
  Co11     1.0000 0.08742  0.76299  0.72953  Biso   1.000  Co
  Co12     1.0000 0.07571  0.23723  0.27107  Biso   1.000  Co
  Co13     1.0000 0.60057  0.73945  0.22847  Biso   1.000  Co
  Co14     1.0000 0.10363  0.73320  0.23010  Biso   1.000  Co
  Co15     1.0000 0.57994  0.23701  0.27047  Biso   1.000  Co
  Co16     1.0000 0.58401  0.76277  0.72893  Biso   1.000  Co
  H129     1.0000 0.51270  0.21320  0.12760  Biso   1.000  H
  H130     1.0000 0.90160  0.19450  0.39510  Biso   1.000  H
  H131     1.0000 0.61350  0.31660  0.89460  Biso   1.000  H
  H132     1.0000 0.09170  0.33230  0.07350  Biso   1.000  H
  H133     1.0000 0.11070  0.30780  0.15360  Biso   1.000  H
  H134     1.0000 0.11940  0.30670  0.98530  Biso   1.000  H
  H135     1.0000 0.00340  0.69130  0.25770  Biso   1.000  H
  H136     1.0000 0.79020  0.26700  0.63420  Biso   1.000  H
  H137     1.0000 0.11600  0.31750  0.89390  Biso   1.000  H
  H138     1.0000 0.58740  0.33030  0.07590  Biso   1.000  H
  H139     1.0000 0.19680  0.71310  0.36850  Biso   1.000  H
  H140     1.0000 0.99050  0.60470  0.27690  Biso   1.000  H
  H141     1.0000 0.61840  0.30260  0.98760  Biso   1.000  H
  H142     1.0000 0.26770  0.64490  0.76630  Biso   1.000  H
  H143     1.0000 0.01000  0.81410  0.33330  Biso   1.000  H
  H144     1.0000 0.74990  0.16610  0.57250  Biso   1.000  H
  H145     1.0000 0.64090  0.89730  0.78030  Biso   1.000  H
  H146     1.0000 0.81820  0.18420  0.48100  Biso   1.000  H
  H147     1.0000 0.46300  0.30490  0.72690  Biso   1.000  H
  H148     1.0000 0.22830  0.55460  0.69320  Biso   1.000  H
  H149     1.0000 0.99160  0.81720  0.51520  Biso   1.000  H
  H150     1.0000 0.99640  0.80590  0.60270  Biso   1.000  H
  H151     1.0000 0.01350  0.14050  0.72850  Biso   1.000  H
  H152     1.0000 0.17700  0.60740  0.26520  Biso   1.000  H
  H153     1.0000 0.49690  0.05670  0.73670  Biso   1.000  H
  H154     1.0000 0.19420  0.76040  0.52100  Biso   1.000  H
  H155     1.0000 0.52890  0.19500  0.21500  Biso   1.000  H
  H156     1.0000 0.01830  0.20510  0.21370  Biso   1.000  H
  H157     1.0000 0.61530  0.30430  0.15050  Biso   1.000  H
  H158     1.0000 0.99800  0.83340  0.42380  Biso   1.000  H
  H159     1.0000 0.64990  0.18570  0.66210  Biso   1.000  H
  H160     1.0000 0.19210  0.76960  0.43300  Biso   1.000  H
  H161     1.0000 0.94480  0.29450  0.97810  Biso   1.000  H
  H162     1.0000 0.45350  0.27880  0.97820  Biso   1.000  H
  H163     1.0000 0.32050  0.46430  0.69490  Biso   1.000  H
  H164     1.0000 0.10950  0.06370  0.83210  Biso   1.000  H
  H165     1.0000 0.98950  0.20640  0.48180  Biso   1.000  H
  H166     1.0000 0.95650  0.27820  0.06900  Biso   1.000  H
  H167     1.0000 0.46730  0.98100  0.77300  Biso   1.000  H
  H168     1.0000 0.17450  0.35630  0.22850  Biso   1.000  H
  H169     1.0000 0.61240  0.97230  0.82210  Biso   1.000  H
  H170     1.0000 0.46320  0.26340  0.06900  Biso   1.000  H
  H171     1.0000 0.11750  0.97560  0.81480  Biso   1.000  H
  H172     1.0000 0.35650  0.55160  0.77560  Biso   1.000  H
  H173     1.0000 0.16570  0.52100  0.29540  Biso   1.000  H
  H174     1.0000 0.19670  0.70200  0.28660  Biso   1.000  H
  H175     1.0000 0.60960  0.06180  0.83280  Biso   1.000  H
  H176     1.0000 0.00670  0.05670  0.72530  Biso   1.000  H
  H177     1.0000 0.14970  0.81060  0.76380  Biso   1.000  H
  H178     1.0000 0.98620  0.89460  0.74060  Biso   1.000  H
  H179     1.0000 0.17790  0.44510  0.23710  Biso   1.000  H
  H180     1.0000 0.52620  0.39540  0.76880  Biso   1.000  H
  H181     1.0000 0.14870  0.89720  0.77560  Biso   1.000  H
  H182     1.0000 0.98440  0.98500  0.74980  Biso   1.000  H
  H183     1.0000 0.43330  0.48100  0.77420  Biso   1.000  H
  H184     1.0000 0.65520  0.80820  0.75040  Biso   1.000  H
  H185     1.0000 0.47150  0.89420  0.76100  Biso   1.000  H
  H186     1.0000 0.97330  0.44130  0.33510  Biso   1.000  H
  H187     1.0000 0.49260  0.14440  0.74860  Biso   1.000  H
  H188     1.0000 0.00160  0.22530  0.12730  Biso   1.000  H
  H189     1.0000 0.90270  0.20500  0.57080  Biso   1.000  H
  H190     1.0000 0.98070  0.52200  0.33600  Biso   1.000  H
  H191     1.0000 0.69720  0.27950  0.71810  Biso   1.000  H
  H192     1.0000 0.37890  0.39220  0.71960  Biso   1.000  H
  H193     1.0000 0.85350  0.78680  0.87240  Biso   1.000  H
  H194     1.0000 0.49120  0.80550  0.60490  Biso   1.000  H
  H195     1.0000 0.82470  0.68340  0.10540  Biso   1.000  H
  H196     1.0000 0.49750  0.66770  0.92650  Biso   1.000  H
  H197     1.0000 0.57210  0.69220  0.84640  Biso   1.000  H
  H198     1.0000 0.41140  0.69330  0.01470  Biso   1.000  H
  H199     1.0000 0.95240  0.30870  0.74230  Biso   1.000  H
  H200     1.0000 0.69140  0.73300  0.36580  Biso   1.000  H
  H201     1.0000 0.32740  0.68250  0.10610  Biso   1.000  H
  H202     1.0000 0.99360  0.66970  0.92410  Biso   1.000  H
  H203     1.0000 0.27840  0.28690  0.63150  Biso   1.000  H
  H204     1.0000 0.87210  0.39530  0.72310  Biso   1.000  H
  H205     1.0000 0.90860  0.69740  0.01240  Biso   1.000  H
  H206     1.0000 0.67890  0.35510  0.23370  Biso   1.000  H
  H207     1.0000 0.15740  0.18590  0.66670  Biso   1.000  H
  H208     1.0000 0.48850  0.83390  0.42750  Biso   1.000  H
  H209     1.0000 0.31850  0.10270  0.21970  Biso   1.000  H
  H210     1.0000 0.48340  0.81580  0.51900  Biso   1.000  H
  H211     1.0000 0.49480  0.69510  0.27310  Biso   1.000  H
  H212     1.0000 0.47610  0.44540  0.30680  Biso   1.000  H
  H213     1.0000 0.32400  0.18280  0.48480  Biso   1.000  H
  H214     1.0000 0.40500  0.19410  0.39730  Biso   1.000  H
  H215     1.0000 0.88250  0.85950  0.27150  Biso   1.000  H
  H216     1.0000 0.04960  0.39260  0.73480  Biso   1.000  H
  H217     1.0000 0.29030  0.94330  0.26330  Biso   1.000  H
  H218     1.0000 0.47560  0.23960  0.47900  Biso   1.000  H
  H219     1.0000 0.93890  0.80500  0.78500  Biso   1.000  H
  H220     1.0000 0.43710  0.79490  0.78630  Biso   1.000  H
  H221     1.0000 0.07010  0.69570  0.84950  Biso   1.000  H
  H222     1.0000 0.25520  0.16660  0.57620  Biso   1.000  H
  H223     1.0000 0.49770  0.81430  0.33790  Biso   1.000  H
  H224     1.0000 0.39470  0.23040  0.56700  Biso   1.000  H
  H225     1.0000 0.21740  0.70550  0.02190  Biso   1.000  H
  H226     1.0000 0.71050  0.72120  0.02180  Biso   1.000  H
  H227     1.0000 0.47970  0.53570  0.30510  Biso   1.000  H
  H228     1.0000 0.00530  0.93630  0.16790  Biso   1.000  H
  H229     1.0000 0.67770  0.79360  0.51820  Biso   1.000  H
  H230     1.0000 0.30370  0.72180  0.93100  Biso   1.000  H
  H231     1.0000 0.22130  0.01900  0.22700  Biso   1.000  H
  H232     1.0000 0.75930  0.64370  0.77150  Biso   1.000  H
  H233     1.0000 0.40680  0.02770  0.17790  Biso   1.000  H
  H234     1.0000 0.79560  0.73660  0.93100  Biso   1.000  H
  H235     1.0000 0.90790  0.02440  0.18520  Biso   1.000  H
  H236     1.0000 0.68370  0.44840  0.22440  Biso   1.000  H
  H237     1.0000 0.98210  0.47900  0.70460  Biso   1.000  H
  H238     1.0000 0.18530  0.29800  0.71340  Biso   1.000  H
  H239     1.0000 0.50420  0.93820  0.16720  Biso   1.000  H
  H240     1.0000 0.78870  0.94330  0.27470  Biso   1.000  H
  H241     1.0000 0.72410  0.18940  0.23620  Biso   1.000  H
  H242     1.0000 0.62140  0.10540  0.25940  Biso   1.000  H
  H243     1.0000 0.86010  0.55490  0.76290  Biso   1.000  H
  H244     1.0000 0.69040  0.60460  0.23120  Biso   1.000  H
  H245     1.0000 0.82150  0.10280  0.22440  Biso   1.000  H
  H246     1.0000 0.71920  0.01500  0.25020  Biso   1.000  H
  H247     1.0000 0.68850  0.51900  0.22580  Biso   1.000  H
  H248     1.0000 0.21380  0.19180  0.24960  Biso   1.000  H
  H249     1.0000 0.12670  0.10580  0.23900  Biso   1.000  H
  H250     1.0000 0.74970  0.55870  0.66490  Biso   1.000  H
  H251     1.0000 0.38560  0.85560  0.25140  Biso   1.000  H
  H252     1.0000 0.35420  0.77470  0.87270  Biso   1.000  H
  H253     1.0000 0.67850  0.79500  0.42920  Biso   1.000  H
  H254     1.0000 0.83870  0.47800  0.66400  Biso   1.000  H
  H255     1.0000 0.69480  0.72050  0.28190  Biso   1.000  H
  H256     1.0000 0.49070  0.60780  0.28040  Biso   1.000  H
  C193     1.0000 0.24270  0.60790  0.72550  Biso   1.000  C
  C194     1.0000 0.17940  0.66600  0.72960  Biso   1.000  C
  C195     1.0000 0.06790  0.16510  0.77910  Biso   1.000  C
  C196     1.0000 0.53720  0.29090  0.92750  Biso   1.000  C
  C197     1.0000 0.55810  0.11010  0.78090  Biso   1.000  C
  C198     1.0000 0.53020  0.23480  0.13420  Biso   1.000  C
  C199     1.0000 0.07510  0.32870  0.27870  Biso   1.000  C
  C200     1.0000 0.90140  0.19600  0.43140  Biso   1.000  C
  C201     1.0000 0.08360  0.54680  0.28000  Biso   1.000  C
  C202     1.0000 0.56620  0.16270  0.78050  Biso   1.000  C
  C203     1.0000 0.55740  0.94550  0.77470  Biso   1.000  C
  C204     1.0000 0.07200  0.39010  0.28430  Biso   1.000  C
  C205     1.0000 0.58390  0.30430  0.92890  Biso   1.000  C
  C206     1.0000 0.03350  0.30000  0.92560  Biso   1.000  C
  C207     1.0000 0.06380  0.11380  0.77840  Biso   1.000  C
  C208     1.0000 0.07570  0.30630  0.10190  Biso   1.000  C
  C209     1.0000 0.95470  0.20040  0.42900  Biso   1.000  C
  C210     1.0000 0.08480  0.29280  0.15040  Biso   1.000  C
  C211     1.0000 0.78250  0.21300  0.59140  Biso   1.000  C
  C212     1.0000 0.08390  0.30390  0.98430  Biso   1.000  C
  C213     1.0000 0.00740  0.20910  0.36950  Biso   1.000  C
  C214     1.0000 0.03580  0.29550  0.03630  Biso   1.000  C
  C215     1.0000 0.03840  0.65580  0.26240  Biso   1.000  C
  C216     1.0000 0.76250  0.25000  0.63840  Biso   1.000  C
  C217     1.0000 0.08340  0.30870  0.92870  Biso   1.000  C
  C218     1.0000 0.06580  0.94950  0.76450  Biso   1.000  C
  C219     1.0000 0.04270  0.28220  0.09260  Biso   1.000  C
  C220     1.0000 0.57560  0.30180  0.10360  Biso   1.000  C
  C221     1.0000 0.15630  0.73390  0.36410  Biso   1.000  C
  C222     1.0000 0.03020  0.60340  0.27360  Biso   1.000  C
  C223     1.0000 0.58460  0.29810  0.98530  Biso   1.000  C
  C224     1.0000 0.09240  0.78100  0.46540  Biso   1.000  C
  C225     1.0000 0.27840  0.60910  0.75150  Biso   1.000  C
  C226     1.0000 0.53950  0.28520  0.87300  Biso   1.000  C
  C227     1.0000 0.04660  0.79160  0.34320  Biso   1.000  C
  C228     1.0000 0.73900  0.19080  0.60140  Biso   1.000  C
  C229     1.0000 0.40480  0.44800  0.73740  Biso   1.000  C
  C230     1.0000 0.06360  0.00840  0.77120  Biso   1.000  C
  C231     1.0000 0.60780  0.89780  0.77240  Biso   1.000  C
  C232     1.0000 0.55260  0.00610  0.78330  Biso   1.000  C
  C233     1.0000 0.53710  0.28600  0.03620  Biso   1.000  C
  C234     1.0000 0.84990  0.19360  0.48120  Biso   1.000  C
  C235     1.0000 0.46060  0.34030  0.73430  Biso   1.000  C
  C236     1.0000 0.25670  0.55460  0.70720  Biso   1.000  C
  C237     1.0000 0.03370  0.80150  0.51610  Biso   1.000  C
  C238     1.0000 0.03620  0.79920  0.56680  Biso   1.000  C
  C239     1.0000 0.03370  0.10650  0.74830  Biso   1.000  C
  C240     1.0000 0.13810  0.60730  0.26830  Biso   1.000  C
  C241     1.0000 0.03310  0.29630  0.87230  Biso   1.000  C
  C242     1.0000 0.51940  0.05750  0.75670  Biso   1.000  C
  C243     1.0000 0.15340  0.77200  0.51920  Biso   1.000  C
  C244     1.0000 0.54040  0.22310  0.18650  Biso   1.000  C
  C245     1.0000 0.03200  0.23240  0.18520  Biso   1.000  C
  C246     1.0000 0.58900  0.28870  0.14910  Biso   1.000  C
  C247     1.0000 0.84430  0.20590  0.53350  Biso   1.000  C
  C248     1.0000 0.03940  0.80490  0.39710  Biso   1.000  C
  C249     1.0000 0.67740  0.20410  0.65470  Biso   1.000  C
  C250     1.0000 0.09510  0.77470  0.41010  Biso   1.000  C
  C251     1.0000 0.15280  0.77340  0.46860  Biso   1.000  C
  C252     1.0000 0.08080  0.49220  0.28460  Biso   1.000  C
  C253     1.0000 0.98250  0.29430  0.97790  Biso   1.000  C
  C254     1.0000 0.48940  0.28140  0.97880  Biso   1.000  C
  C255     1.0000 0.31110  0.50030  0.70810  Biso   1.000  C
  C256     1.0000 0.09180  0.06300  0.80740  Biso   1.000  C
  C257     1.0000 0.95280  0.20420  0.48240  Biso   1.000  C
  C258     1.0000 0.98770  0.28790  0.03390  Biso   1.000  C
  C259     1.0000 0.50570  0.94490  0.77010  Biso   1.000  C
  C260     1.0000 0.13540  0.38930  0.25150  Biso   1.000  C
  C261     1.0000 0.58740  0.00790  0.80710  Biso   1.000  C
  C262     1.0000 0.49280  0.27530  0.03430  Biso   1.000  C
  C263     1.0000 0.09330  0.01120  0.79920  Biso   1.000  C
  C264     1.0000 0.33310  0.55310  0.75530  Biso   1.000  C
  C265     1.0000 0.54480  0.27550  0.09450  Biso   1.000  C
  C266     1.0000 0.13430  0.55320  0.28320  Biso   1.000  C
  C267     1.0000 0.15460  0.72650  0.31630  Biso   1.000  C
  C268     1.0000 0.58920  0.06000  0.81120  Biso   1.000  C
  C269     1.0000 0.03000  0.05750  0.74450  Biso   1.000  C
  C270     1.0000 0.11450  0.84730  0.76130  Biso   1.000  C
  C271     1.0000 0.13560  0.44360  0.25600  Biso   1.000  C
  C272     1.0000 0.49500  0.39300  0.76020  Biso   1.000  C
  C273     1.0000 0.11460  0.89860  0.76840  Biso   1.000  C
  C274     1.0000 0.01950  0.94870  0.75310  Biso   1.000  C
  C275     1.0000 0.44220  0.44620  0.75920  Biso   1.000  C
  C276     1.0000 0.61480  0.84370  0.75770  Biso   1.000  C
  C277     1.0000 0.50830  0.89450  0.76190  Biso   1.000  C
  C278     1.0000 0.01620  0.44140  0.31420  Biso   1.000  C
  C279     1.0000 0.35080  0.50400  0.73040  Biso   1.000  C
  C280     1.0000 0.52040  0.10850  0.76090  Biso   1.000  C
  C281     1.0000 0.02230  0.24410  0.13330  Biso   1.000  C
  C282     1.0000 0.90170  0.20500  0.53460  Biso   1.000  C
  C283     1.0000 0.02040  0.48850  0.31450  Biso   1.000  C
  C284     1.0000 0.70540  0.25970  0.68670  Biso   1.000  C
  C285     1.0000 0.41050  0.39260  0.72900  Biso   1.000  C
  C286     1.0000 0.09440  0.78750  0.56890  Biso   1.000  C
  C287     1.0000 0.09060  0.78510  0.63250  Biso   1.000  C
  C288     1.0000 0.02220  0.89580  0.74640  Biso   1.000  C
  C289     1.0000 0.57610  0.39210  0.27450  Biso   1.000  C
  C290     1.0000 0.57500  0.33400  0.27040  Biso   1.000  C
  C291     1.0000 0.01210  0.83490  0.22090  Biso   1.000  C
  C292     1.0000 0.75560  0.70910  0.07250  Biso   1.000  C
  C293     1.0000 0.44910  0.88990  0.21910  Biso   1.000  C
  C294     1.0000 0.89920  0.76520  0.86580  Biso   1.000  C
  C295     1.0000 0.68250  0.67130  0.72130  Biso   1.000  C
  C296     1.0000 0.52880  0.80400  0.56860  Biso   1.000  C
  C297     1.0000 0.91040  0.45320  0.72000  Biso   1.000  C
  C298     1.0000 0.50940  0.83730  0.21950  Biso   1.000  C
  C299     1.0000 0.27760  0.05450  0.22530  Biso   1.000  C
  C300     1.0000 0.74640  0.60990  0.71570  Biso   1.000  C
  C301     1.0000 0.81710  0.69570  0.07110  Biso   1.000  C
  C302     1.0000 0.25910  0.70000  0.07440  Biso   1.000  C
  C303     1.0000 0.95600  0.88620  0.22160  Biso   1.000  C
  C304     1.0000 0.48390  0.69370  0.89810  Biso   1.000  C
  C305     1.0000 0.58410  0.79960  0.57100  Biso   1.000  C
  C306     1.0000 0.52800  0.70720  0.84960  Biso   1.000  C
  C307     1.0000 0.58690  0.78700  0.40860  Biso   1.000  C
  C308     1.0000 0.37210  0.69610  0.01570  Biso   1.000  C
  C309     1.0000 0.58600  0.79090  0.63050  Biso   1.000  C
  C310     1.0000 0.36760  0.70450  0.96370  Biso   1.000  C
  C311     1.0000 0.95660  0.34420  0.73760  Biso   1.000  C
  C312     1.0000 0.65090  0.75000  0.36160  Biso   1.000  C
  C313     1.0000 0.32080  0.69130  0.07130  Biso   1.000  C
  C314     1.0000 0.77980  0.05050  0.23550  Biso   1.000  C
  C315     1.0000 0.41750  0.71780  0.90740  Biso   1.000  C
  C316     1.0000 0.98100  0.69820  0.89640  Biso   1.000  C
  C317     1.0000 0.25430  0.26610  0.63590  Biso   1.000  C
  C318     1.0000 0.90720  0.39660  0.72640  Biso   1.000  C
  C319     1.0000 0.86800  0.70190  0.01470  Biso   1.000  C
  C320     1.0000 0.33880  0.21900  0.53460  Biso   1.000  C
  C321     1.0000 0.63900  0.39090  0.24850  Biso   1.000  C
  C322     1.0000 0.69770  0.71480  0.12700  Biso   1.000  C
  C323     1.0000 0.18140  0.20840  0.65680  Biso   1.000  C
  C324     1.0000 0.53120  0.80920  0.39860  Biso   1.000  C
  C325     1.0000 0.59020  0.55200  0.26260  Biso   1.000  C
  C326     1.0000 0.84320  0.99160  0.22880  Biso   1.000  C
  C327     1.0000 0.27800  0.10220  0.22760  Biso   1.000  C
  C328     1.0000 0.34200  0.99390  0.21670  Biso   1.000  C
  C329     1.0000 0.85930  0.71400  0.96380  Biso   1.000  C
  C330     1.0000 0.52470  0.80640  0.51880  Biso   1.000  C
  C331     1.0000 0.53520  0.65970  0.26570  Biso   1.000  C
  C332     1.0000 0.51850  0.44540  0.29280  Biso   1.000  C
  C333     1.0000 0.35130  0.19850  0.48390  Biso   1.000  C
  C334     1.0000 0.40220  0.20080  0.43320  Biso   1.000  C
  C335     1.0000 0.88850  0.89350  0.25170  Biso   1.000  C
  C336     1.0000 0.01370  0.39270  0.73170  Biso   1.000  C
  C337     1.0000 0.20170  0.70370  0.12770  Biso   1.000  C
  C338     1.0000 0.33360  0.94250  0.24330  Biso   1.000  C
  C339     1.0000 0.44460  0.22800  0.48080  Biso   1.000  C
  C340     1.0000 0.95000  0.77690  0.81350  Biso   1.000  C
  C341     1.0000 0.44960  0.76760  0.81480  Biso   1.000  C
  C342     1.0000 0.02680  0.71130  0.85090  Biso   1.000  C
  C343     1.0000 0.58370  0.79410  0.46650  Biso   1.000  C
  C344     1.0000 0.24140  0.19510  0.60290  Biso   1.000  C
  C345     1.0000 0.53620  0.79590  0.34530  Biso   1.000  C
  C346     1.0000 0.27990  0.22530  0.58990  Biso   1.000  C
  C347     1.0000 0.39480  0.22660  0.53140  Biso   1.000  C
  C348     1.0000 0.85760  0.50780  0.71540  Biso   1.000  C
  C349     1.0000 0.25470  0.70570  0.02210  Biso   1.000  C
  C350     1.0000 0.74960  0.71860  0.02120  Biso   1.000  C
  C351     1.0000 0.51950  0.49970  0.29190  Biso   1.000  C
  C352     1.0000 0.96220  0.93700  0.19260  Biso   1.000  C
  C353     1.0000 0.63940  0.79580  0.51760  Biso   1.000  C
  C354     1.0000 0.30950  0.71210  0.96610  Biso   1.000  C
  C355     1.0000 0.22070  0.05510  0.22990  Biso   1.000  C
  C356     1.0000 0.77620  0.61070  0.74850  Biso   1.000  C
  C357     1.0000 0.40240  0.99210  0.19290  Biso   1.000  C
  C358     1.0000 0.80240  0.72470  0.96570  Biso   1.000  C
  C359     1.0000 0.90370  0.98880  0.20080  Biso   1.000  C
  C360     1.0000 0.64150  0.44690  0.24470  Biso   1.000  C
  C361     1.0000 0.91480  0.72450  0.90550  Biso   1.000  C
  C362     1.0000 0.97070  0.44680  0.71680  Biso   1.000  C
  C363     1.0000 0.19740  0.27350  0.68370  Biso   1.000  C
  C364     1.0000 0.46040  0.94000  0.18880  Biso   1.000  C
  C365     1.0000 0.83200  0.94250  0.25550  Biso   1.000  C
  C366     1.0000 0.72310  0.15270  0.23870  Biso   1.000  C
  C367     1.0000 0.83520  0.55640  0.74400  Biso   1.000  C
  C368     1.0000 0.64820  0.60700  0.23980  Biso   1.000  C
  C369     1.0000 0.78160  0.10140  0.23160  Biso   1.000  C
  C370     1.0000 0.72130  0.05130  0.24690  Biso   1.000  C
  C371     1.0000 0.64760  0.55380  0.24080  Biso   1.000  C
  C372     1.0000 0.21620  0.15630  0.24230  Biso   1.000  C
  C373     1.0000 0.16470  0.10550  0.23810  Biso   1.000  C
  C374     1.0000 0.77180  0.55860  0.68580  Biso   1.000  C
  C375     1.0000 0.58520  0.49600  0.26960  Biso   1.000  C
  C376     1.0000 0.38980  0.89150  0.23910  Biso   1.000  C
  C377     1.0000 0.39970  0.75590  0.86670  Biso   1.000  C
  C378     1.0000 0.64130  0.79500  0.46540  Biso   1.000  C
  C379     1.0000 0.82340  0.51150  0.68550  Biso   1.000  C
  C380     1.0000 0.65180  0.74030  0.31330  Biso   1.000  C
  C381     1.0000 0.53210  0.60740  0.27100  Biso   1.000  C
  C382     1.0000 0.45080  0.21250  0.43110  Biso   1.000  C
  C383     1.0000 0.50820  0.21490  0.36750  Biso   1.000  C
  C384     1.0000 0.66440  0.10420  0.25360  Biso   1.000  C
  N17      1.0000 0.06110  0.26040  0.19500  Biso   1.000  N
  N18      1.0000 0.50880  0.33520  0.75000  Biso   1.000  N
  N19      1.0000 0.56780  0.25480  0.19340  Biso   1.000  N
  N20      1.0000 0.09240  0.65970  0.25790  Biso   1.000  N
  N21      1.0000 0.10400  0.74760  0.30420  Biso   1.000  N
  N22      1.0000 0.65740  0.24450  0.69630  Biso   1.000  N
  N23      1.0000 0.06980  0.84600  0.75160  Biso   1.000  N
  N24      1.0000 0.56430  0.84480  0.75480  Biso   1.000  N
  N25      1.0000 0.51650  0.73960  0.80500  Biso   1.000  N
  N26      1.0000 0.59400  0.66480  0.25000  Biso   1.000  N
  N27      1.0000 0.01600  0.74520  0.80660  Biso   1.000  N
  N28      1.0000 0.01000  0.34030  0.74210  Biso   1.000  N
  N29      1.0000 0.15580  0.25240  0.69580  Biso   1.000  N
  N30      1.0000 0.59820  0.75550  0.30370  Biso   1.000  N
  N31      1.0000 0.66740  0.15400  0.24840  Biso   1.000  N
  N32      1.0000 0.16390  0.15520  0.24520  Biso   1.000  N
  O33      1.0000 0.14470  0.66220  0.70980  Biso   1.000  O
  O34      1.0000 0.01150  0.33550  0.30270  Biso   1.000  O
  O35      1.0000 0.60190  0.16600  0.79840  Biso   1.000  O
  O36      1.0000 0.10360  0.17010  0.79710  Biso   1.000  O
  O37      1.0000 0.00200  0.20880  0.32600  Biso   1.000  O
  O38      1.0000 0.08940  0.29070  0.82150  Biso   1.000  O
  O39      1.0000 0.53260  0.21230  0.75490  Biso   1.000  O
  O40      1.0000 0.12090  0.29100  0.25520  Biso   1.000  O
  O41      1.0000 0.59090  0.28580  0.82380  Biso   1.000  O
  O42      1.0000 0.03310  0.21710  0.75610  Biso   1.000  O
  O43      1.0000 0.16920  0.70870  0.74690  Biso   1.000  O
  O44      1.0000 0.05460  0.21310  0.36750  Biso   1.000  O
  O45      1.0000 0.49610  0.27610  0.86990  Biso   1.000  O
  O46      1.0000 0.98840  0.28750  0.86950  Biso   1.000  O
  O47      1.0000 0.04070  0.79070  0.67510  Biso   1.000  O
  O48      1.0000 0.14120  0.77750  0.63490  Biso   1.000  O
  O49      1.0000 0.51670  0.33780  0.29020  Biso   1.000  O
  O50      1.0000 0.64970  0.66450  0.69730  Biso   1.000  O
  O51      1.0000 0.56630  0.83400  0.20160  Biso   1.000  O
  O52      1.0000 0.07080  0.82990  0.20290  Biso   1.000  O
  O53      1.0000 0.53680  0.79120  0.67400  Biso   1.000  O
  O54      1.0000 0.20160  0.70930  0.17850  Biso   1.000  O
  O55      1.0000 0.49980  0.78770  0.24510  Biso   1.000  O
  O56      1.0000 0.66710  0.70900  0.74480  Biso   1.000  O
  O57      1.0000 0.70050  0.71420  0.17620  Biso   1.000  O
  O58      1.0000 0.00630  0.78290  0.24390  Biso   1.000  O
  O59      1.0000 0.62480  0.29130  0.25310  Biso   1.000  O
  O60      1.0000 0.63520  0.78690  0.63250  Biso   1.000  O
  O61      1.0000 0.64210  0.72390  0.13010  Biso   1.000  O
  O62      1.0000 0.14540  0.71250  0.13050  Biso   1.000  O
  O63      1.0000 0.50650  0.20930  0.32490  Biso   1.000  O
  O64      1.0000 0.55360  0.22250  0.36510  Biso   1.000  O
