data_image0
_cell_length_a       14.907
_cell_length_b       25.531
_cell_length_c       25.531
_cell_angle_alpha    120
_cell_angle_beta     90
_cell_angle_gamma    90

_symmetry_space_group_name_H-M    P 1
_symmetry_int_tables_number       1

loop_
  _symmetry_equiv_pos_as_xyz
  'x, y, z'

loop_
  _atom_site_label
  _atom_site_occupancy
  _atom_site_fract_x
  _atom_site_fract_y
  _atom_site_fract_z
  _atom_site_thermal_displace_type
  _atom_site_B_iso_or_equiv
  _atom_site_type_symbol
  Ni1      1.0000 0.11727  0.48358  0.55502  Biso   1.000  Ni
  Ni2      1.0000 0.78394  0.07144  0.51642  Biso   1.000  Ni
  Ni3      1.0000 0.45060  0.44498  0.92856  Biso   1.000  Ni
  Ni4      1.0000 0.88273  0.92856  0.44498  Biso   1.000  Ni
  Ni5      1.0000 0.21606  0.55502  0.48358  Biso   1.000  Ni
  Ni6      1.0000 0.54940  0.51642  0.07144  Biso   1.000  Ni
  H1       1.0000 0.12550  0.58890  0.57600  Biso   1.000  H
  H2       1.0000 0.96290  0.38300  0.41230  Biso   1.000  H
  H3       1.0000 0.86690  0.52230  0.64790  Biso   1.000  H
  H4       1.0000 0.37900  0.49850  0.68820  Biso   1.000  H
  H5       1.0000 0.13690  0.48520  0.75120  Biso   1.000  H
  H6       1.0000 0.30780  0.50270  0.61040  Biso   1.000  H
  H7       1.0000 0.07220  0.48900  0.67130  Biso   1.000  H
  H8       1.0000 0.43800  0.49690  0.76160  Biso   1.000  H
  H9       1.0000 0.75610  0.59630  0.79210  Biso   1.000  H
  H10      1.0000 0.83720  0.55100  0.75720  Biso   1.000  H
  H11      1.0000 0.64460  0.38640  0.55290  Biso   1.000  H
  H12      1.0000 0.04330  0.33970  0.29770  Biso   1.000  H
  H13      1.0000 0.09950  0.37390  0.35950  Biso   1.000  H
  H14      1.0000 0.74590  0.56740  0.59470  Biso   1.000  H
  H15      1.0000 0.83740  0.53380  0.56290  Biso   1.000  H
  H16      1.0000 0.50300  0.47380  0.82980  Biso   1.000  H
  H17      1.0000 0.97940  0.66130  0.74680  Biso   1.000  H
  H18      1.0000 0.97740  0.59170  0.72910  Biso   1.000  H
  H19      1.0000 0.74120  0.36550  0.35840  Biso   1.000  H
  H20      1.0000 0.79810  0.38390  0.41820  Biso   1.000  H
  H21      1.0000 0.19820  0.47130  0.81390  Biso   1.000  H
  H22      1.0000 0.89410  0.64990  0.82000  Biso   1.000  H
  H23      1.0000 0.83110  0.67550  0.78700  Biso   1.000  H
  H24      1.0000 0.78850  0.44410  0.54450  Biso   1.000  H
  H25      1.0000 0.69780  0.47300  0.53690  Biso   1.000  H
  H26      1.0000 0.71420  0.65550  0.72540  Biso   1.000  H
  H27      1.0000 0.64060  0.61850  0.73930  Biso   1.000  H
  H28      1.0000 0.65520  0.60480  0.67150  Biso   1.000  H
  H29      1.0000 0.03910  0.44500  0.32100  Biso   1.000  H
  H30      1.0000 0.99030  0.50910  0.35920  Biso   1.000  H
  H31      1.0000 0.93320  0.45040  0.31460  Biso   1.000  H
  H32      1.0000 0.91430  0.69420  0.68240  Biso   1.000  H
  H33      1.0000 0.81570  0.68130  0.69800  Biso   1.000  H
  H34      1.0000 0.84660  0.65240  0.62900  Biso   1.000  H
  H35      1.0000 0.88210  0.48530  0.46930  Biso   1.000  H
  H36      1.0000 0.87940  0.52540  0.43710  Biso   1.000  H
  H37      1.0000 0.66710  0.52010  0.75780  Biso   1.000  H
  H38      1.0000 0.74380  0.47010  0.41880  Biso   1.000  H
  H39      1.0000 0.79430  0.45080  0.35650  Biso   1.000  H
  H40      1.0000 0.58720  0.43260  0.72420  Biso   1.000  H
  H41      1.0000 0.91500  0.31520  0.25190  Biso   1.000  H
  H42      1.0000 0.86110  0.37760  0.27890  Biso   1.000  H
  H43      1.0000 0.80840  0.31600  0.25950  Biso   1.000  H
  H44      1.0000 0.07380  0.29960  0.38210  Biso   1.000  H
  H45      1.0000 0.09250  0.26260  0.31070  Biso   1.000  H
  H46      1.0000 0.26890  0.45280  0.88320  Biso   1.000  H
  H47      1.0000 0.52060  0.33440  0.57320  Biso   1.000  H
  H48      1.0000 0.65780  0.28350  0.56230  Biso   1.000  H
  H49      1.0000 0.57640  0.24910  0.57300  Biso   1.000  H
  H50      1.0000 0.64360  0.28970  0.62720  Biso   1.000  H
  H51      1.0000 0.44540  0.37620  0.66840  Biso   1.000  H
  H52      1.0000 0.51440  0.34130  0.68820  Biso   1.000  H
  H53      1.0000 0.44710  0.30390  0.63290  Biso   1.000  H
  H54      1.0000 0.76070  0.26320  0.32970  Biso   1.000  H
  H55      1.0000 0.77450  0.16780  0.32090  Biso   1.000  H
  H56      1.0000 0.04470  0.18750  0.33430  Biso   1.000  H
  H57      1.0000 0.97500  0.10930  0.35040  Biso   1.000  H
  H58      1.0000 0.01230  0.07640  0.24940  Biso   1.000  H
  H59      1.0000 0.91180  0.05290  0.22940  Biso   1.000  H
  H60      1.0000 0.97470  0.02200  0.25720  Biso   1.000  H
  H61      1.0000 0.82690  0.10950  0.37880  Biso   1.000  H
  H62      1.0000 0.85660  0.04150  0.33210  Biso   1.000  H
  H63      1.0000 0.79490  0.07790  0.30980  Biso   1.000  H
  H64      1.0000 0.79217  0.98710  0.41110  Biso   1.000  H
  H65      1.0000 0.62957  0.02930  0.61700  Biso   1.000  H
  H66      1.0000 0.53357  0.12560  0.47770  Biso   1.000  H
  H67      1.0000 0.04567  0.18970  0.50150  Biso   1.000  H
  H68      1.0000 0.80357  0.26600  0.51480  Biso   1.000  H
  H69      1.0000 0.97447  0.10770  0.49730  Biso   1.000  H
  H70      1.0000 0.73887  0.18230  0.51100  Biso   1.000  H
  H71      1.0000 0.10467  0.26470  0.50310  Biso   1.000  H
  H72      1.0000 0.42277  0.19580  0.40370  Biso   1.000  H
  H73      1.0000 0.50387  0.20620  0.44900  Biso   1.000  H
  H74      1.0000 0.31127  0.16650  0.61360  Biso   1.000  H
  H75      1.0000 0.70997  0.95800  0.66030  Biso   1.000  H
  H76      1.0000 0.76617  0.98560  0.62610  Biso   1.000  H
  H77      1.0000 0.41257  0.02730  0.43260  Biso   1.000  H
  H78      1.0000 0.50407  0.02910  0.46620  Biso   1.000  H
  H79      1.0000 0.16967  0.35600  0.52620  Biso   1.000  H
  H80      1.0000 0.64607  0.08550  0.33870  Biso   1.000  H
  H81      1.0000 0.64407  0.13740  0.40830  Biso   1.000  H
  H82      1.0000 0.40787  0.99290  0.63450  Biso   1.000  H
  H83      1.0000 0.46477  0.03430  0.61610  Biso   1.000  H
  H84      1.0000 0.86487  0.34260  0.52870  Biso   1.000  H
  H85      1.0000 0.56077  0.17010  0.35010  Biso   1.000  H
  H86      1.0000 0.49777  0.11150  0.32450  Biso   1.000  H
  H87      1.0000 0.45517  0.10040  0.55590  Biso   1.000  H
  H88      1.0000 0.36447  0.06390  0.52700  Biso   1.000  H
  H89      1.0000 0.38087  0.06990  0.34450  Biso   1.000  H
  H90      1.0000 0.30727  0.12080  0.38150  Biso   1.000  H
  H91      1.0000 0.32187  0.06670  0.39520  Biso   1.000  H
  H92      1.0000 0.70577  0.87600  0.55500  Biso   1.000  H
  H93      1.0000 0.65697  0.85010  0.49090  Biso   1.000  H
  H94      1.0000 0.59987  0.86420  0.54960  Biso   1.000  H
  H95      1.0000 0.58097  0.98820  0.30580  Biso   1.000  H
  H96      1.0000 0.48237  0.01670  0.31870  Biso   1.000  H
  H97      1.0000 0.51327  0.97660  0.34760  Biso   1.000  H
  H98      1.0000 0.54877  0.98400  0.51470  Biso   1.000  H
  H99      1.0000 0.54607  0.91170  0.47460  Biso   1.000  H
  H100     1.0000 0.33377  0.23770  0.47990  Biso   1.000  H
  H101     1.0000 0.41047  0.94870  0.52990  Biso   1.000  H
  H102     1.0000 0.46097  0.90570  0.54920  Biso   1.000  H
  H103     1.0000 0.25387  0.29160  0.56740  Biso   1.000  H
  H104     1.0000 0.58167  0.93670  0.68480  Biso   1.000  H
  H105     1.0000 0.52777  0.90130  0.62240  Biso   1.000  H
  H106     1.0000 0.47507  0.94350  0.68400  Biso   1.000  H
  H107     1.0000 0.74047  0.08250  0.70040  Biso   1.000  H
  H108     1.0000 0.75917  0.04810  0.73740  Biso   1.000  H
  H109     1.0000 0.93557  0.43040  0.54720  Biso   1.000  H
  H110     1.0000 0.18727  0.23880  0.66560  Biso   1.000  H
  H111     1.0000 0.32447  0.27880  0.71650  Biso   1.000  H
  H112     1.0000 0.24307  0.32390  0.75090  Biso   1.000  H
  H113     1.0000 0.31027  0.33750  0.71030  Biso   1.000  H
  H114     1.0000 0.11207  0.29220  0.62380  Biso   1.000  H
  H115     1.0000 0.18107  0.34690  0.65870  Biso   1.000  H
  H116     1.0000 0.11377  0.32900  0.69610  Biso   1.000  H
  H117     1.0000 0.42737  0.06650  0.73680  Biso   1.000  H
  H118     1.0000 0.44117  0.15310  0.83220  Biso   1.000  H
  H119     1.0000 0.71137  0.14680  0.81250  Biso   1.000  H
  H120     1.0000 0.64167  0.24110  0.89070  Biso   1.000  H
  H121     1.0000 0.67897  0.17300  0.92360  Biso   1.000  H
  H122     1.0000 0.57847  0.17650  0.94710  Biso   1.000  H
  H123     1.0000 0.64137  0.23520  0.97800  Biso   1.000  H
  H124     1.0000 0.49357  0.26930  0.89050  Biso   1.000  H
  H125     1.0000 0.52327  0.29060  0.95850  Biso   1.000  H
  H126     1.0000 0.46157  0.23190  0.92210  Biso   1.000  H
  H127     1.0000 0.45883  0.42400  0.01290  Biso   1.000  H
  H128     1.0000 0.29623  0.58770  0.97070  Biso   1.000  H
  H129     1.0000 0.20023  0.35210  0.87440  Biso   1.000  H
  H130     1.0000 0.71233  0.31180  0.81030  Biso   1.000  H
  H131     1.0000 0.47023  0.24880  0.73400  Biso   1.000  H
  H132     1.0000 0.64113  0.38960  0.89230  Biso   1.000  H
  H133     1.0000 0.40553  0.32870  0.81770  Biso   1.000  H
  H134     1.0000 0.77133  0.23840  0.73530  Biso   1.000  H
  H135     1.0000 0.08943  0.20790  0.80420  Biso   1.000  H
  H136     1.0000 0.17053  0.24280  0.79380  Biso   1.000  H
  H137     1.0000 0.97793  0.44710  0.83350  Biso   1.000  H
  H138     1.0000 0.37663  0.70230  0.04200  Biso   1.000  H
  H139     1.0000 0.43283  0.64050  0.01440  Biso   1.000  H
  H140     1.0000 0.07923  0.40530  0.97270  Biso   1.000  H
  H141     1.0000 0.17073  0.43710  0.97090  Biso   1.000  H
  H142     1.0000 0.83633  0.17020  0.64400  Biso   1.000  H
  H143     1.0000 0.31273  0.25320  0.91450  Biso   1.000  H
  H144     1.0000 0.31073  0.27090  0.86260  Biso   1.000  H
  H145     1.0000 0.07453  0.64160  0.00710  Biso   1.000  H
  H146     1.0000 0.13143  0.58180  0.96570  Biso   1.000  H
  H147     1.0000 0.53153  0.18610  0.65740  Biso   1.000  H
  H148     1.0000 0.22743  0.18000  0.82990  Biso   1.000  H
  H149     1.0000 0.16443  0.21300  0.88850  Biso   1.000  H
  H150     1.0000 0.12183  0.45550  0.89960  Biso   1.000  H
  H151     1.0000 0.03113  0.46310  0.93610  Biso   1.000  H
  H152     1.0000 0.04753  0.27460  0.93010  Biso   1.000  H
  H153     1.0000 0.97393  0.26070  0.87920  Biso   1.000  H
  H154     1.0000 0.98853  0.32850  0.93330  Biso   1.000  H
  H155     1.0000 0.37243  0.67900  0.12400  Biso   1.000  H
  H156     1.0000 0.32363  0.64080  0.14990  Biso   1.000  H
  H157     1.0000 0.26653  0.68540  0.13580  Biso   1.000  H
  H158     1.0000 0.24763  0.31760  0.01180  Biso   1.000  H
  H159     1.0000 0.14903  0.30200  0.98330  Biso   1.000  H
  H160     1.0000 0.17993  0.37100  0.02340  Biso   1.000  H
  H161     1.0000 0.21543  0.53070  0.01600  Biso   1.000  H
  H162     1.0000 0.21273  0.56290  0.08830  Biso   1.000  H
  H163     1.0000 0.00043  0.24220  0.76230  Biso   1.000  H
  H164     1.0000 0.07713  0.58120  0.05130  Biso   1.000  H
  H165     1.0000 0.12763  0.64350  0.09430  Biso   1.000  H
  H166     1.0000 0.92053  0.27580  0.70840  Biso   1.000  H
  H167     1.0000 0.24833  0.74810  0.06330  Biso   1.000  H
  H168     1.0000 0.19443  0.72110  0.09870  Biso   1.000  H
  H169     1.0000 0.14173  0.74050  0.05650  Biso   1.000  H
  H170     1.0000 0.40713  0.61790  0.91750  Biso   1.000  H
  H171     1.0000 0.42583  0.68930  0.95190  Biso   1.000  H
  H172     1.0000 0.60223  0.11680  0.56960  Biso   1.000  H
  H173     1.0000 0.85393  0.42680  0.76120  Biso   1.000  H
  H174     1.0000 0.99113  0.43770  0.72120  Biso   1.000  H
  H175     1.0000 0.90973  0.42700  0.67610  Biso   1.000  H
  H176     1.0000 0.97693  0.37280  0.66250  Biso   1.000  H
  H177     1.0000 0.77873  0.33160  0.70780  Biso   1.000  H
  H178     1.0000 0.84773  0.31180  0.65310  Biso   1.000  H
  H179     1.0000 0.78043  0.36710  0.67100  Biso   1.000  H
  H180     1.0000 0.09403  0.67030  0.93350  Biso   1.000  H
  H181     1.0000 0.10783  0.67910  0.84690  Biso   1.000  H
  H182     1.0000 0.37803  0.66570  0.85320  Biso   1.000  H
  H183     1.0000 0.30833  0.64960  0.75890  Biso   1.000  H
  H184     1.0000 0.34563  0.75060  0.82700  Biso   1.000  H
  H185     1.0000 0.24513  0.77060  0.82350  Biso   1.000  H
  H186     1.0000 0.30803  0.74280  0.76480  Biso   1.000  H
  H187     1.0000 0.16023  0.62120  0.73070  Biso   1.000  H
  H188     1.0000 0.18993  0.66790  0.70940  Biso   1.000  H
  H189     1.0000 0.12823  0.69020  0.76810  Biso   1.000  H
  H190     1.0000 0.87450  0.01290  0.42400  Biso   1.000  H
  H191     1.0000 0.03710  0.97070  0.58770  Biso   1.000  H
  H192     1.0000 0.13310  0.87440  0.35210  Biso   1.000  H
  H193     1.0000 0.62100  0.81030  0.31180  Biso   1.000  H
  H194     1.0000 0.86310  0.73400  0.24880  Biso   1.000  H
  H195     1.0000 0.69220  0.89230  0.38960  Biso   1.000  H
  H196     1.0000 0.92780  0.81770  0.32870  Biso   1.000  H
  H197     1.0000 0.56200  0.73530  0.23840  Biso   1.000  H
  H198     1.0000 0.24390  0.80420  0.20790  Biso   1.000  H
  H199     1.0000 0.16280  0.79380  0.24280  Biso   1.000  H
  H200     1.0000 0.35540  0.83350  0.44710  Biso   1.000  H
  H201     1.0000 0.95670  0.04200  0.70230  Biso   1.000  H
  H202     1.0000 0.90050  0.01440  0.64050  Biso   1.000  H
  H203     1.0000 0.25410  0.97270  0.40530  Biso   1.000  H
  H204     1.0000 0.16260  0.97090  0.43710  Biso   1.000  H
  H205     1.0000 0.49700  0.64400  0.17020  Biso   1.000  H
  H206     1.0000 0.02060  0.91450  0.25320  Biso   1.000  H
  H207     1.0000 0.02260  0.86260  0.27090  Biso   1.000  H
  H208     1.0000 0.25880  0.00710  0.64160  Biso   1.000  H
  H209     1.0000 0.20190  0.96570  0.58180  Biso   1.000  H
  H210     1.0000 0.80180  0.65740  0.18610  Biso   1.000  H
  H211     1.0000 0.10590  0.82990  0.18000  Biso   1.000  H
  H212     1.0000 0.16890  0.88850  0.21300  Biso   1.000  H
  H213     1.0000 0.21150  0.89960  0.45550  Biso   1.000  H
  H214     1.0000 0.30220  0.93610  0.46310  Biso   1.000  H
  H215     1.0000 0.28580  0.93010  0.27460  Biso   1.000  H
  H216     1.0000 0.35940  0.87920  0.26070  Biso   1.000  H
  H217     1.0000 0.34480  0.93330  0.32850  Biso   1.000  H
  H218     1.0000 0.96090  0.12400  0.67900  Biso   1.000  H
  H219     1.0000 0.00970  0.14990  0.64080  Biso   1.000  H
  H220     1.0000 0.06680  0.13580  0.68540  Biso   1.000  H
  H221     1.0000 0.08570  0.01180  0.31760  Biso   1.000  H
  H222     1.0000 0.18430  0.98330  0.30200  Biso   1.000  H
  H223     1.0000 0.15340  0.02340  0.37100  Biso   1.000  H
  H224     1.0000 0.11790  0.01600  0.53070  Biso   1.000  H
  H225     1.0000 0.12060  0.08830  0.56290  Biso   1.000  H
  H226     1.0000 0.33290  0.76230  0.24220  Biso   1.000  H
  H227     1.0000 0.25620  0.05130  0.58120  Biso   1.000  H
  H228     1.0000 0.20570  0.09430  0.64350  Biso   1.000  H
  H229     1.0000 0.41280  0.70840  0.27580  Biso   1.000  H
  H230     1.0000 0.08500  0.06330  0.74810  Biso   1.000  H
  H231     1.0000 0.13890  0.09870  0.72110  Biso   1.000  H
  H232     1.0000 0.19160  0.05650  0.74050  Biso   1.000  H
  H233     1.0000 0.92620  0.91750  0.61790  Biso   1.000  H
  H234     1.0000 0.90750  0.95190  0.68930  Biso   1.000  H
  H235     1.0000 0.73110  0.56960  0.11680  Biso   1.000  H
  H236     1.0000 0.47940  0.76120  0.42680  Biso   1.000  H
  H237     1.0000 0.34220  0.72120  0.43770  Biso   1.000  H
  H238     1.0000 0.42360  0.67610  0.42700  Biso   1.000  H
  H239     1.0000 0.35640  0.66250  0.37280  Biso   1.000  H
  H240     1.0000 0.55460  0.70780  0.33160  Biso   1.000  H
  H241     1.0000 0.48560  0.65310  0.31180  Biso   1.000  H
  H242     1.0000 0.55290  0.67100  0.36710  Biso   1.000  H
  H243     1.0000 0.23930  0.93350  0.67030  Biso   1.000  H
  H244     1.0000 0.22550  0.84690  0.67910  Biso   1.000  H
  H245     1.0000 0.95530  0.85320  0.66570  Biso   1.000  H
  H246     1.0000 0.02500  0.75890  0.64960  Biso   1.000  H
  H247     1.0000 0.98770  0.82700  0.75060  Biso   1.000  H
  H248     1.0000 0.08820  0.82350  0.77060  Biso   1.000  H
  H249     1.0000 0.02530  0.76480  0.74280  Biso   1.000  H
  H250     1.0000 0.17310  0.73070  0.62120  Biso   1.000  H
  H251     1.0000 0.14340  0.70940  0.66790  Biso   1.000  H
  H252     1.0000 0.20510  0.76810  0.69020  Biso   1.000  H
  H253     1.0000 0.20783  0.57600  0.58890  Biso   1.000  H
  H254     1.0000 0.37043  0.41230  0.38300  Biso   1.000  H
  H255     1.0000 0.46643  0.64790  0.52230  Biso   1.000  H
  H256     1.0000 0.95433  0.68820  0.49850  Biso   1.000  H
  H257     1.0000 0.19643  0.75120  0.48520  Biso   1.000  H
  H258     1.0000 0.02553  0.61040  0.50270  Biso   1.000  H
  H259     1.0000 0.26113  0.67130  0.48900  Biso   1.000  H
  H260     1.0000 0.89533  0.76160  0.49690  Biso   1.000  H
  H261     1.0000 0.57723  0.79210  0.59630  Biso   1.000  H
  H262     1.0000 0.49613  0.75720  0.55100  Biso   1.000  H
  H263     1.0000 0.68873  0.55290  0.38640  Biso   1.000  H
  H264     1.0000 0.29003  0.29770  0.33970  Biso   1.000  H
  H265     1.0000 0.23383  0.35950  0.37390  Biso   1.000  H
  H266     1.0000 0.58743  0.59470  0.56740  Biso   1.000  H
  H267     1.0000 0.49593  0.56290  0.53380  Biso   1.000  H
  H268     1.0000 0.83033  0.82980  0.47380  Biso   1.000  H
  H269     1.0000 0.35393  0.74680  0.66130  Biso   1.000  H
  H270     1.0000 0.35593  0.72910  0.59170  Biso   1.000  H
  H271     1.0000 0.59213  0.35840  0.36550  Biso   1.000  H
  H272     1.0000 0.53523  0.41820  0.38390  Biso   1.000  H
  H273     1.0000 0.13513  0.81390  0.47130  Biso   1.000  H
  H274     1.0000 0.43923  0.82000  0.64990  Biso   1.000  H
  H275     1.0000 0.50223  0.78700  0.67550  Biso   1.000  H
  H276     1.0000 0.54483  0.54450  0.44410  Biso   1.000  H
  H277     1.0000 0.63553  0.53690  0.47300  Biso   1.000  H
  H278     1.0000 0.61913  0.72540  0.65550  Biso   1.000  H
  H279     1.0000 0.69273  0.73930  0.61850  Biso   1.000  H
  H280     1.0000 0.67813  0.67150  0.60480  Biso   1.000  H
  H281     1.0000 0.29423  0.32100  0.44500  Biso   1.000  H
  H282     1.0000 0.34303  0.35920  0.50910  Biso   1.000  H
  H283     1.0000 0.40013  0.31460  0.45040  Biso   1.000  H
  H284     1.0000 0.41903  0.68240  0.69420  Biso   1.000  H
  H285     1.0000 0.51763  0.69800  0.68130  Biso   1.000  H
  H286     1.0000 0.48673  0.62900  0.65240  Biso   1.000  H
  H287     1.0000 0.45123  0.46930  0.48530  Biso   1.000  H
  H288     1.0000 0.45393  0.43710  0.52540  Biso   1.000  H
  H289     1.0000 0.66623  0.75780  0.52010  Biso   1.000  H
  H290     1.0000 0.58953  0.41880  0.47010  Biso   1.000  H
  H291     1.0000 0.53903  0.35650  0.45080  Biso   1.000  H
  H292     1.0000 0.74613  0.72420  0.43260  Biso   1.000  H
  H293     1.0000 0.41833  0.25190  0.31520  Biso   1.000  H
  H294     1.0000 0.47223  0.27890  0.37760  Biso   1.000  H
  H295     1.0000 0.52493  0.25950  0.31600  Biso   1.000  H
  H296     1.0000 0.25953  0.38210  0.29960  Biso   1.000  H
  H297     1.0000 0.24083  0.31070  0.26260  Biso   1.000  H
  H298     1.0000 0.06443  0.88320  0.45280  Biso   1.000  H
  H299     1.0000 0.81273  0.57320  0.33440  Biso   1.000  H
  H300     1.0000 0.67553  0.56230  0.28350  Biso   1.000  H
  H301     1.0000 0.75693  0.57300  0.24910  Biso   1.000  H
  H302     1.0000 0.68973  0.62720  0.28970  Biso   1.000  H
  H303     1.0000 0.88793  0.66840  0.37620  Biso   1.000  H
  H304     1.0000 0.81893  0.68820  0.34130  Biso   1.000  H
  H305     1.0000 0.88623  0.63290  0.30390  Biso   1.000  H
  H306     1.0000 0.57263  0.32970  0.26320  Biso   1.000  H
  H307     1.0000 0.55883  0.32090  0.16780  Biso   1.000  H
  H308     1.0000 0.28863  0.33430  0.18750  Biso   1.000  H
  H309     1.0000 0.35833  0.35040  0.10930  Biso   1.000  H
  H310     1.0000 0.32103  0.24940  0.07640  Biso   1.000  H
  H311     1.0000 0.42153  0.22940  0.05290  Biso   1.000  H
  H312     1.0000 0.35863  0.25720  0.02200  Biso   1.000  H
  H313     1.0000 0.50643  0.37880  0.10950  Biso   1.000  H
  H314     1.0000 0.47673  0.33210  0.04150  Biso   1.000  H
  H315     1.0000 0.53843  0.30980  0.07790  Biso   1.000  H
  H316     1.0000 0.54117  0.41110  0.98710  Biso   1.000  H
  H317     1.0000 0.70377  0.61700  0.02930  Biso   1.000  H
  H318     1.0000 0.79977  0.47770  0.12560  Biso   1.000  H
  H319     1.0000 0.28767  0.50150  0.18970  Biso   1.000  H
  H320     1.0000 0.52977  0.51480  0.26600  Biso   1.000  H
  H321     1.0000 0.35887  0.49730  0.10770  Biso   1.000  H
  H322     1.0000 0.59447  0.51100  0.18230  Biso   1.000  H
  H323     1.0000 0.22867  0.50310  0.26470  Biso   1.000  H
  H324     1.0000 0.91057  0.40370  0.19580  Biso   1.000  H
  H325     1.0000 0.82947  0.44900  0.20620  Biso   1.000  H
  H326     1.0000 0.02207  0.61360  0.16650  Biso   1.000  H
  H327     1.0000 0.62337  0.66030  0.95800  Biso   1.000  H
  H328     1.0000 0.56717  0.62610  0.98560  Biso   1.000  H
  H329     1.0000 0.92077  0.43260  0.02730  Biso   1.000  H
  H330     1.0000 0.82927  0.46620  0.02910  Biso   1.000  H
  H331     1.0000 0.16367  0.52620  0.35600  Biso   1.000  H
  H332     1.0000 0.68727  0.33870  0.08550  Biso   1.000  H
  H333     1.0000 0.68927  0.40830  0.13740  Biso   1.000  H
  H334     1.0000 0.92547  0.63450  0.99290  Biso   1.000  H
  H335     1.0000 0.86857  0.61610  0.03430  Biso   1.000  H
  H336     1.0000 0.46847  0.52870  0.34260  Biso   1.000  H
  H337     1.0000 0.77257  0.35010  0.17010  Biso   1.000  H
  H338     1.0000 0.83557  0.32450  0.11150  Biso   1.000  H
  H339     1.0000 0.87817  0.55590  0.10040  Biso   1.000  H
  H340     1.0000 0.96887  0.52700  0.06390  Biso   1.000  H
  H341     1.0000 0.95247  0.34450  0.06990  Biso   1.000  H
  H342     1.0000 0.02607  0.38150  0.12080  Biso   1.000  H
  H343     1.0000 0.01147  0.39520  0.06670  Biso   1.000  H
  H344     1.0000 0.62757  0.55500  0.87600  Biso   1.000  H
  H345     1.0000 0.67637  0.49090  0.85010  Biso   1.000  H
  H346     1.0000 0.73347  0.54960  0.86420  Biso   1.000  H
  H347     1.0000 0.75237  0.30580  0.98820  Biso   1.000  H
  H348     1.0000 0.85097  0.31870  0.01670  Biso   1.000  H
  H349     1.0000 0.82007  0.34760  0.97660  Biso   1.000  H
  H350     1.0000 0.78457  0.51470  0.98400  Biso   1.000  H
  H351     1.0000 0.78727  0.47460  0.91170  Biso   1.000  H
  H352     1.0000 0.99957  0.47990  0.23770  Biso   1.000  H
  H353     1.0000 0.92287  0.52990  0.94870  Biso   1.000  H
  H354     1.0000 0.87237  0.54920  0.90570  Biso   1.000  H
  H355     1.0000 0.07947  0.56740  0.29160  Biso   1.000  H
  H356     1.0000 0.75167  0.68480  0.93670  Biso   1.000  H
  H357     1.0000 0.80557  0.62240  0.90130  Biso   1.000  H
  H358     1.0000 0.85827  0.68400  0.94350  Biso   1.000  H
  H359     1.0000 0.59287  0.70040  0.08250  Biso   1.000  H
  H360     1.0000 0.57417  0.73740  0.04810  Biso   1.000  H
  H361     1.0000 0.39777  0.54720  0.43040  Biso   1.000  H
  H362     1.0000 0.14607  0.66560  0.23880  Biso   1.000  H
  H363     1.0000 0.00887  0.71650  0.27880  Biso   1.000  H
  H364     1.0000 0.09027  0.75090  0.32390  Biso   1.000  H
  H365     1.0000 0.02307  0.71030  0.33750  Biso   1.000  H
  H366     1.0000 0.22127  0.62380  0.29220  Biso   1.000  H
  H367     1.0000 0.15227  0.65870  0.34690  Biso   1.000  H
  H368     1.0000 0.21957  0.69610  0.32900  Biso   1.000  H
  H369     1.0000 0.90597  0.73680  0.06650  Biso   1.000  H
  H370     1.0000 0.89217  0.83220  0.15310  Biso   1.000  H
  H371     1.0000 0.62197  0.81250  0.14680  Biso   1.000  H
  H372     1.0000 0.69167  0.89070  0.24110  Biso   1.000  H
  H373     1.0000 0.65437  0.92360  0.17300  Biso   1.000  H
  H374     1.0000 0.75487  0.94710  0.17650  Biso   1.000  H
  H375     1.0000 0.69197  0.97800  0.23520  Biso   1.000  H
  H376     1.0000 0.83977  0.89050  0.26930  Biso   1.000  H
  H377     1.0000 0.81007  0.95850  0.29060  Biso   1.000  H
  H378     1.0000 0.87177  0.92210  0.23190  Biso   1.000  H
  C1       1.0000 0.96170  0.38400  0.37360  Biso   1.000  C
  C2       1.0000 0.26770  0.49050  0.72890  Biso   1.000  C
  C3       1.0000 0.96790  0.45240  0.39470  Biso   1.000  C
  C4       1.0000 0.83160  0.55780  0.65290  Biso   1.000  C
  C5       1.0000 0.90120  0.60850  0.67100  Biso   1.000  C
  C6       1.0000 0.75720  0.56730  0.69970  Biso   1.000  C
  C7       1.0000 0.70710  0.50740  0.67590  Biso   1.000  C
  C8       1.0000 0.04690  0.47820  0.44050  Biso   1.000  C
  C9       1.0000 0.31540  0.49610  0.68570  Biso   1.000  C
  C10      1.0000 0.17380  0.48830  0.72250  Biso   1.000  C
  C11      1.0000 0.27260  0.49830  0.63890  Biso   1.000  C
  C12      1.0000 0.13570  0.49050  0.67470  Biso   1.000  C
  C13      1.0000 0.40080  0.48620  0.78500  Biso   1.000  C
  C14      1.0000 0.60670  0.39870  0.63400  Biso   1.000  C
  C15      1.0000 0.87580  0.34840  0.34160  Biso   1.000  C
  C16      1.0000 0.80280  0.58580  0.76080  Biso   1.000  C
  C17      1.0000 0.98210  0.58180  0.62630  Biso   1.000  C
  C18      1.0000 0.69850  0.46620  0.61460  Biso   1.000  C
  C19      1.0000 0.64930  0.41360  0.59520  Biso   1.000  C
  C20      1.0000 0.04550  0.34900  0.34030  Biso   1.000  C
  C21      1.0000 0.79000  0.53690  0.59140  Biso   1.000  C
  C22      1.0000 0.43950  0.47300  0.82670  Biso   1.000  C
  C23      1.0000 0.94010  0.62550  0.73300  Biso   1.000  C
  C24      1.0000 0.79750  0.38490  0.38000  Biso   1.000  C
  C25      1.0000 0.26180  0.47180  0.81570  Biso   1.000  C
  C26      1.0000 0.86600  0.63980  0.78080  Biso   1.000  C
  C27      1.0000 0.74380  0.47650  0.56650  Biso   1.000  C
  C28      1.0000 0.68510  0.61610  0.71000  Biso   1.000  C
  C29      1.0000 0.98410  0.46540  0.34260  Biso   1.000  C
  C30      1.0000 0.86630  0.66410  0.67010  Biso   1.000  C
  C31      1.0000 0.88140  0.48340  0.42960  Biso   1.000  C
  C32      1.0000 0.66330  0.49270  0.71550  Biso   1.000  C
  C33      1.0000 0.79760  0.44950  0.39450  Biso   1.000  C
  C34      1.0000 0.61530  0.44060  0.69560  Biso   1.000  C
  C35      1.0000 0.86400  0.33840  0.27710  Biso   1.000  C
  C36      1.0000 0.05080  0.29110  0.34230  Biso   1.000  C
  C37      1.0000 0.30480  0.46040  0.85700  Biso   1.000  C
  C38      1.0000 0.55330  0.34070  0.61010  Biso   1.000  C
  C39      1.0000 0.61310  0.28590  0.59150  Biso   1.000  C
  C40      1.0000 0.48390  0.34050  0.65380  Biso   1.000  C
  C41      1.0000 0.31040  0.48380  0.77740  Biso   1.000  C
  C42      1.0000 0.97890  0.25950  0.33860  Biso   1.000  C
  C43      1.0000 0.89450  0.28200  0.33730  Biso   1.000  C
  C44      1.0000 0.81830  0.24780  0.33060  Biso   1.000  C
  C45      1.0000 0.82650  0.19110  0.32530  Biso   1.000  C
  C46      1.0000 0.91090  0.16860  0.32670  Biso   1.000  C
  C47      1.0000 0.98710  0.20280  0.33330  Biso   1.000  C
  C48      1.0000 0.92680  0.10460  0.32110  Biso   1.000  C
  C49      1.0000 0.95920  0.06010  0.25890  Biso   1.000  C
  C50      1.0000 0.84400  0.08130  0.33680  Biso   1.000  C
  C51      1.0000 0.62837  0.98960  0.61600  Biso   1.000  C
  C52      1.0000 0.93437  0.23840  0.50950  Biso   1.000  C
  C53      1.0000 0.63457  0.94230  0.54760  Biso   1.000  C
  C54      1.0000 0.49827  0.09510  0.44220  Biso   1.000  C
  C55      1.0000 0.56787  0.06250  0.39150  Biso   1.000  C
  C56      1.0000 0.42387  0.13240  0.43270  Biso   1.000  C
  C57      1.0000 0.37377  0.16850  0.49260  Biso   1.000  C
  C58      1.0000 0.71357  0.96230  0.52180  Biso   1.000  C
  C59      1.0000 0.98207  0.18960  0.50390  Biso   1.000  C
  C60      1.0000 0.84047  0.23420  0.51170  Biso   1.000  C
  C61      1.0000 0.93927  0.14060  0.50170  Biso   1.000  C
  C62      1.0000 0.80237  0.18420  0.50950  Biso   1.000  C
  C63      1.0000 0.06747  0.29880  0.51380  Biso   1.000  C
  C64      1.0000 0.27337  0.23530  0.60130  Biso   1.000  C
  C65      1.0000 0.54247  0.99320  0.65160  Biso   1.000  C
  C66      1.0000 0.46947  0.17500  0.41420  Biso   1.000  C
  C67      1.0000 0.64877  0.04450  0.41820  Biso   1.000  C
  C68      1.0000 0.36517  0.14840  0.53380  Biso   1.000  C
  C69      1.0000 0.31597  0.18160  0.58640  Biso   1.000  C
  C70      1.0000 0.71217  0.99130  0.65100  Biso   1.000  C
  C71      1.0000 0.45667  0.05450  0.46310  Biso   1.000  C
  C72      1.0000 0.10617  0.35370  0.52700  Biso   1.000  C
  C73      1.0000 0.60677  0.10750  0.37450  Biso   1.000  C
  C74      1.0000 0.46417  0.99510  0.61510  Biso   1.000  C
  C75      1.0000 0.92847  0.34390  0.52820  Biso   1.000  C
  C76      1.0000 0.53267  0.14100  0.36020  Biso   1.000  C
  C77      1.0000 0.41047  0.09000  0.52350  Biso   1.000  C
  C78      1.0000 0.35177  0.09390  0.38390  Biso   1.000  C
  C79      1.0000 0.65077  0.87720  0.53460  Biso   1.000  C
  C80      1.0000 0.53297  0.00600  0.33590  Biso   1.000  C
  C81      1.0000 0.54807  0.94620  0.51660  Biso   1.000  C
  C82      1.0000 0.32997  0.22280  0.50730  Biso   1.000  C
  C83      1.0000 0.46427  0.94500  0.55050  Biso   1.000  C
  C84      1.0000 0.28197  0.25500  0.55940  Biso   1.000  C
  C85      1.0000 0.53067  0.93870  0.66160  Biso   1.000  C
  C86      1.0000 0.71747  0.05120  0.70890  Biso   1.000  C
  C87      1.0000 0.97147  0.39660  0.53960  Biso   1.000  C
  C88      1.0000 0.21997  0.26940  0.65930  Biso   1.000  C
  C89      1.0000 0.27977  0.30560  0.71410  Biso   1.000  C
  C90      1.0000 0.15057  0.31330  0.65950  Biso   1.000  C
  C91      1.0000 0.97707  0.29360  0.51620  Biso   1.000  C
  C92      1.0000 0.64557  0.07910  0.74050  Biso   1.000  C
  C93      1.0000 0.56117  0.05530  0.71800  Biso   1.000  C
  C94      1.0000 0.48497  0.08280  0.75220  Biso   1.000  C
  C95      1.0000 0.49317  0.13420  0.80890  Biso   1.000  C
  C96      1.0000 0.57757  0.15810  0.83140  Biso   1.000  C
  C97      1.0000 0.65377  0.13050  0.79720  Biso   1.000  C
  C98      1.0000 0.59347  0.21650  0.89540  Biso   1.000  C
  C99      1.0000 0.62587  0.19880  0.93990  Biso   1.000  C
  C100     1.0000 0.51067  0.25550  0.91870  Biso   1.000  C
  C101     1.0000 0.29503  0.62640  0.01040  Biso   1.000  C
  C102     1.0000 0.60103  0.27110  0.76160  Biso   1.000  C
  C103     1.0000 0.30123  0.60530  0.05770  Biso   1.000  C
  C104     1.0000 0.16493  0.34710  0.90490  Biso   1.000  C
  C105     1.0000 0.23453  0.32900  0.93750  Biso   1.000  C
  C106     1.0000 0.09053  0.30030  0.86760  Biso   1.000  C
  C107     1.0000 0.04043  0.32410  0.83150  Biso   1.000  C
  C108     1.0000 0.38023  0.55950  0.03770  Biso   1.000  C
  C109     1.0000 0.64873  0.31430  0.81040  Biso   1.000  C
  C110     1.0000 0.50713  0.27750  0.76580  Biso   1.000  C
  C111     1.0000 0.60593  0.36110  0.85940  Biso   1.000  C
  C112     1.0000 0.46903  0.32530  0.81580  Biso   1.000  C
  C113     1.0000 0.73413  0.21500  0.70120  Biso   1.000  C
  C114     1.0000 0.94003  0.36600  0.76470  Biso   1.000  C
  C115     1.0000 0.20913  0.65840  0.00680  Biso   1.000  C
  C116     1.0000 0.13613  0.23920  0.82500  Biso   1.000  C
  C117     1.0000 0.31543  0.37370  0.95550  Biso   1.000  C
  C118     1.0000 0.03183  0.38540  0.85160  Biso   1.000  C
  C119     1.0000 0.98263  0.40480  0.81840  Biso   1.000  C
  C120     1.0000 0.37883  0.65970  0.00870  Biso   1.000  C
  C121     1.0000 0.12333  0.40860  0.94550  Biso   1.000  C
  C122     1.0000 0.77283  0.17330  0.64630  Biso   1.000  C
  C123     1.0000 0.27343  0.26700  0.89250  Biso   1.000  C
  C124     1.0000 0.13083  0.62000  0.00490  Biso   1.000  C
  C125     1.0000 0.59513  0.18430  0.65610  Biso   1.000  C
  C126     1.0000 0.19933  0.21920  0.85900  Biso   1.000  C
  C127     1.0000 0.07713  0.43350  0.91000  Biso   1.000  C
  C128     1.0000 0.01843  0.29000  0.90610  Biso   1.000  C
  C129     1.0000 0.31743  0.65740  0.12280  Biso   1.000  C
  C130     1.0000 0.19963  0.32990  0.99400  Biso   1.000  C
  C131     1.0000 0.21473  0.57040  0.05380  Biso   1.000  C
  C132     1.0000 0.99663  0.28450  0.77720  Biso   1.000  C
  C133     1.0000 0.13093  0.60550  0.05500  Biso   1.000  C
  C134     1.0000 0.94863  0.30440  0.74500  Biso   1.000  C
  C135     1.0000 0.19733  0.72290  0.06130  Biso   1.000  C
  C136     1.0000 0.38413  0.65770  0.94880  Biso   1.000  C
  C137     1.0000 0.63813  0.14300  0.60340  Biso   1.000  C
  C138     1.0000 0.88663  0.38990  0.73060  Biso   1.000  C
  C139     1.0000 0.94643  0.40850  0.69440  Biso   1.000  C
  C140     1.0000 0.81723  0.34620  0.68670  Biso   1.000  C
  C141     1.0000 0.64373  0.22260  0.70640  Biso   1.000  C
  C142     1.0000 0.31223  0.66140  0.92090  Biso   1.000  C
  C143     1.0000 0.22783  0.66270  0.94470  Biso   1.000  C
  C144     1.0000 0.15163  0.66940  0.91720  Biso   1.000  C
  C145     1.0000 0.15983  0.67470  0.86580  Biso   1.000  C
  C146     1.0000 0.24423  0.67330  0.84190  Biso   1.000  C
  C147     1.0000 0.32043  0.66670  0.86950  Biso   1.000  C
  C148     1.0000 0.26013  0.67890  0.78350  Biso   1.000  C
  C149     1.0000 0.29253  0.74110  0.80120  Biso   1.000  C
  C150     1.0000 0.17733  0.66320  0.74450  Biso   1.000  C
  C151     1.0000 0.03830  0.01040  0.62640  Biso   1.000  C
  C152     1.0000 0.73230  0.76160  0.27110  Biso   1.000  C
  C153     1.0000 0.03210  0.05770  0.60530  Biso   1.000  C
  C154     1.0000 0.16840  0.90490  0.34710  Biso   1.000  C
  C155     1.0000 0.09880  0.93750  0.32900  Biso   1.000  C
  C156     1.0000 0.24280  0.86760  0.30030  Biso   1.000  C
  C157     1.0000 0.29290  0.83150  0.32410  Biso   1.000  C
  C158     1.0000 0.95310  0.03770  0.55950  Biso   1.000  C
  C159     1.0000 0.68460  0.81040  0.31430  Biso   1.000  C
  C160     1.0000 0.82620  0.76580  0.27750  Biso   1.000  C
  C161     1.0000 0.72740  0.85940  0.36110  Biso   1.000  C
  C162     1.0000 0.86430  0.81580  0.32530  Biso   1.000  C
  C163     1.0000 0.59920  0.70120  0.21500  Biso   1.000  C
  C164     1.0000 0.39330  0.76470  0.36600  Biso   1.000  C
  C165     1.0000 0.12420  0.00680  0.65840  Biso   1.000  C
  C166     1.0000 0.19720  0.82500  0.23920  Biso   1.000  C
  C167     1.0000 0.01790  0.95550  0.37370  Biso   1.000  C
  C168     1.0000 0.30150  0.85160  0.38540  Biso   1.000  C
  C169     1.0000 0.35070  0.81840  0.40480  Biso   1.000  C
  C170     1.0000 0.95450  0.00870  0.65970  Biso   1.000  C
  C171     1.0000 0.21000  0.94550  0.40860  Biso   1.000  C
  C172     1.0000 0.56050  0.64630  0.17330  Biso   1.000  C
  C173     1.0000 0.05990  0.89250  0.26700  Biso   1.000  C
  C174     1.0000 0.20250  0.00490  0.62000  Biso   1.000  C
  C175     1.0000 0.73820  0.65610  0.18430  Biso   1.000  C
  C176     1.0000 0.13400  0.85900  0.21920  Biso   1.000  C
  C177     1.0000 0.25620  0.91000  0.43350  Biso   1.000  C
  C178     1.0000 0.31490  0.90610  0.29000  Biso   1.000  C
  C179     1.0000 0.01590  0.12280  0.65740  Biso   1.000  C
  C180     1.0000 0.13370  0.99400  0.32990  Biso   1.000  C
  C181     1.0000 0.11860  0.05380  0.57040  Biso   1.000  C
  C182     1.0000 0.33670  0.77720  0.28450  Biso   1.000  C
  C183     1.0000 0.20240  0.05500  0.60550  Biso   1.000  C
  C184     1.0000 0.38470  0.74500  0.30440  Biso   1.000  C
  C185     1.0000 0.13600  0.06130  0.72290  Biso   1.000  C
  C186     1.0000 0.94920  0.94880  0.65770  Biso   1.000  C
  C187     1.0000 0.69520  0.60340  0.14300  Biso   1.000  C
  C188     1.0000 0.44670  0.73060  0.38990  Biso   1.000  C
  C189     1.0000 0.38690  0.69440  0.40850  Biso   1.000  C
  C190     1.0000 0.51610  0.68670  0.34620  Biso   1.000  C
  C191     1.0000 0.68960  0.70640  0.22260  Biso   1.000  C
  C192     1.0000 0.02110  0.92090  0.66140  Biso   1.000  C
  C193     1.0000 0.10550  0.94470  0.66270  Biso   1.000  C
  C194     1.0000 0.18170  0.91720  0.66940  Biso   1.000  C
  C195     1.0000 0.17350  0.86580  0.67470  Biso   1.000  C
  C196     1.0000 0.08910  0.84190  0.67330  Biso   1.000  C
  C197     1.0000 0.01290  0.86950  0.66670  Biso   1.000  C
  C198     1.0000 0.07320  0.78350  0.67890  Biso   1.000  C
  C199     1.0000 0.04080  0.80120  0.74110  Biso   1.000  C
  C200     1.0000 0.15600  0.74450  0.66320  Biso   1.000  C
  C201     1.0000 0.37163  0.37360  0.38400  Biso   1.000  C
  C202     1.0000 0.06563  0.72890  0.49050  Biso   1.000  C
  C203     1.0000 0.36543  0.39470  0.45240  Biso   1.000  C
  C204     1.0000 0.50173  0.65290  0.55780  Biso   1.000  C
  C205     1.0000 0.43213  0.67100  0.60850  Biso   1.000  C
  C206     1.0000 0.57613  0.69970  0.56730  Biso   1.000  C
  C207     1.0000 0.62623  0.67590  0.50740  Biso   1.000  C
  C208     1.0000 0.28643  0.44050  0.47820  Biso   1.000  C
  C209     1.0000 0.01793  0.68570  0.49610  Biso   1.000  C
  C210     1.0000 0.15953  0.72250  0.48830  Biso   1.000  C
  C211     1.0000 0.06073  0.63890  0.49830  Biso   1.000  C
  C212     1.0000 0.19763  0.67470  0.49050  Biso   1.000  C
  C213     1.0000 0.93253  0.78500  0.48620  Biso   1.000  C
  C214     1.0000 0.72663  0.63400  0.39870  Biso   1.000  C
  C215     1.0000 0.45753  0.34160  0.34840  Biso   1.000  C
  C216     1.0000 0.53053  0.76080  0.58580  Biso   1.000  C
  C217     1.0000 0.35123  0.62630  0.58180  Biso   1.000  C
  C218     1.0000 0.63483  0.61460  0.46620  Biso   1.000  C
  C219     1.0000 0.68403  0.59520  0.41360  Biso   1.000  C
  C220     1.0000 0.28783  0.34030  0.34900  Biso   1.000  C
  C221     1.0000 0.54333  0.59140  0.53690  Biso   1.000  C
  C222     1.0000 0.89383  0.82670  0.47300  Biso   1.000  C
  C223     1.0000 0.39323  0.73300  0.62550  Biso   1.000  C
  C224     1.0000 0.53583  0.38000  0.38490  Biso   1.000  C
  C225     1.0000 0.07153  0.81570  0.47180  Biso   1.000  C
  C226     1.0000 0.46733  0.78080  0.63980  Biso   1.000  C
  C227     1.0000 0.58953  0.56650  0.47650  Biso   1.000  C
  C228     1.0000 0.64823  0.71000  0.61610  Biso   1.000  C
  C229     1.0000 0.34923  0.34260  0.46540  Biso   1.000  C
  C230     1.0000 0.46703  0.67010  0.66410  Biso   1.000  C
  C231     1.0000 0.45193  0.42960  0.48340  Biso   1.000  C
  C232     1.0000 0.67003  0.71550  0.49270  Biso   1.000  C
  C233     1.0000 0.53573  0.39450  0.44950  Biso   1.000  C
  C234     1.0000 0.71803  0.69560  0.44060  Biso   1.000  C
  C235     1.0000 0.46933  0.27710  0.33840  Biso   1.000  C
  C236     1.0000 0.28253  0.34230  0.29110  Biso   1.000  C
  C237     1.0000 0.02853  0.85700  0.46040  Biso   1.000  C
  C238     1.0000 0.78003  0.61010  0.34070  Biso   1.000  C
  C239     1.0000 0.72023  0.59150  0.28590  Biso   1.000  C
  C240     1.0000 0.84943  0.65380  0.34050  Biso   1.000  C
  C241     1.0000 0.02293  0.77740  0.48380  Biso   1.000  C
  C242     1.0000 0.35443  0.33860  0.25950  Biso   1.000  C
  C243     1.0000 0.43883  0.33730  0.28200  Biso   1.000  C
  C244     1.0000 0.51503  0.33060  0.24780  Biso   1.000  C
  C245     1.0000 0.50683  0.32530  0.19110  Biso   1.000  C
  C246     1.0000 0.42243  0.32670  0.16860  Biso   1.000  C
  C247     1.0000 0.34623  0.33330  0.20280  Biso   1.000  C
  C248     1.0000 0.40653  0.32110  0.10460  Biso   1.000  C
  C249     1.0000 0.37413  0.25890  0.06010  Biso   1.000  C
  C250     1.0000 0.48933  0.33680  0.08130  Biso   1.000  C
  C251     1.0000 0.70497  0.61600  0.98960  Biso   1.000  C
  C252     1.0000 0.39897  0.50950  0.23840  Biso   1.000  C
  C253     1.0000 0.69877  0.54760  0.94230  Biso   1.000  C
  C254     1.0000 0.83507  0.44220  0.09510  Biso   1.000  C
  C255     1.0000 0.76547  0.39150  0.06250  Biso   1.000  C
  C256     1.0000 0.90947  0.43270  0.13240  Biso   1.000  C
  C257     1.0000 0.95957  0.49260  0.16850  Biso   1.000  C
  C258     1.0000 0.61977  0.52180  0.96230  Biso   1.000  C
  C259     1.0000 0.35127  0.50390  0.18960  Biso   1.000  C
  C260     1.0000 0.49287  0.51170  0.23420  Biso   1.000  C
  C261     1.0000 0.39407  0.50170  0.14060  Biso   1.000  C
  C262     1.0000 0.53097  0.50950  0.18420  Biso   1.000  C
  C263     1.0000 0.26587  0.51380  0.29880  Biso   1.000  C
  C264     1.0000 0.05997  0.60130  0.23530  Biso   1.000  C
  C265     1.0000 0.79087  0.65160  0.99320  Biso   1.000  C
  C266     1.0000 0.86387  0.41420  0.17500  Biso   1.000  C
  C267     1.0000 0.68457  0.41820  0.04450  Biso   1.000  C
  C268     1.0000 0.96817  0.53380  0.14840  Biso   1.000  C
  C269     1.0000 0.01737  0.58640  0.18160  Biso   1.000  C
  C270     1.0000 0.62117  0.65100  0.99130  Biso   1.000  C
  C271     1.0000 0.87667  0.46310  0.05450  Biso   1.000  C
  C272     1.0000 0.22717  0.52700  0.35370  Biso   1.000  C
  C273     1.0000 0.72657  0.37450  0.10750  Biso   1.000  C
  C274     1.0000 0.86917  0.61510  0.99510  Biso   1.000  C
  C275     1.0000 0.40487  0.52820  0.34390  Biso   1.000  C
  C276     1.0000 0.80067  0.36020  0.14100  Biso   1.000  C
  C277     1.0000 0.92287  0.52350  0.09000  Biso   1.000  C
  C278     1.0000 0.98157  0.38390  0.09390  Biso   1.000  C
  C279     1.0000 0.68257  0.53460  0.87720  Biso   1.000  C
  C280     1.0000 0.80037  0.33590  0.00600  Biso   1.000  C
  C281     1.0000 0.78527  0.51660  0.94620  Biso   1.000  C
  C282     1.0000 0.00337  0.50730  0.22280  Biso   1.000  C
  C283     1.0000 0.86907  0.55050  0.94500  Biso   1.000  C
  C284     1.0000 0.05137  0.55940  0.25500  Biso   1.000  C
  C285     1.0000 0.80267  0.66160  0.93870  Biso   1.000  C
  C286     1.0000 0.61587  0.70890  0.05120  Biso   1.000  C
  C287     1.0000 0.36187  0.53960  0.39660  Biso   1.000  C
  C288     1.0000 0.11337  0.65930  0.26940  Biso   1.000  C
  C289     1.0000 0.05357  0.71410  0.30560  Biso   1.000  C
  C290     1.0000 0.18277  0.65950  0.31330  Biso   1.000  C
  C291     1.0000 0.35627  0.51620  0.29360  Biso   1.000  C
  C292     1.0000 0.68777  0.74050  0.07910  Biso   1.000  C
  C293     1.0000 0.77217  0.71800  0.05530  Biso   1.000  C
  C294     1.0000 0.84837  0.75220  0.08280  Biso   1.000  C
  C295     1.0000 0.84017  0.80890  0.13420  Biso   1.000  C
  C296     1.0000 0.75577  0.83140  0.15810  Biso   1.000  C
  C297     1.0000 0.67957  0.79720  0.13050  Biso   1.000  C
  C298     1.0000 0.73987  0.89540  0.21650  Biso   1.000  C
  C299     1.0000 0.70747  0.93990  0.19880  Biso   1.000  C
  C300     1.0000 0.82267  0.91870  0.25550  Biso   1.000  C
  N1       1.0000 0.18390  0.49460  0.63243  Biso   1.000  N
  N2       1.0000 0.39270  0.45930  0.86200  Biso   1.000  N
  N3       1.0000 0.85057  0.13783  0.50540  Biso   1.000  N
  N4       1.0000 0.05937  0.40270  0.54070  Biso   1.000  N
  N5       1.0000 0.51723  0.36757  0.86217  Biso   1.000  N
  N6       1.0000 0.72603  0.13800  0.59730  Biso   1.000  N
  N7       1.0000 0.81610  0.86217  0.36757  Biso   1.000  N
  N8       1.0000 0.60730  0.59730  0.13800  Biso   1.000  N
  N9       1.0000 0.14943  0.63243  0.49460  Biso   1.000  N
  N10      1.0000 0.94063  0.86200  0.45930  Biso   1.000  N
  N11      1.0000 0.48277  0.50540  0.13783  Biso   1.000  N
  N12      1.0000 0.27397  0.54070  0.40270  Biso   1.000  N
  O1       1.0000 0.00920  0.52945  0.61126  Biso   1.000  O
  O2       1.0000 0.04010  0.47035  0.48514  Biso   1.000  O
  O3       1.0000 0.01990  0.61597  0.61122  Biso   1.000  O
  O4       1.0000 0.10950  0.50614  0.43195  Biso   1.000  O
  O5       1.0000 0.67587  0.08181  0.47055  Biso   1.000  O
  O6       1.0000 0.70677  0.01479  0.52965  Biso   1.000  O
  O7       1.0000 0.68657  0.99525  0.38403  Biso   1.000  O
  O8       1.0000 0.77617  0.92581  0.49386  Biso   1.000  O
  O9       1.0000 0.34253  0.38874  0.91819  Biso   1.000  O
  O10      1.0000 0.37343  0.51486  0.98521  Biso   1.000  O
  O11      1.0000 0.35323  0.38878  0.00475  Biso   1.000  O
  O12      1.0000 0.44283  0.56805  0.07419  Biso   1.000  O
  O13      1.0000 0.99080  0.91819  0.38874  Biso   1.000  O
  O14      1.0000 0.95990  0.98521  0.51486  Biso   1.000  O
  O15      1.0000 0.98010  0.00475  0.38878  Biso   1.000  O
  O16      1.0000 0.89050  0.07419  0.56805  Biso   1.000  O
  O17      1.0000 0.32413  0.61126  0.52945  Biso   1.000  O
  O18      1.0000 0.29323  0.48514  0.47035  Biso   1.000  O
  O19      1.0000 0.31343  0.61122  0.61597  Biso   1.000  O
  O20      1.0000 0.22383  0.43195  0.50614  Biso   1.000  O
  O21      1.0000 0.65747  0.47055  0.08181  Biso   1.000  O
  O22      1.0000 0.62657  0.52965  0.01479  Biso   1.000  O
  O23      1.0000 0.64677  0.38403  0.99525  Biso   1.000  O
  O24      1.0000 0.55717  0.49386  0.92581  Biso   1.000  O
  O25      1.0000 0.16667  0.56299  0.56299  Biso   1.000  O
  O26      1.0000 0.83333  0.00000  0.43701  Biso   1.000  O
  O27      1.0000 0.50000  0.43701  0.00000  Biso   1.000  O
