data_image0
_cell_length_a       24.601
_cell_length_b       16.546
_cell_length_c       65.775
_cell_angle_alpha    90
_cell_angle_beta     90
_cell_angle_gamma    90

_symmetry_space_group_name_H-M    "P 1"
_symmetry_int_tables_number       1

loop_
  _symmetry_equiv_pos_as_xyz
  'x, y, z'

loop_
  _atom_site_label
  _atom_site_occupancy
  _atom_site_fract_x
  _atom_site_fract_y
  _atom_site_fract_z
  _atom_site_thermal_displace_type
  _atom_site_B_iso_or_equiv
  _atom_site_type_symbol
  C1       1.0000 0.51365  0.15210  0.98190  Biso   1.000  C
  H1       1.0000 0.52080  0.12460  0.96950  Biso   1.000  H
  C2       1.0000 0.46271  0.18360  0.98743  Biso   1.000  C
  H2       1.0000 0.43010  0.18050  0.97980  Biso   1.000  H
  C3       1.0000 0.46927  0.22040  0.00638  Biso   1.000  C
  H3       1.0000 0.44210  0.24760  0.01400  Biso   1.000  H
  C4       1.0000 0.52397  0.20910  0.01185  Biso   1.000  C
  C5       1.0000 0.55170  0.23820  0.02907  Biso   1.000  C
  C6       1.0000 0.60724  0.23710  0.03215  Biso   1.000  C
  C7       1.0000 0.63634  0.27520  0.04797  Biso   1.000  C
  H4       1.0000 0.62130  0.30260  0.05930  Biso   1.000  H
  C8       1.0000 0.68980  0.26510  0.04386  Biso   1.000  C
  H5       1.0000 0.71940  0.28520  0.05170  Biso   1.000  H
  C9       1.0000 0.69366  0.21890  0.02562  Biso   1.000  C
  H6       1.0000 0.72680  0.20340  0.01930  Biso   1.000  H
  C10      1.0000 0.51564  0.27310  0.04540  Biso   1.000  C
  C11      1.0000 0.49080  0.34550  0.04334  Biso   1.000  C
  H7       1.0000 0.49860  0.37850  0.03190  Biso   1.000  H
  C12      1.0000 0.45340  0.37200  0.05807  Biso   1.000  C
  H8       1.0000 0.43610  0.42270  0.05620  Biso   1.000  H
  C13      1.0000 0.46510  0.25660  0.07689  Biso   1.000  C
  C14      1.0000 0.45090  0.20650  0.09466  Biso   1.000  C
  H9       1.0000 0.42250  0.22250  0.10360  Biso   1.000  H
  C15      1.0000 0.48190  0.12990  0.09841  Biso   1.000  C
  H10      1.0000 0.47640  0.09930  0.11050  Biso   1.000  H
  C16      1.0000 0.51590  0.10680  0.08502  Biso   1.000  C
  H11      1.0000 0.53310  0.05610  0.08700  Biso   1.000  H
  C17      1.0000 0.52940  0.15020  0.06789  Biso   1.000  C
  H12      1.0000 0.55620  0.12860  0.05900  Biso   1.000  H
  C18      1.0000 0.50430  0.22900  0.06259  Biso   1.000  C
  C19      1.0000 0.40343  0.21770  0.22863  Biso   1.000  C
  H13      1.0000 0.40710  0.19460  0.24180  Biso   1.000  H
  C20      1.0000 0.41000  0.17250  0.21031  Biso   1.000  C
  H14      1.0000 0.41900  0.11690  0.20890  Biso   1.000  H
  C21      1.0000 0.40017  0.22820  0.19508  Biso   1.000  C
  H15      1.0000 0.40140  0.21770  0.18090  Biso   1.000  H
  C22      1.0000 0.38813  0.30210  0.20401  Biso   1.000  C
  C23      1.0000 0.32710  0.36720  0.16120  Biso   1.000  C
  H16      1.0000 0.29350  0.36020  0.16810  Biso   1.000  H
  C24      1.0000 0.33020  0.36990  0.13950  Biso   1.000  C
  H17      1.0000 0.29710  0.36780  0.13210  Biso   1.000  H
  C25      1.0000 0.27650  0.35940  0.12880  Biso   1.000  C
  H18      1.0000 0.27580  0.35990  0.11430  Biso   1.000  H
  C26      1.0000 0.22810  0.34900  0.13930  Biso   1.000  C
  H19      1.0000 0.19550  0.34660  0.13150  Biso   1.000  H
  C27      1.0000 0.22400  0.34210  0.15980  Biso   1.000  C
  H20      1.0000 0.19040  0.33260  0.16660  Biso   1.000  H
  C28      1.0000 0.27570  0.35040  0.17070  Biso   1.000  C
  H21      1.0000 0.27520  0.34430  0.18500  Biso   1.000  H
  N1       1.0000 0.55080  0.16590  0.99639  Biso   1.000  N
  N2       1.0000 0.64382  0.20020  0.01853  Biso   1.000  N
  N3       1.0000 0.44164  0.33040  0.07410  Biso   1.000  N
  N4       1.0000 0.39188  0.29400  0.22560  Biso   1.000  N
  C29      1.0000 0.51365  0.65210  0.48190  Biso   1.000  C
  H22      1.0000 0.52080  0.62460  0.46950  Biso   1.000  H
  C30      1.0000 0.46271  0.68360  0.48743  Biso   1.000  C
  H23      1.0000 0.43010  0.68050  0.47980  Biso   1.000  H
  C31      1.0000 0.46927  0.72040  0.50638  Biso   1.000  C
  H24      1.0000 0.44210  0.74760  0.51400  Biso   1.000  H
  C32      1.0000 0.52397  0.70910  0.51185  Biso   1.000  C
  C33      1.0000 0.55170  0.73820  0.52907  Biso   1.000  C
  C34      1.0000 0.60724  0.73710  0.53215  Biso   1.000  C
  C35      1.0000 0.63634  0.77520  0.54797  Biso   1.000  C
  H25      1.0000 0.62130  0.80260  0.55930  Biso   1.000  H
  C36      1.0000 0.68980  0.76510  0.54386  Biso   1.000  C
  H26      1.0000 0.71940  0.78520  0.55170  Biso   1.000  H
  C37      1.0000 0.69366  0.71890  0.52562  Biso   1.000  C
  H27      1.0000 0.72680  0.70340  0.51930  Biso   1.000  H
  C38      1.0000 0.51564  0.77310  0.54540  Biso   1.000  C
  C39      1.0000 0.49080  0.84550  0.54334  Biso   1.000  C
  H28      1.0000 0.49860  0.87850  0.53190  Biso   1.000  H
  C40      1.0000 0.45340  0.87200  0.55807  Biso   1.000  C
  H29      1.0000 0.43610  0.92270  0.55620  Biso   1.000  H
  C41      1.0000 0.46510  0.75660  0.57689  Biso   1.000  C
  C42      1.0000 0.45090  0.70650  0.59466  Biso   1.000  C
  H30      1.0000 0.42250  0.72250  0.60360  Biso   1.000  H
  C43      1.0000 0.48190  0.62990  0.59841  Biso   1.000  C
  H31      1.0000 0.47640  0.59930  0.61050  Biso   1.000  H
  C44      1.0000 0.51590  0.60680  0.58502  Biso   1.000  C
  H32      1.0000 0.53310  0.55610  0.58700  Biso   1.000  H
  C45      1.0000 0.52940  0.65020  0.56789  Biso   1.000  C
  H33      1.0000 0.55620  0.62860  0.55900  Biso   1.000  H
  C46      1.0000 0.50430  0.72900  0.56259  Biso   1.000  C
  C47      1.0000 0.40343  0.71770  0.72863  Biso   1.000  C
  H34      1.0000 0.40710  0.69460  0.74180  Biso   1.000  H
  C48      1.0000 0.41000  0.67250  0.71031  Biso   1.000  C
  H35      1.0000 0.41900  0.61690  0.70890  Biso   1.000  H
  C49      1.0000 0.40017  0.72820  0.69508  Biso   1.000  C
  H36      1.0000 0.40140  0.71770  0.68090  Biso   1.000  H
  C50      1.0000 0.38813  0.80210  0.70401  Biso   1.000  C
  C51      1.0000 0.32710  0.86720  0.66120  Biso   1.000  C
  H37      1.0000 0.29350  0.86020  0.66810  Biso   1.000  H
  C52      1.0000 0.33020  0.86990  0.63950  Biso   1.000  C
  H38      1.0000 0.29710  0.86780  0.63210  Biso   1.000  H
  C53      1.0000 0.27650  0.85940  0.62880  Biso   1.000  C
  H39      1.0000 0.27580  0.85990  0.61430  Biso   1.000  H
  C54      1.0000 0.22810  0.84900  0.63930  Biso   1.000  C
  H40      1.0000 0.19550  0.84660  0.63150  Biso   1.000  H
  C55      1.0000 0.22400  0.84210  0.65980  Biso   1.000  C
  H41      1.0000 0.19040  0.83260  0.66660  Biso   1.000  H
  C56      1.0000 0.27570  0.85040  0.67070  Biso   1.000  C
  H42      1.0000 0.27520  0.84430  0.68500  Biso   1.000  H
  N5       1.0000 0.55080  0.66590  0.49639  Biso   1.000  N
  N6       1.0000 0.64382  0.70020  0.51853  Biso   1.000  N
  N7       1.0000 0.44164  0.83040  0.57410  Biso   1.000  N
  N8       1.0000 0.39188  0.79400  0.72560  Biso   1.000  N
  C57      1.0000 0.01365  0.15210  0.48190  Biso   1.000  C
  H43      1.0000 0.02080  0.12460  0.46950  Biso   1.000  H
  C58      1.0000 0.96271  0.18360  0.48743  Biso   1.000  C
  H44      1.0000 0.93010  0.18050  0.47980  Biso   1.000  H
  C59      1.0000 0.96927  0.22040  0.50638  Biso   1.000  C
  H45      1.0000 0.94210  0.24760  0.51400  Biso   1.000  H
  C60      1.0000 0.02397  0.20910  0.51185  Biso   1.000  C
  C61      1.0000 0.05170  0.23820  0.52907  Biso   1.000  C
  C62      1.0000 0.10724  0.23710  0.53215  Biso   1.000  C
  C63      1.0000 0.13634  0.27520  0.54797  Biso   1.000  C
  H46      1.0000 0.12130  0.30260  0.55930  Biso   1.000  H
  C64      1.0000 0.18980  0.26510  0.54386  Biso   1.000  C
  H47      1.0000 0.21940  0.28520  0.55170  Biso   1.000  H
  C65      1.0000 0.19366  0.21890  0.52562  Biso   1.000  C
  H48      1.0000 0.22680  0.20340  0.51930  Biso   1.000  H
  C66      1.0000 0.01564  0.27310  0.54540  Biso   1.000  C
  C67      1.0000 0.99080  0.34550  0.54334  Biso   1.000  C
  H49      1.0000 0.99860  0.37850  0.53190  Biso   1.000  H
  C68      1.0000 0.95340  0.37200  0.55807  Biso   1.000  C
  H50      1.0000 0.93610  0.42270  0.55620  Biso   1.000  H
  C69      1.0000 0.96510  0.25660  0.57689  Biso   1.000  C
  C70      1.0000 0.95090  0.20650  0.59466  Biso   1.000  C
  H51      1.0000 0.92250  0.22250  0.60360  Biso   1.000  H
  C71      1.0000 0.98190  0.12990  0.59841  Biso   1.000  C
  H52      1.0000 0.97640  0.09930  0.61050  Biso   1.000  H
  C72      1.0000 0.01590  0.10680  0.58502  Biso   1.000  C
  H53      1.0000 0.03310  0.05610  0.58700  Biso   1.000  H
  C73      1.0000 0.02940  0.15020  0.56789  Biso   1.000  C
  H54      1.0000 0.05620  0.12860  0.55900  Biso   1.000  H
  C74      1.0000 0.00430  0.22900  0.56259  Biso   1.000  C
  C75      1.0000 0.90343  0.21770  0.72863  Biso   1.000  C
  H55      1.0000 0.90710  0.19460  0.74180  Biso   1.000  H
  C76      1.0000 0.91000  0.17250  0.71031  Biso   1.000  C
  H56      1.0000 0.91900  0.11690  0.70890  Biso   1.000  H
  C77      1.0000 0.90017  0.22820  0.69508  Biso   1.000  C
  H57      1.0000 0.90140  0.21770  0.68090  Biso   1.000  H
  C78      1.0000 0.88813  0.30210  0.70401  Biso   1.000  C
  C79      1.0000 0.82710  0.36720  0.66120  Biso   1.000  C
  H58      1.0000 0.79350  0.36020  0.66810  Biso   1.000  H
  C80      1.0000 0.83020  0.36990  0.63950  Biso   1.000  C
  H59      1.0000 0.79710  0.36780  0.63210  Biso   1.000  H
  C81      1.0000 0.77650  0.35940  0.62880  Biso   1.000  C
  H60      1.0000 0.77580  0.35990  0.61430  Biso   1.000  H
  C82      1.0000 0.72810  0.34900  0.63930  Biso   1.000  C
  H61      1.0000 0.69550  0.34660  0.63150  Biso   1.000  H
  C83      1.0000 0.72400  0.34210  0.65980  Biso   1.000  C
  H62      1.0000 0.69040  0.33260  0.66660  Biso   1.000  H
  C84      1.0000 0.77570  0.35040  0.67070  Biso   1.000  C
  H63      1.0000 0.77520  0.34430  0.68500  Biso   1.000  H
  N9       1.0000 0.05080  0.16590  0.49639  Biso   1.000  N
  N10      1.0000 0.14382  0.20020  0.51853  Biso   1.000  N
  N11      1.0000 0.94164  0.33040  0.57410  Biso   1.000  N
  N12      1.0000 0.89188  0.29400  0.72560  Biso   1.000  N
  C85      1.0000 0.01365  0.65210  0.98190  Biso   1.000  C
  H64      1.0000 0.02080  0.62460  0.96950  Biso   1.000  H
  C86      1.0000 0.96271  0.68360  0.98743  Biso   1.000  C
  H65      1.0000 0.93010  0.68050  0.97980  Biso   1.000  H
  C87      1.0000 0.96927  0.72040  0.00638  Biso   1.000  C
  H66      1.0000 0.94210  0.74760  0.01400  Biso   1.000  H
  C88      1.0000 0.02397  0.70910  0.01185  Biso   1.000  C
  C89      1.0000 0.05170  0.73820  0.02907  Biso   1.000  C
  C90      1.0000 0.10724  0.73710  0.03215  Biso   1.000  C
  C91      1.0000 0.13634  0.77520  0.04797  Biso   1.000  C
  H67      1.0000 0.12130  0.80260  0.05930  Biso   1.000  H
  C92      1.0000 0.18980  0.76510  0.04386  Biso   1.000  C
  H68      1.0000 0.21940  0.78520  0.05170  Biso   1.000  H
  C93      1.0000 0.19366  0.71890  0.02562  Biso   1.000  C
  H69      1.0000 0.22680  0.70340  0.01930  Biso   1.000  H
  C94      1.0000 0.01564  0.77310  0.04540  Biso   1.000  C
  C95      1.0000 0.99080  0.84550  0.04334  Biso   1.000  C
  H70      1.0000 0.99860  0.87850  0.03190  Biso   1.000  H
  C96      1.0000 0.95340  0.87200  0.05807  Biso   1.000  C
  H71      1.0000 0.93610  0.92270  0.05620  Biso   1.000  H
  C97      1.0000 0.96510  0.75660  0.07689  Biso   1.000  C
  C98      1.0000 0.95090  0.70650  0.09466  Biso   1.000  C
  H72      1.0000 0.92250  0.72250  0.10360  Biso   1.000  H
  C99      1.0000 0.98190  0.62990  0.09841  Biso   1.000  C
  H73      1.0000 0.97640  0.59930  0.11050  Biso   1.000  H
  C100     1.0000 0.01590  0.60680  0.08502  Biso   1.000  C
  H74      1.0000 0.03310  0.55610  0.08700  Biso   1.000  H
  C101     1.0000 0.02940  0.65020  0.06789  Biso   1.000  C
  H75      1.0000 0.05620  0.62860  0.05900  Biso   1.000  H
  C102     1.0000 0.00430  0.72900  0.06259  Biso   1.000  C
  C103     1.0000 0.90343  0.71770  0.22863  Biso   1.000  C
  H76      1.0000 0.90710  0.69460  0.24180  Biso   1.000  H
  C104     1.0000 0.91000  0.67250  0.21031  Biso   1.000  C
  H77      1.0000 0.91900  0.61690  0.20890  Biso   1.000  H
  C105     1.0000 0.90017  0.72820  0.19508  Biso   1.000  C
  H78      1.0000 0.90140  0.71770  0.18090  Biso   1.000  H
  C106     1.0000 0.88813  0.80210  0.20401  Biso   1.000  C
  C107     1.0000 0.82710  0.86720  0.16120  Biso   1.000  C
  H79      1.0000 0.79350  0.86020  0.16810  Biso   1.000  H
  C108     1.0000 0.83020  0.86990  0.13950  Biso   1.000  C
  H80      1.0000 0.79710  0.86780  0.13210  Biso   1.000  H
  C109     1.0000 0.77650  0.85940  0.12880  Biso   1.000  C
  H81      1.0000 0.77580  0.85990  0.11430  Biso   1.000  H
  C110     1.0000 0.72810  0.84900  0.13930  Biso   1.000  C
  H82      1.0000 0.69550  0.84660  0.13150  Biso   1.000  H
  C111     1.0000 0.72400  0.84210  0.15980  Biso   1.000  C
  H83      1.0000 0.69040  0.83260  0.16660  Biso   1.000  H
  C112     1.0000 0.77570  0.85040  0.17070  Biso   1.000  C
  H84      1.0000 0.77520  0.84430  0.18500  Biso   1.000  H
  N13      1.0000 0.05080  0.66590  0.99639  Biso   1.000  N
  N14      1.0000 0.14382  0.70020  0.01853  Biso   1.000  N
  N15      1.0000 0.94164  0.83040  0.07410  Biso   1.000  N
  N16      1.0000 0.89188  0.79400  0.22560  Biso   1.000  N
  C113     1.0000 0.23635  0.59790  0.98190  Biso   1.000  C
  H85      1.0000 0.22920  0.62540  0.96950  Biso   1.000  H
  C114     1.0000 0.28729  0.56640  0.98743  Biso   1.000  C
  H86      1.0000 0.31990  0.56950  0.97980  Biso   1.000  H
  C115     1.0000 0.28073  0.52960  0.00638  Biso   1.000  C
  H87      1.0000 0.30790  0.50240  0.01400  Biso   1.000  H
  C116     1.0000 0.22603  0.54090  0.01185  Biso   1.000  C
  C117     1.0000 0.19830  0.51180  0.02907  Biso   1.000  C
  C118     1.0000 0.14276  0.51290  0.03215  Biso   1.000  C
  C119     1.0000 0.11366  0.47480  0.04797  Biso   1.000  C
  H88      1.0000 0.12870  0.44740  0.05930  Biso   1.000  H
  C120     1.0000 0.06020  0.48490  0.04386  Biso   1.000  C
  H89      1.0000 0.03060  0.46480  0.05170  Biso   1.000  H
  C121     1.0000 0.05634  0.53110  0.02562  Biso   1.000  C
  H90      1.0000 0.02320  0.54660  0.01930  Biso   1.000  H
  C122     1.0000 0.23436  0.47690  0.04540  Biso   1.000  C
  C123     1.0000 0.25920  0.40450  0.04334  Biso   1.000  C
  H91      1.0000 0.25140  0.37150  0.03190  Biso   1.000  H
  C124     1.0000 0.29660  0.37800  0.05807  Biso   1.000  C
  H92      1.0000 0.31390  0.32730  0.05620  Biso   1.000  H
  C125     1.0000 0.28490  0.49340  0.07689  Biso   1.000  C
  C126     1.0000 0.29910  0.54350  0.09466  Biso   1.000  C
  H93      1.0000 0.32750  0.52750  0.10360  Biso   1.000  H
  C127     1.0000 0.26810  0.62010  0.09841  Biso   1.000  C
  H94      1.0000 0.27360  0.65070  0.11050  Biso   1.000  H
  C128     1.0000 0.23410  0.64320  0.08502  Biso   1.000  C
  H95      1.0000 0.21690  0.69390  0.08700  Biso   1.000  H
  C129     1.0000 0.22060  0.59980  0.06789  Biso   1.000  C
  H96      1.0000 0.19380  0.62140  0.05900  Biso   1.000  H
  C130     1.0000 0.24570  0.52100  0.06259  Biso   1.000  C
  C131     1.0000 0.34657  0.53230  0.22863  Biso   1.000  C
  H97      1.0000 0.34290  0.55540  0.24180  Biso   1.000  H
  C132     1.0000 0.34000  0.57750  0.21031  Biso   1.000  C
  H98      1.0000 0.33100  0.63310  0.20890  Biso   1.000  H
  C133     1.0000 0.34983  0.52180  0.19508  Biso   1.000  C
  H99      1.0000 0.34860  0.53230  0.18090  Biso   1.000  H
  C134     1.0000 0.36187  0.44790  0.20401  Biso   1.000  C
  C135     1.0000 0.42290  0.38280  0.16120  Biso   1.000  C
  H100     1.0000 0.45650  0.38980  0.16810  Biso   1.000  H
  C136     1.0000 0.41980  0.38010  0.13950  Biso   1.000  C
  H101     1.0000 0.45290  0.38220  0.13210  Biso   1.000  H
  C137     1.0000 0.47350  0.39060  0.12880  Biso   1.000  C
  H102     1.0000 0.47420  0.39010  0.11430  Biso   1.000  H
  C138     1.0000 0.52190  0.40100  0.13930  Biso   1.000  C
  H103     1.0000 0.55450  0.40340  0.13150  Biso   1.000  H
  C139     1.0000 0.52600  0.40790  0.15980  Biso   1.000  C
  H104     1.0000 0.55960  0.41740  0.16660  Biso   1.000  H
  C140     1.0000 0.47430  0.39960  0.17070  Biso   1.000  C
  H105     1.0000 0.47480  0.40570  0.18500  Biso   1.000  H
  N17      1.0000 0.19920  0.58410  0.99639  Biso   1.000  N
  N18      1.0000 0.10618  0.54980  0.01853  Biso   1.000  N
  N19      1.0000 0.30836  0.41960  0.07410  Biso   1.000  N
  N20      1.0000 0.35812  0.45600  0.22560  Biso   1.000  N
  C141     1.0000 0.23635  0.09790  0.48190  Biso   1.000  C
  H106     1.0000 0.22920  0.12540  0.46950  Biso   1.000  H
  C142     1.0000 0.28729  0.06640  0.48743  Biso   1.000  C
  H107     1.0000 0.31990  0.06950  0.47980  Biso   1.000  H
  C143     1.0000 0.28073  0.02960  0.50638  Biso   1.000  C
  H108     1.0000 0.30790  0.00240  0.51400  Biso   1.000  H
  C144     1.0000 0.22603  0.04090  0.51185  Biso   1.000  C
  C145     1.0000 0.19830  0.01180  0.52907  Biso   1.000  C
  C146     1.0000 0.14276  0.01290  0.53215  Biso   1.000  C
  C147     1.0000 0.11366  0.97480  0.54797  Biso   1.000  C
  H109     1.0000 0.12870  0.94740  0.55930  Biso   1.000  H
  C148     1.0000 0.06020  0.98490  0.54386  Biso   1.000  C
  H110     1.0000 0.03060  0.96480  0.55170  Biso   1.000  H
  C149     1.0000 0.05634  0.03110  0.52562  Biso   1.000  C
  H111     1.0000 0.02320  0.04660  0.51930  Biso   1.000  H
  C150     1.0000 0.23436  0.97690  0.54540  Biso   1.000  C
  C151     1.0000 0.25920  0.90450  0.54334  Biso   1.000  C
  H112     1.0000 0.25140  0.87150  0.53190  Biso   1.000  H
  C152     1.0000 0.29660  0.87800  0.55807  Biso   1.000  C
  H113     1.0000 0.31390  0.82730  0.55620  Biso   1.000  H
  C153     1.0000 0.28490  0.99340  0.57689  Biso   1.000  C
  C154     1.0000 0.29910  0.04350  0.59466  Biso   1.000  C
  H114     1.0000 0.32750  0.02750  0.60360  Biso   1.000  H
  C155     1.0000 0.26810  0.12010  0.59841  Biso   1.000  C
  H115     1.0000 0.27360  0.15070  0.61050  Biso   1.000  H
  C156     1.0000 0.23410  0.14320  0.58502  Biso   1.000  C
  H116     1.0000 0.21690  0.19390  0.58700  Biso   1.000  H
  C157     1.0000 0.22060  0.09980  0.56789  Biso   1.000  C
  H117     1.0000 0.19380  0.12140  0.55900  Biso   1.000  H
  C158     1.0000 0.24570  0.02100  0.56259  Biso   1.000  C
  C159     1.0000 0.34657  0.03230  0.72863  Biso   1.000  C
  H118     1.0000 0.34290  0.05540  0.74180  Biso   1.000  H
  C160     1.0000 0.34000  0.07750  0.71031  Biso   1.000  C
  H119     1.0000 0.33100  0.13310  0.70890  Biso   1.000  H
  C161     1.0000 0.34983  0.02180  0.69508  Biso   1.000  C
  H120     1.0000 0.34860  0.03230  0.68090  Biso   1.000  H
  C162     1.0000 0.36187  0.94790  0.70401  Biso   1.000  C
  C163     1.0000 0.42290  0.88280  0.66120  Biso   1.000  C
  H121     1.0000 0.45650  0.88980  0.66810  Biso   1.000  H
  C164     1.0000 0.41980  0.88010  0.63950  Biso   1.000  C
  H122     1.0000 0.45290  0.88220  0.63210  Biso   1.000  H
  C165     1.0000 0.47350  0.89060  0.62880  Biso   1.000  C
  H123     1.0000 0.47420  0.89010  0.61430  Biso   1.000  H
  C166     1.0000 0.52190  0.90100  0.63930  Biso   1.000  C
  H124     1.0000 0.55450  0.90340  0.63150  Biso   1.000  H
  C167     1.0000 0.52600  0.90790  0.65980  Biso   1.000  C
  H125     1.0000 0.55960  0.91740  0.66660  Biso   1.000  H
  C168     1.0000 0.47430  0.89960  0.67070  Biso   1.000  C
  H126     1.0000 0.47480  0.90570  0.68500  Biso   1.000  H
  N21      1.0000 0.19920  0.08410  0.49639  Biso   1.000  N
  N22      1.0000 0.10618  0.04980  0.51853  Biso   1.000  N
  N23      1.0000 0.30836  0.91960  0.57410  Biso   1.000  N
  N24      1.0000 0.35812  0.95600  0.72560  Biso   1.000  N
  C169     1.0000 0.73635  0.59790  0.48190  Biso   1.000  C
  H127     1.0000 0.72920  0.62540  0.46950  Biso   1.000  H
  C170     1.0000 0.78729  0.56640  0.48743  Biso   1.000  C
  H128     1.0000 0.81990  0.56950  0.47980  Biso   1.000  H
  C171     1.0000 0.78073  0.52960  0.50638  Biso   1.000  C
  H129     1.0000 0.80790  0.50240  0.51400  Biso   1.000  H
  C172     1.0000 0.72603  0.54090  0.51185  Biso   1.000  C
  C173     1.0000 0.69830  0.51180  0.52907  Biso   1.000  C
  C174     1.0000 0.64276  0.51290  0.53215  Biso   1.000  C
  C175     1.0000 0.61366  0.47480  0.54797  Biso   1.000  C
  H130     1.0000 0.62870  0.44740  0.55930  Biso   1.000  H
  C176     1.0000 0.56020  0.48490  0.54386  Biso   1.000  C
  H131     1.0000 0.53060  0.46480  0.55170  Biso   1.000  H
  C177     1.0000 0.55634  0.53110  0.52562  Biso   1.000  C
  H132     1.0000 0.52320  0.54660  0.51930  Biso   1.000  H
  C178     1.0000 0.73436  0.47690  0.54540  Biso   1.000  C
  C179     1.0000 0.75920  0.40450  0.54334  Biso   1.000  C
  H133     1.0000 0.75140  0.37150  0.53190  Biso   1.000  H
  C180     1.0000 0.79660  0.37800  0.55807  Biso   1.000  C
  H134     1.0000 0.81390  0.32730  0.55620  Biso   1.000  H
  C181     1.0000 0.78490  0.49340  0.57689  Biso   1.000  C
  C182     1.0000 0.79910  0.54350  0.59466  Biso   1.000  C
  H135     1.0000 0.82750  0.52750  0.60360  Biso   1.000  H
  C183     1.0000 0.76810  0.62010  0.59841  Biso   1.000  C
  H136     1.0000 0.77360  0.65070  0.61050  Biso   1.000  H
  C184     1.0000 0.73410  0.64320  0.58502  Biso   1.000  C
  H137     1.0000 0.71690  0.69390  0.58700  Biso   1.000  H
  C185     1.0000 0.72060  0.59980  0.56789  Biso   1.000  C
  H138     1.0000 0.69380  0.62140  0.55900  Biso   1.000  H
  C186     1.0000 0.74570  0.52100  0.56259  Biso   1.000  C
  C187     1.0000 0.84657  0.53230  0.72863  Biso   1.000  C
  H139     1.0000 0.84290  0.55540  0.74180  Biso   1.000  H
  C188     1.0000 0.84000  0.57750  0.71031  Biso   1.000  C
  H140     1.0000 0.83100  0.63310  0.70890  Biso   1.000  H
  C189     1.0000 0.84983  0.52180  0.69508  Biso   1.000  C
  H141     1.0000 0.84860  0.53230  0.68090  Biso   1.000  H
  C190     1.0000 0.86187  0.44790  0.70401  Biso   1.000  C
  C191     1.0000 0.92290  0.38280  0.66120  Biso   1.000  C
  H142     1.0000 0.95650  0.38980  0.66810  Biso   1.000  H
  C192     1.0000 0.91980  0.38010  0.63950  Biso   1.000  C
  H143     1.0000 0.95290  0.38220  0.63210  Biso   1.000  H
  C193     1.0000 0.97350  0.39060  0.62880  Biso   1.000  C
  H144     1.0000 0.97420  0.39010  0.61430  Biso   1.000  H
  C194     1.0000 0.02190  0.40100  0.63930  Biso   1.000  C
  H145     1.0000 0.05450  0.40340  0.63150  Biso   1.000  H
  C195     1.0000 0.02600  0.40790  0.65980  Biso   1.000  C
  H146     1.0000 0.05960  0.41740  0.66660  Biso   1.000  H
  C196     1.0000 0.97430  0.39960  0.67070  Biso   1.000  C
  H147     1.0000 0.97480  0.40570  0.68500  Biso   1.000  H
  N25      1.0000 0.69920  0.58410  0.49639  Biso   1.000  N
  N26      1.0000 0.60618  0.54980  0.51853  Biso   1.000  N
  N27      1.0000 0.80836  0.41960  0.57410  Biso   1.000  N
  N28      1.0000 0.85812  0.45600  0.72560  Biso   1.000  N
  C197     1.0000 0.73635  0.09790  0.98190  Biso   1.000  C
  H148     1.0000 0.72920  0.12540  0.96950  Biso   1.000  H
  C198     1.0000 0.78729  0.06640  0.98743  Biso   1.000  C
  H149     1.0000 0.81990  0.06950  0.97980  Biso   1.000  H
  C199     1.0000 0.78073  0.02960  0.00638  Biso   1.000  C
  H150     1.0000 0.80790  0.00240  0.01400  Biso   1.000  H
  C200     1.0000 0.72603  0.04090  0.01185  Biso   1.000  C
  C201     1.0000 0.69830  0.01180  0.02907  Biso   1.000  C
  C202     1.0000 0.64276  0.01290  0.03215  Biso   1.000  C
  C203     1.0000 0.61366  0.97480  0.04797  Biso   1.000  C
  H151     1.0000 0.62870  0.94740  0.05930  Biso   1.000  H
  C204     1.0000 0.56020  0.98490  0.04386  Biso   1.000  C
  H152     1.0000 0.53060  0.96480  0.05170  Biso   1.000  H
  C205     1.0000 0.55634  0.03110  0.02562  Biso   1.000  C
  H153     1.0000 0.52320  0.04660  0.01930  Biso   1.000  H
  C206     1.0000 0.73436  0.97690  0.04540  Biso   1.000  C
  C207     1.0000 0.75920  0.90450  0.04334  Biso   1.000  C
  H154     1.0000 0.75140  0.87150  0.03190  Biso   1.000  H
  C208     1.0000 0.79660  0.87800  0.05807  Biso   1.000  C
  H155     1.0000 0.81390  0.82730  0.05620  Biso   1.000  H
  C209     1.0000 0.78490  0.99340  0.07689  Biso   1.000  C
  C210     1.0000 0.79910  0.04350  0.09466  Biso   1.000  C
  H156     1.0000 0.82750  0.02750  0.10360  Biso   1.000  H
  C211     1.0000 0.76810  0.12010  0.09841  Biso   1.000  C
  H157     1.0000 0.77360  0.15070  0.11050  Biso   1.000  H
  C212     1.0000 0.73410  0.14320  0.08502  Biso   1.000  C
  H158     1.0000 0.71690  0.19390  0.08700  Biso   1.000  H
  C213     1.0000 0.72060  0.09980  0.06789  Biso   1.000  C
  H159     1.0000 0.69380  0.12140  0.05900  Biso   1.000  H
  C214     1.0000 0.74570  0.02100  0.06259  Biso   1.000  C
  C215     1.0000 0.84657  0.03230  0.22863  Biso   1.000  C
  H160     1.0000 0.84290  0.05540  0.24180  Biso   1.000  H
  C216     1.0000 0.84000  0.07750  0.21031  Biso   1.000  C
  H161     1.0000 0.83100  0.13310  0.20890  Biso   1.000  H
  C217     1.0000 0.84983  0.02180  0.19508  Biso   1.000  C
  H162     1.0000 0.84860  0.03230  0.18090  Biso   1.000  H
  C218     1.0000 0.86187  0.94790  0.20401  Biso   1.000  C
  C219     1.0000 0.92290  0.88280  0.16120  Biso   1.000  C
  H163     1.0000 0.95650  0.88980  0.16810  Biso   1.000  H
  C220     1.0000 0.91980  0.88010  0.13950  Biso   1.000  C
  H164     1.0000 0.95290  0.88220  0.13210  Biso   1.000  H
  C221     1.0000 0.97350  0.89060  0.12880  Biso   1.000  C
  H165     1.0000 0.97420  0.89010  0.11430  Biso   1.000  H
  C222     1.0000 0.02190  0.90100  0.13930  Biso   1.000  C
  H166     1.0000 0.05450  0.90340  0.13150  Biso   1.000  H
  C223     1.0000 0.02600  0.90790  0.15980  Biso   1.000  C
  H167     1.0000 0.05960  0.91740  0.16660  Biso   1.000  H
  C224     1.0000 0.97430  0.89960  0.17070  Biso   1.000  C
  H168     1.0000 0.97480  0.90570  0.18500  Biso   1.000  H
  N29      1.0000 0.69920  0.08410  0.99639  Biso   1.000  N
  N30      1.0000 0.60618  0.04980  0.01853  Biso   1.000  N
  N31      1.0000 0.80836  0.91960  0.07410  Biso   1.000  N
  N32      1.0000 0.85812  0.95600  0.22560  Biso   1.000  N
  C225     1.0000 0.76365  0.84790  0.23190  Biso   1.000  C
  H169     1.0000 0.77080  0.87540  0.21950  Biso   1.000  H
  C226     1.0000 0.71271  0.81640  0.23743  Biso   1.000  C
  H170     1.0000 0.68010  0.81950  0.22980  Biso   1.000  H
  C227     1.0000 0.71927  0.77960  0.25638  Biso   1.000  C
  H171     1.0000 0.69210  0.75240  0.26400  Biso   1.000  H
  C228     1.0000 0.77397  0.79090  0.26185  Biso   1.000  C
  C229     1.0000 0.80170  0.76180  0.27907  Biso   1.000  C
  C230     1.0000 0.85724  0.76290  0.28215  Biso   1.000  C
  C231     1.0000 0.88634  0.72480  0.29797  Biso   1.000  C
  H172     1.0000 0.87130  0.69740  0.30930  Biso   1.000  H
  C232     1.0000 0.93980  0.73490  0.29386  Biso   1.000  C
  H173     1.0000 0.96940  0.71480  0.30170  Biso   1.000  H
  C233     1.0000 0.94366  0.78110  0.27562  Biso   1.000  C
  H174     1.0000 0.97680  0.79660  0.26930  Biso   1.000  H
  C234     1.0000 0.76564  0.72690  0.29540  Biso   1.000  C
  C235     1.0000 0.74080  0.65450  0.29334  Biso   1.000  C
  H175     1.0000 0.74860  0.62150  0.28190  Biso   1.000  H
  C236     1.0000 0.70340  0.62800  0.30807  Biso   1.000  C
  H176     1.0000 0.68610  0.57730  0.30620  Biso   1.000  H
  C237     1.0000 0.71510  0.74340  0.32689  Biso   1.000  C
  C238     1.0000 0.70090  0.79350  0.34466  Biso   1.000  C
  H177     1.0000 0.67250  0.77750  0.35360  Biso   1.000  H
  C239     1.0000 0.73190  0.87010  0.34841  Biso   1.000  C
  H178     1.0000 0.72640  0.90070  0.36050  Biso   1.000  H
  C240     1.0000 0.76590  0.89320  0.33502  Biso   1.000  C
  H179     1.0000 0.78310  0.94390  0.33700  Biso   1.000  H
  C241     1.0000 0.77940  0.84980  0.31789  Biso   1.000  C
  H180     1.0000 0.80620  0.87140  0.30900  Biso   1.000  H
  C242     1.0000 0.75430  0.77100  0.31259  Biso   1.000  C
  C243     1.0000 0.65343  0.78230  0.47863  Biso   1.000  C
  H181     1.0000 0.65710  0.80540  0.49180  Biso   1.000  H
  C244     1.0000 0.66000  0.82750  0.46031  Biso   1.000  C
  H182     1.0000 0.66900  0.88310  0.45890  Biso   1.000  H
  C245     1.0000 0.65017  0.77180  0.44508  Biso   1.000  C
  H183     1.0000 0.65140  0.78230  0.43090  Biso   1.000  H
  C246     1.0000 0.63813  0.69790  0.45401  Biso   1.000  C
  C247     1.0000 0.57710  0.63280  0.41120  Biso   1.000  C
  H184     1.0000 0.54350  0.63980  0.41810  Biso   1.000  H
  C248     1.0000 0.58020  0.63010  0.38950  Biso   1.000  C
  H185     1.0000 0.54710  0.63220  0.38210  Biso   1.000  H
  C249     1.0000 0.52650  0.64060  0.37880  Biso   1.000  C
  H186     1.0000 0.52580  0.64010  0.36430  Biso   1.000  H
  C250     1.0000 0.47810  0.65100  0.38930  Biso   1.000  C
  H187     1.0000 0.44550  0.65340  0.38150  Biso   1.000  H
  C251     1.0000 0.47400  0.65790  0.40980  Biso   1.000  C
  H188     1.0000 0.44040  0.66740  0.41660  Biso   1.000  H
  C252     1.0000 0.52570  0.64960  0.42070  Biso   1.000  C
  H189     1.0000 0.52520  0.65570  0.43500  Biso   1.000  H
  N33      1.0000 0.80080  0.83410  0.24639  Biso   1.000  N
  N34      1.0000 0.89382  0.79980  0.26853  Biso   1.000  N
  N35      1.0000 0.69164  0.66960  0.32410  Biso   1.000  N
  N36      1.0000 0.64188  0.70600  0.47560  Biso   1.000  N
  C253     1.0000 0.76365  0.34790  0.73190  Biso   1.000  C
  H190     1.0000 0.77080  0.37540  0.71950  Biso   1.000  H
  C254     1.0000 0.71271  0.31640  0.73743  Biso   1.000  C
  H191     1.0000 0.68010  0.31950  0.72980  Biso   1.000  H
  C255     1.0000 0.71927  0.27960  0.75638  Biso   1.000  C
  H192     1.0000 0.69210  0.25240  0.76400  Biso   1.000  H
  C256     1.0000 0.77397  0.29090  0.76185  Biso   1.000  C
  C257     1.0000 0.80170  0.26180  0.77907  Biso   1.000  C
  C258     1.0000 0.85724  0.26290  0.78215  Biso   1.000  C
  C259     1.0000 0.88634  0.22480  0.79797  Biso   1.000  C
  H193     1.0000 0.87130  0.19740  0.80930  Biso   1.000  H
  C260     1.0000 0.93980  0.23490  0.79386  Biso   1.000  C
  H194     1.0000 0.96940  0.21480  0.80170  Biso   1.000  H
  C261     1.0000 0.94366  0.28110  0.77562  Biso   1.000  C
  H195     1.0000 0.97680  0.29660  0.76930  Biso   1.000  H
  C262     1.0000 0.76564  0.22690  0.79540  Biso   1.000  C
  C263     1.0000 0.74080  0.15450  0.79334  Biso   1.000  C
  H196     1.0000 0.74860  0.12150  0.78190  Biso   1.000  H
  C264     1.0000 0.70340  0.12800  0.80807  Biso   1.000  C
  H197     1.0000 0.68610  0.07730  0.80620  Biso   1.000  H
  C265     1.0000 0.71510  0.24340  0.82689  Biso   1.000  C
  C266     1.0000 0.70090  0.29350  0.84466  Biso   1.000  C
  H198     1.0000 0.67250  0.27750  0.85360  Biso   1.000  H
  C267     1.0000 0.73190  0.37010  0.84841  Biso   1.000  C
  H199     1.0000 0.72640  0.40070  0.86050  Biso   1.000  H
  C268     1.0000 0.76590  0.39320  0.83502  Biso   1.000  C
  H200     1.0000 0.78310  0.44390  0.83700  Biso   1.000  H
  C269     1.0000 0.77940  0.34980  0.81789  Biso   1.000  C
  H201     1.0000 0.80620  0.37140  0.80900  Biso   1.000  H
  C270     1.0000 0.75430  0.27100  0.81259  Biso   1.000  C
  C271     1.0000 0.65343  0.28230  0.97863  Biso   1.000  C
  H202     1.0000 0.65710  0.30540  0.99180  Biso   1.000  H
  C272     1.0000 0.66000  0.32750  0.96031  Biso   1.000  C
  H203     1.0000 0.66900  0.38310  0.95890  Biso   1.000  H
  C273     1.0000 0.65017  0.27180  0.94508  Biso   1.000  C
  H204     1.0000 0.65140  0.28230  0.93090  Biso   1.000  H
  C274     1.0000 0.63813  0.19790  0.95401  Biso   1.000  C
  C275     1.0000 0.57710  0.13280  0.91120  Biso   1.000  C
  H205     1.0000 0.54350  0.13980  0.91810  Biso   1.000  H
  C276     1.0000 0.58020  0.13010  0.88950  Biso   1.000  C
  H206     1.0000 0.54710  0.13220  0.88210  Biso   1.000  H
  C277     1.0000 0.52650  0.14060  0.87880  Biso   1.000  C
  H207     1.0000 0.52580  0.14010  0.86430  Biso   1.000  H
  C278     1.0000 0.47810  0.15100  0.88930  Biso   1.000  C
  H208     1.0000 0.44550  0.15340  0.88150  Biso   1.000  H
  C279     1.0000 0.47400  0.15790  0.90980  Biso   1.000  C
  H209     1.0000 0.44040  0.16740  0.91660  Biso   1.000  H
  C280     1.0000 0.52570  0.14960  0.92070  Biso   1.000  C
  H210     1.0000 0.52520  0.15570  0.93500  Biso   1.000  H
  N37      1.0000 0.80080  0.33410  0.74639  Biso   1.000  N
  N38      1.0000 0.89382  0.29980  0.76853  Biso   1.000  N
  N39      1.0000 0.69164  0.16960  0.82410  Biso   1.000  N
  N40      1.0000 0.64188  0.20600  0.97560  Biso   1.000  N
  C281     1.0000 0.26365  0.84790  0.73190  Biso   1.000  C
  H211     1.0000 0.27080  0.87540  0.71950  Biso   1.000  H
  C282     1.0000 0.21271  0.81640  0.73743  Biso   1.000  C
  H212     1.0000 0.18010  0.81950  0.72980  Biso   1.000  H
  C283     1.0000 0.21927  0.77960  0.75638  Biso   1.000  C
  H213     1.0000 0.19210  0.75240  0.76400  Biso   1.000  H
  C284     1.0000 0.27397  0.79090  0.76185  Biso   1.000  C
  C285     1.0000 0.30170  0.76180  0.77907  Biso   1.000  C
  C286     1.0000 0.35724  0.76290  0.78215  Biso   1.000  C
  C287     1.0000 0.38634  0.72480  0.79797  Biso   1.000  C
  H214     1.0000 0.37130  0.69740  0.80930  Biso   1.000  H
  C288     1.0000 0.43980  0.73490  0.79386  Biso   1.000  C
  H215     1.0000 0.46940  0.71480  0.80170  Biso   1.000  H
  C289     1.0000 0.44366  0.78110  0.77562  Biso   1.000  C
  H216     1.0000 0.47680  0.79660  0.76930  Biso   1.000  H
  C290     1.0000 0.26564  0.72690  0.79540  Biso   1.000  C
  C291     1.0000 0.24080  0.65450  0.79334  Biso   1.000  C
  H217     1.0000 0.24860  0.62150  0.78190  Biso   1.000  H
  C292     1.0000 0.20340  0.62800  0.80807  Biso   1.000  C
  H218     1.0000 0.18610  0.57730  0.80620  Biso   1.000  H
  C293     1.0000 0.21510  0.74340  0.82689  Biso   1.000  C
  C294     1.0000 0.20090  0.79350  0.84466  Biso   1.000  C
  H219     1.0000 0.17250  0.77750  0.85360  Biso   1.000  H
  C295     1.0000 0.23190  0.87010  0.84841  Biso   1.000  C
  H220     1.0000 0.22640  0.90070  0.86050  Biso   1.000  H
  C296     1.0000 0.26590  0.89320  0.83502  Biso   1.000  C
  H221     1.0000 0.28310  0.94390  0.83700  Biso   1.000  H
  C297     1.0000 0.27940  0.84980  0.81789  Biso   1.000  C
  H222     1.0000 0.30620  0.87140  0.80900  Biso   1.000  H
  C298     1.0000 0.25430  0.77100  0.81259  Biso   1.000  C
  C299     1.0000 0.15343  0.78230  0.97863  Biso   1.000  C
  H223     1.0000 0.15710  0.80540  0.99180  Biso   1.000  H
  C300     1.0000 0.16000  0.82750  0.96031  Biso   1.000  C
  H224     1.0000 0.16900  0.88310  0.95890  Biso   1.000  H
  C301     1.0000 0.15017  0.77180  0.94508  Biso   1.000  C
  H225     1.0000 0.15140  0.78230  0.93090  Biso   1.000  H
  C302     1.0000 0.13813  0.69790  0.95401  Biso   1.000  C
  C303     1.0000 0.07710  0.63280  0.91120  Biso   1.000  C
  H226     1.0000 0.04350  0.63980  0.91810  Biso   1.000  H
  C304     1.0000 0.08020  0.63010  0.88950  Biso   1.000  C
  H227     1.0000 0.04710  0.63220  0.88210  Biso   1.000  H
  C305     1.0000 0.02650  0.64060  0.87880  Biso   1.000  C
  H228     1.0000 0.02580  0.64010  0.86430  Biso   1.000  H
  C306     1.0000 0.97810  0.65100  0.88930  Biso   1.000  C
  H229     1.0000 0.94550  0.65340  0.88150  Biso   1.000  H
  C307     1.0000 0.97400  0.65790  0.90980  Biso   1.000  C
  H230     1.0000 0.94040  0.66740  0.91660  Biso   1.000  H
  C308     1.0000 0.02570  0.64960  0.92070  Biso   1.000  C
  H231     1.0000 0.02520  0.65570  0.93500  Biso   1.000  H
  N41      1.0000 0.30080  0.83410  0.74639  Biso   1.000  N
  N42      1.0000 0.39382  0.79980  0.76853  Biso   1.000  N
  N43      1.0000 0.19164  0.66960  0.82410  Biso   1.000  N
  N44      1.0000 0.14188  0.70600  0.97560  Biso   1.000  N
  C309     1.0000 0.26365  0.34790  0.23190  Biso   1.000  C
  H232     1.0000 0.27080  0.37540  0.21950  Biso   1.000  H
  C310     1.0000 0.21271  0.31640  0.23743  Biso   1.000  C
  H233     1.0000 0.18010  0.31950  0.22980  Biso   1.000  H
  C311     1.0000 0.21927  0.27960  0.25638  Biso   1.000  C
  H234     1.0000 0.19210  0.25240  0.26400  Biso   1.000  H
  C312     1.0000 0.27397  0.29090  0.26185  Biso   1.000  C
  C313     1.0000 0.30170  0.26180  0.27907  Biso   1.000  C
  C314     1.0000 0.35724  0.26290  0.28215  Biso   1.000  C
  C315     1.0000 0.38634  0.22480  0.29797  Biso   1.000  C
  H235     1.0000 0.37130  0.19740  0.30930  Biso   1.000  H
  C316     1.0000 0.43980  0.23490  0.29386  Biso   1.000  C
  H236     1.0000 0.46940  0.21480  0.30170  Biso   1.000  H
  C317     1.0000 0.44366  0.28110  0.27562  Biso   1.000  C
  H237     1.0000 0.47680  0.29660  0.26930  Biso   1.000  H
  C318     1.0000 0.26564  0.22690  0.29540  Biso   1.000  C
  C319     1.0000 0.24080  0.15450  0.29334  Biso   1.000  C
  H238     1.0000 0.24860  0.12150  0.28190  Biso   1.000  H
  C320     1.0000 0.20340  0.12800  0.30807  Biso   1.000  C
  H239     1.0000 0.18610  0.07730  0.30620  Biso   1.000  H
  C321     1.0000 0.21510  0.24340  0.32689  Biso   1.000  C
  C322     1.0000 0.20090  0.29350  0.34466  Biso   1.000  C
  H240     1.0000 0.17250  0.27750  0.35360  Biso   1.000  H
  C323     1.0000 0.23190  0.37010  0.34841  Biso   1.000  C
  H241     1.0000 0.22640  0.40070  0.36050  Biso   1.000  H
  C324     1.0000 0.26590  0.39320  0.33502  Biso   1.000  C
  H242     1.0000 0.28310  0.44390  0.33700  Biso   1.000  H
  C325     1.0000 0.27940  0.34980  0.31789  Biso   1.000  C
  H243     1.0000 0.30620  0.37140  0.30900  Biso   1.000  H
  C326     1.0000 0.25430  0.27100  0.31259  Biso   1.000  C
  C327     1.0000 0.15343  0.28230  0.47863  Biso   1.000  C
  H244     1.0000 0.15710  0.30540  0.49180  Biso   1.000  H
  C328     1.0000 0.16000  0.32750  0.46031  Biso   1.000  C
  H245     1.0000 0.16900  0.38310  0.45890  Biso   1.000  H
  C329     1.0000 0.15017  0.27180  0.44508  Biso   1.000  C
  H246     1.0000 0.15140  0.28230  0.43090  Biso   1.000  H
  C330     1.0000 0.13813  0.19790  0.45401  Biso   1.000  C
  C331     1.0000 0.07710  0.13280  0.41120  Biso   1.000  C
  H247     1.0000 0.04350  0.13980  0.41810  Biso   1.000  H
  C332     1.0000 0.08020  0.13010  0.38950  Biso   1.000  C
  H248     1.0000 0.04710  0.13220  0.38210  Biso   1.000  H
  C333     1.0000 0.02650  0.14060  0.37880  Biso   1.000  C
  H249     1.0000 0.02580  0.14010  0.36430  Biso   1.000  H
  C334     1.0000 0.97810  0.15100  0.38930  Biso   1.000  C
  H250     1.0000 0.94550  0.15340  0.38150  Biso   1.000  H
  C335     1.0000 0.97400  0.15790  0.40980  Biso   1.000  C
  H251     1.0000 0.94040  0.16740  0.41660  Biso   1.000  H
  C336     1.0000 0.02570  0.14960  0.42070  Biso   1.000  C
  H252     1.0000 0.02520  0.15570  0.43500  Biso   1.000  H
  N45      1.0000 0.30080  0.33410  0.24639  Biso   1.000  N
  N46      1.0000 0.39382  0.29980  0.26853  Biso   1.000  N
  N47      1.0000 0.19164  0.16960  0.32410  Biso   1.000  N
  N48      1.0000 0.14188  0.20600  0.47560  Biso   1.000  N
  C337     1.0000 0.48635  0.40210  0.23190  Biso   1.000  C
  H253     1.0000 0.47920  0.37460  0.21950  Biso   1.000  H
  C338     1.0000 0.53729  0.43360  0.23743  Biso   1.000  C
  H254     1.0000 0.56990  0.43050  0.22980  Biso   1.000  H
  C339     1.0000 0.53073  0.47040  0.25638  Biso   1.000  C
  H255     1.0000 0.55790  0.49760  0.26400  Biso   1.000  H
  C340     1.0000 0.47603  0.45910  0.26185  Biso   1.000  C
  C341     1.0000 0.44830  0.48820  0.27907  Biso   1.000  C
  C342     1.0000 0.39276  0.48710  0.28215  Biso   1.000  C
  C343     1.0000 0.36366  0.52520  0.29797  Biso   1.000  C
  H256     1.0000 0.37870  0.55260  0.30930  Biso   1.000  H
  C344     1.0000 0.31020  0.51510  0.29386  Biso   1.000  C
  H257     1.0000 0.28060  0.53520  0.30170  Biso   1.000  H
  C345     1.0000 0.30634  0.46890  0.27562  Biso   1.000  C
  H258     1.0000 0.27320  0.45340  0.26930  Biso   1.000  H
  C346     1.0000 0.48436  0.52310  0.29540  Biso   1.000  C
  C347     1.0000 0.50920  0.59550  0.29334  Biso   1.000  C
  H259     1.0000 0.50140  0.62850  0.28190  Biso   1.000  H
  C348     1.0000 0.54660  0.62200  0.30807  Biso   1.000  C
  H260     1.0000 0.56390  0.67270  0.30620  Biso   1.000  H
  C349     1.0000 0.53490  0.50660  0.32689  Biso   1.000  C
  C350     1.0000 0.54910  0.45650  0.34466  Biso   1.000  C
  H261     1.0000 0.57750  0.47250  0.35360  Biso   1.000  H
  C351     1.0000 0.51810  0.37990  0.34841  Biso   1.000  C
  H262     1.0000 0.52360  0.34930  0.36050  Biso   1.000  H
  C352     1.0000 0.48410  0.35680  0.33502  Biso   1.000  C
  H263     1.0000 0.46690  0.30610  0.33700  Biso   1.000  H
  C353     1.0000 0.47060  0.40020  0.31789  Biso   1.000  C
  H264     1.0000 0.44380  0.37860  0.30900  Biso   1.000  H
  C354     1.0000 0.49570  0.47900  0.31259  Biso   1.000  C
  C355     1.0000 0.59657  0.46770  0.47863  Biso   1.000  C
  H265     1.0000 0.59290  0.44460  0.49180  Biso   1.000  H
  C356     1.0000 0.59000  0.42250  0.46031  Biso   1.000  C
  H266     1.0000 0.58100  0.36690  0.45890  Biso   1.000  H
  C357     1.0000 0.59983  0.47820  0.44508  Biso   1.000  C
  H267     1.0000 0.59860  0.46770  0.43090  Biso   1.000  H
  C358     1.0000 0.61187  0.55210  0.45401  Biso   1.000  C
  C359     1.0000 0.67290  0.61720  0.41120  Biso   1.000  C
  H268     1.0000 0.70650  0.61020  0.41810  Biso   1.000  H
  C360     1.0000 0.66980  0.61990  0.38950  Biso   1.000  C
  H269     1.0000 0.70290  0.61780  0.38210  Biso   1.000  H
  C361     1.0000 0.72350  0.60940  0.37880  Biso   1.000  C
  H270     1.0000 0.72420  0.60990  0.36430  Biso   1.000  H
  C362     1.0000 0.77190  0.59900  0.38930  Biso   1.000  C
  H271     1.0000 0.80450  0.59660  0.38150  Biso   1.000  H
  C363     1.0000 0.77600  0.59210  0.40980  Biso   1.000  C
  H272     1.0000 0.80960  0.58260  0.41660  Biso   1.000  H
  C364     1.0000 0.72430  0.60040  0.42070  Biso   1.000  C
  H273     1.0000 0.72480  0.59430  0.43500  Biso   1.000  H
  N49      1.0000 0.44920  0.41590  0.24639  Biso   1.000  N
  N50      1.0000 0.35618  0.45020  0.26853  Biso   1.000  N
  N51      1.0000 0.55836  0.58040  0.32410  Biso   1.000  N
  N52      1.0000 0.60812  0.54400  0.47560  Biso   1.000  N
  C365     1.0000 0.48635  0.90210  0.73190  Biso   1.000  C
  H274     1.0000 0.47920  0.87460  0.71950  Biso   1.000  H
  C366     1.0000 0.53729  0.93360  0.73743  Biso   1.000  C
  H275     1.0000 0.56990  0.93050  0.72980  Biso   1.000  H
  C367     1.0000 0.53073  0.97040  0.75638  Biso   1.000  C
  H276     1.0000 0.55790  0.99760  0.76400  Biso   1.000  H
  C368     1.0000 0.47603  0.95910  0.76185  Biso   1.000  C
  C369     1.0000 0.44830  0.98820  0.77907  Biso   1.000  C
  C370     1.0000 0.39276  0.98710  0.78215  Biso   1.000  C
  C371     1.0000 0.36366  0.02520  0.79797  Biso   1.000  C
  H277     1.0000 0.37870  0.05260  0.80930  Biso   1.000  H
  C372     1.0000 0.31020  0.01510  0.79386  Biso   1.000  C
  H278     1.0000 0.28060  0.03520  0.80170  Biso   1.000  H
  C373     1.0000 0.30634  0.96890  0.77562  Biso   1.000  C
  H279     1.0000 0.27320  0.95340  0.76930  Biso   1.000  H
  C374     1.0000 0.48436  0.02310  0.79540  Biso   1.000  C
  C375     1.0000 0.50920  0.09550  0.79334  Biso   1.000  C
  H280     1.0000 0.50140  0.12850  0.78190  Biso   1.000  H
  C376     1.0000 0.54660  0.12200  0.80807  Biso   1.000  C
  H281     1.0000 0.56390  0.17270  0.80620  Biso   1.000  H
  C377     1.0000 0.53490  0.00660  0.82689  Biso   1.000  C
  C378     1.0000 0.54910  0.95650  0.84466  Biso   1.000  C
  H282     1.0000 0.57750  0.97250  0.85360  Biso   1.000  H
  C379     1.0000 0.51810  0.87990  0.84841  Biso   1.000  C
  H283     1.0000 0.52360  0.84930  0.86050  Biso   1.000  H
  C380     1.0000 0.48410  0.85680  0.83502  Biso   1.000  C
  H284     1.0000 0.46690  0.80610  0.83700  Biso   1.000  H
  C381     1.0000 0.47060  0.90020  0.81789  Biso   1.000  C
  H285     1.0000 0.44380  0.87860  0.80900  Biso   1.000  H
  C382     1.0000 0.49570  0.97900  0.81259  Biso   1.000  C
  C383     1.0000 0.59657  0.96770  0.97863  Biso   1.000  C
  H286     1.0000 0.59290  0.94460  0.99180  Biso   1.000  H
  C384     1.0000 0.59000  0.92250  0.96031  Biso   1.000  C
  H287     1.0000 0.58100  0.86690  0.95890  Biso   1.000  H
  C385     1.0000 0.59983  0.97820  0.94508  Biso   1.000  C
  H288     1.0000 0.59860  0.96770  0.93090  Biso   1.000  H
  C386     1.0000 0.61187  0.05210  0.95401  Biso   1.000  C
  C387     1.0000 0.67290  0.11720  0.91120  Biso   1.000  C
  H289     1.0000 0.70650  0.11020  0.91810  Biso   1.000  H
  C388     1.0000 0.66980  0.11990  0.88950  Biso   1.000  C
  H290     1.0000 0.70290  0.11780  0.88210  Biso   1.000  H
  C389     1.0000 0.72350  0.10940  0.87880  Biso   1.000  C
  H291     1.0000 0.72420  0.10990  0.86430  Biso   1.000  H
  C390     1.0000 0.77190  0.09900  0.88930  Biso   1.000  C
  H292     1.0000 0.80450  0.09660  0.88150  Biso   1.000  H
  C391     1.0000 0.77600  0.09210  0.90980  Biso   1.000  C
  H293     1.0000 0.80960  0.08260  0.91660  Biso   1.000  H
  C392     1.0000 0.72430  0.10040  0.92070  Biso   1.000  C
  H294     1.0000 0.72480  0.09430  0.93500  Biso   1.000  H
  N53      1.0000 0.44920  0.91590  0.74639  Biso   1.000  N
  N54      1.0000 0.35618  0.95020  0.76853  Biso   1.000  N
  N55      1.0000 0.55836  0.08040  0.82410  Biso   1.000  N
  N56      1.0000 0.60812  0.04400  0.97560  Biso   1.000  N
  C393     1.0000 0.98635  0.40210  0.73190  Biso   1.000  C
  H295     1.0000 0.97920  0.37460  0.71950  Biso   1.000  H
  C394     1.0000 0.03729  0.43360  0.73743  Biso   1.000  C
  H296     1.0000 0.06990  0.43050  0.72980  Biso   1.000  H
  C395     1.0000 0.03073  0.47040  0.75638  Biso   1.000  C
  H297     1.0000 0.05790  0.49760  0.76400  Biso   1.000  H
  C396     1.0000 0.97603  0.45910  0.76185  Biso   1.000  C
  C397     1.0000 0.94830  0.48820  0.77907  Biso   1.000  C
  C398     1.0000 0.89276  0.48710  0.78215  Biso   1.000  C
  C399     1.0000 0.86366  0.52520  0.79797  Biso   1.000  C
  H298     1.0000 0.87870  0.55260  0.80930  Biso   1.000  H
  C400     1.0000 0.81020  0.51510  0.79386  Biso   1.000  C
  H299     1.0000 0.78060  0.53520  0.80170  Biso   1.000  H
  C401     1.0000 0.80634  0.46890  0.77562  Biso   1.000  C
  H300     1.0000 0.77320  0.45340  0.76930  Biso   1.000  H
  C402     1.0000 0.98436  0.52310  0.79540  Biso   1.000  C
  C403     1.0000 0.00920  0.59550  0.79334  Biso   1.000  C
  H301     1.0000 0.00140  0.62850  0.78190  Biso   1.000  H
  C404     1.0000 0.04660  0.62200  0.80807  Biso   1.000  C
  H302     1.0000 0.06390  0.67270  0.80620  Biso   1.000  H
  C405     1.0000 0.03490  0.50660  0.82689  Biso   1.000  C
  C406     1.0000 0.04910  0.45650  0.84466  Biso   1.000  C
  H303     1.0000 0.07750  0.47250  0.85360  Biso   1.000  H
  C407     1.0000 0.01810  0.37990  0.84841  Biso   1.000  C
  H304     1.0000 0.02360  0.34930  0.86050  Biso   1.000  H
  C408     1.0000 0.98410  0.35680  0.83502  Biso   1.000  C
  H305     1.0000 0.96690  0.30610  0.83700  Biso   1.000  H
  C409     1.0000 0.97060  0.40020  0.81789  Biso   1.000  C
  H306     1.0000 0.94380  0.37860  0.80900  Biso   1.000  H
  C410     1.0000 0.99570  0.47900  0.81259  Biso   1.000  C
  C411     1.0000 0.09657  0.46770  0.97863  Biso   1.000  C
  H307     1.0000 0.09290  0.44460  0.99180  Biso   1.000  H
  C412     1.0000 0.09000  0.42250  0.96031  Biso   1.000  C
  H308     1.0000 0.08100  0.36690  0.95890  Biso   1.000  H
  C413     1.0000 0.09983  0.47820  0.94508  Biso   1.000  C
  H309     1.0000 0.09860  0.46770  0.93090  Biso   1.000  H
  C414     1.0000 0.11187  0.55210  0.95401  Biso   1.000  C
  C415     1.0000 0.17290  0.61720  0.91120  Biso   1.000  C
  H310     1.0000 0.20650  0.61020  0.91810  Biso   1.000  H
  C416     1.0000 0.16980  0.61990  0.88950  Biso   1.000  C
  H311     1.0000 0.20290  0.61780  0.88210  Biso   1.000  H
  C417     1.0000 0.22350  0.60940  0.87880  Biso   1.000  C
  H312     1.0000 0.22420  0.60990  0.86430  Biso   1.000  H
  C418     1.0000 0.27190  0.59900  0.88930  Biso   1.000  C
  H313     1.0000 0.30450  0.59660  0.88150  Biso   1.000  H
  C419     1.0000 0.27600  0.59210  0.90980  Biso   1.000  C
  H314     1.0000 0.30960  0.58260  0.91660  Biso   1.000  H
  C420     1.0000 0.22430  0.60040  0.92070  Biso   1.000  C
  H315     1.0000 0.22480  0.59430  0.93500  Biso   1.000  H
  N57      1.0000 0.94920  0.41590  0.74639  Biso   1.000  N
  N58      1.0000 0.85618  0.45020  0.76853  Biso   1.000  N
  N59      1.0000 0.05836  0.58040  0.82410  Biso   1.000  N
  N60      1.0000 0.10812  0.54400  0.97560  Biso   1.000  N
  C421     1.0000 0.98635  0.90210  0.23190  Biso   1.000  C
  H316     1.0000 0.97920  0.87460  0.21950  Biso   1.000  H
  C422     1.0000 0.03729  0.93360  0.23743  Biso   1.000  C
  H317     1.0000 0.06990  0.93050  0.22980  Biso   1.000  H
  C423     1.0000 0.03073  0.97040  0.25638  Biso   1.000  C
  H318     1.0000 0.05790  0.99760  0.26400  Biso   1.000  H
  C424     1.0000 0.97603  0.95910  0.26185  Biso   1.000  C
  C425     1.0000 0.94830  0.98820  0.27907  Biso   1.000  C
  C426     1.0000 0.89276  0.98710  0.28215  Biso   1.000  C
  C427     1.0000 0.86366  0.02520  0.29797  Biso   1.000  C
  H319     1.0000 0.87870  0.05260  0.30930  Biso   1.000  H
  C428     1.0000 0.81020  0.01510  0.29386  Biso   1.000  C
  H320     1.0000 0.78060  0.03520  0.30170  Biso   1.000  H
  C429     1.0000 0.80634  0.96890  0.27562  Biso   1.000  C
  H321     1.0000 0.77320  0.95340  0.26930  Biso   1.000  H
  C430     1.0000 0.98436  0.02310  0.29540  Biso   1.000  C
  C431     1.0000 0.00920  0.09550  0.29334  Biso   1.000  C
  H322     1.0000 0.00140  0.12850  0.28190  Biso   1.000  H
  C432     1.0000 0.04660  0.12200  0.30807  Biso   1.000  C
  H323     1.0000 0.06390  0.17270  0.30620  Biso   1.000  H
  C433     1.0000 0.03490  0.00660  0.32689  Biso   1.000  C
  C434     1.0000 0.04910  0.95650  0.34466  Biso   1.000  C
  H324     1.0000 0.07750  0.97250  0.35360  Biso   1.000  H
  C435     1.0000 0.01810  0.87990  0.34841  Biso   1.000  C
  H325     1.0000 0.02360  0.84930  0.36050  Biso   1.000  H
  C436     1.0000 0.98410  0.85680  0.33502  Biso   1.000  C
  H326     1.0000 0.96690  0.80610  0.33700  Biso   1.000  H
  C437     1.0000 0.97060  0.90020  0.31789  Biso   1.000  C
  H327     1.0000 0.94380  0.87860  0.30900  Biso   1.000  H
  C438     1.0000 0.99570  0.97900  0.31259  Biso   1.000  C
  C439     1.0000 0.09657  0.96770  0.47863  Biso   1.000  C
  H328     1.0000 0.09290  0.94460  0.49180  Biso   1.000  H
  C440     1.0000 0.09000  0.92250  0.46031  Biso   1.000  C
  H329     1.0000 0.08100  0.86690  0.45890  Biso   1.000  H
  C441     1.0000 0.09983  0.97820  0.44508  Biso   1.000  C
  H330     1.0000 0.09860  0.96770  0.43090  Biso   1.000  H
  C442     1.0000 0.11187  0.05210  0.45401  Biso   1.000  C
  C443     1.0000 0.17290  0.11720  0.41120  Biso   1.000  C
  H331     1.0000 0.20650  0.11020  0.41810  Biso   1.000  H
  C444     1.0000 0.16980  0.11990  0.38950  Biso   1.000  C
  H332     1.0000 0.20290  0.11780  0.38210  Biso   1.000  H
  C445     1.0000 0.22350  0.10940  0.37880  Biso   1.000  C
  H333     1.0000 0.22420  0.10990  0.36430  Biso   1.000  H
  C446     1.0000 0.27190  0.09900  0.38930  Biso   1.000  C
  H334     1.0000 0.30450  0.09660  0.38150  Biso   1.000  H
  C447     1.0000 0.27600  0.09210  0.40980  Biso   1.000  C
  H335     1.0000 0.30960  0.08260  0.41660  Biso   1.000  H
  C448     1.0000 0.22430  0.10040  0.42070  Biso   1.000  C
  H336     1.0000 0.22480  0.09430  0.43500  Biso   1.000  H
  N61      1.0000 0.94920  0.91590  0.24639  Biso   1.000  N
  N62      1.0000 0.85618  0.95020  0.26853  Biso   1.000  N
  N63      1.0000 0.05836  0.08040  0.32410  Biso   1.000  N
  N64      1.0000 0.10812  0.04400  0.47560  Biso   1.000  N
  Ag1      1.0000 0.37500  0.37500  0.09567  Biso   1.000  Ag
  C449     1.0000 0.37500  0.37500  0.19477  Biso   1.000  C
  C450     1.0000 0.37500  0.37500  0.17153  Biso   1.000  C
  N65      1.0000 0.37500  0.37500  0.12934  Biso   1.000  N
  Ag2      1.0000 0.37500  0.87500  0.59567  Biso   1.000  Ag
  C451     1.0000 0.37500  0.87500  0.69477  Biso   1.000  C
  C452     1.0000 0.37500  0.87500  0.67153  Biso   1.000  C
  N66      1.0000 0.37500  0.87500  0.62934  Biso   1.000  N
  Ag3      1.0000 0.87500  0.37500  0.59567  Biso   1.000  Ag
  C453     1.0000 0.87500  0.37500  0.69477  Biso   1.000  C
  C454     1.0000 0.87500  0.37500  0.67153  Biso   1.000  C
  N67      1.0000 0.87500  0.37500  0.62934  Biso   1.000  N
  Ag4      1.0000 0.87500  0.87500  0.09567  Biso   1.000  Ag
  C455     1.0000 0.87500  0.87500  0.19477  Biso   1.000  C
  C456     1.0000 0.87500  0.87500  0.17153  Biso   1.000  C
  N68      1.0000 0.87500  0.87500  0.12934  Biso   1.000  N
  Ag5      1.0000 0.62500  0.62500  0.34567  Biso   1.000  Ag
  C457     1.0000 0.62500  0.62500  0.44477  Biso   1.000  C
  C458     1.0000 0.62500  0.62500  0.42153  Biso   1.000  C
  N69      1.0000 0.62500  0.62500  0.37934  Biso   1.000  N
  Ag6      1.0000 0.62500  0.12500  0.84567  Biso   1.000  Ag
  C459     1.0000 0.62500  0.12500  0.94477  Biso   1.000  C
  C460     1.0000 0.62500  0.12500  0.92153  Biso   1.000  C
  N70      1.0000 0.62500  0.12500  0.87934  Biso   1.000  N
  Ag7      1.0000 0.12500  0.62500  0.84567  Biso   1.000  Ag
  C461     1.0000 0.12500  0.62500  0.94477  Biso   1.000  C
  C462     1.0000 0.12500  0.62500  0.92153  Biso   1.000  C
  N71      1.0000 0.12500  0.62500  0.87934  Biso   1.000  N
  Ag8      1.0000 0.12500  0.12500  0.34567  Biso   1.000  Ag
  C463     1.0000 0.12500  0.12500  0.44477  Biso   1.000  C
  C464     1.0000 0.12500  0.12500  0.42153  Biso   1.000  C
  N72      1.0000 0.12500  0.12500  0.37934  Biso   1.000  N
  Fe1      1.0000 0.62500  0.12500  0.99639  Biso   1.000  Fe
  Fe2      1.0000 0.62500  0.62500  0.49639  Biso   1.000  Fe
  Fe3      1.0000 0.12500  0.62500  0.99639  Biso   1.000  Fe
  Fe4      1.0000 0.12500  0.12500  0.49639  Biso   1.000  Fe
  Fe5      1.0000 0.87500  0.87500  0.24639  Biso   1.000  Fe
  Fe6      1.0000 0.87500  0.37500  0.74639  Biso   1.000  Fe
  Fe7      1.0000 0.37500  0.37500  0.24639  Biso   1.000  Fe
  Fe8      1.0000 0.37500  0.87500  0.74639  Biso   1.000  Fe
  C465     1.0000 0.23635  0.15210  0.76810  Biso   1.000  C
  H337     1.0000 0.22920  0.12460  0.78050  Biso   1.000  H
  C466     1.0000 0.28729  0.18360  0.76257  Biso   1.000  C
  H338     1.0000 0.31990  0.18050  0.77020  Biso   1.000  H
  C467     1.0000 0.28073  0.22040  0.74362  Biso   1.000  C
  H339     1.0000 0.30790  0.24760  0.73600  Biso   1.000  H
  C468     1.0000 0.22603  0.20910  0.73815  Biso   1.000  C
  C469     1.0000 0.19830  0.23820  0.72093  Biso   1.000  C
  C470     1.0000 0.14276  0.23710  0.71785  Biso   1.000  C
  C471     1.0000 0.11366  0.27520  0.70203  Biso   1.000  C
  H340     1.0000 0.12870  0.30260  0.69070  Biso   1.000  H
  C472     1.0000 0.06020  0.26510  0.70614  Biso   1.000  C
  H341     1.0000 0.03060  0.28520  0.69830  Biso   1.000  H
  C473     1.0000 0.05634  0.21890  0.72438  Biso   1.000  C
  H342     1.0000 0.02320  0.20340  0.73070  Biso   1.000  H
  C474     1.0000 0.23436  0.27310  0.70460  Biso   1.000  C
  C475     1.0000 0.25920  0.34550  0.70666  Biso   1.000  C
  H343     1.0000 0.25140  0.37850  0.71810  Biso   1.000  H
  C476     1.0000 0.29660  0.37200  0.69193  Biso   1.000  C
  H344     1.0000 0.31390  0.42270  0.69380  Biso   1.000  H
  C477     1.0000 0.28490  0.25660  0.67311  Biso   1.000  C
  C478     1.0000 0.29910  0.20650  0.65534  Biso   1.000  C
  H345     1.0000 0.32750  0.22250  0.64640  Biso   1.000  H
  C479     1.0000 0.26810  0.12990  0.65159  Biso   1.000  C
  H346     1.0000 0.27360  0.09930  0.63950  Biso   1.000  H
  C480     1.0000 0.23410  0.10680  0.66498  Biso   1.000  C
  H347     1.0000 0.21690  0.05610  0.66300  Biso   1.000  H
  C481     1.0000 0.22060  0.15020  0.68211  Biso   1.000  C
  H348     1.0000 0.19380  0.12860  0.69100  Biso   1.000  H
  C482     1.0000 0.24570  0.22900  0.68741  Biso   1.000  C
  C483     1.0000 0.34657  0.21770  0.52137  Biso   1.000  C
  H349     1.0000 0.34290  0.19460  0.50820  Biso   1.000  H
  C484     1.0000 0.34000  0.17250  0.53969  Biso   1.000  C
  H350     1.0000 0.33100  0.11690  0.54110  Biso   1.000  H
  C485     1.0000 0.34983  0.22820  0.55492  Biso   1.000  C
  H351     1.0000 0.34860  0.21770  0.56910  Biso   1.000  H
  C486     1.0000 0.36187  0.30210  0.54599  Biso   1.000  C
  C487     1.0000 0.42290  0.36720  0.58880  Biso   1.000  C
  H352     1.0000 0.45650  0.36020  0.58190  Biso   1.000  H
  C488     1.0000 0.41980  0.36990  0.61050  Biso   1.000  C
  H353     1.0000 0.45290  0.36780  0.61790  Biso   1.000  H
  C489     1.0000 0.47350  0.35940  0.62120  Biso   1.000  C
  H354     1.0000 0.47420  0.35990  0.63570  Biso   1.000  H
  C490     1.0000 0.52190  0.34900  0.61070  Biso   1.000  C
  H355     1.0000 0.55450  0.34660  0.61850  Biso   1.000  H
  C491     1.0000 0.52600  0.34210  0.59020  Biso   1.000  C
  H356     1.0000 0.55960  0.33260  0.58340  Biso   1.000  H
  C492     1.0000 0.47430  0.35040  0.57930  Biso   1.000  C
  H357     1.0000 0.47480  0.34430  0.56500  Biso   1.000  H
  N73      1.0000 0.19920  0.16590  0.75361  Biso   1.000  N
  N74      1.0000 0.10618  0.20020  0.73147  Biso   1.000  N
  N75      1.0000 0.30836  0.33040  0.67590  Biso   1.000  N
  N76      1.0000 0.35812  0.29400  0.52440  Biso   1.000  N
  C493     1.0000 0.23635  0.65210  0.26810  Biso   1.000  C
  H358     1.0000 0.22920  0.62460  0.28050  Biso   1.000  H
  C494     1.0000 0.28729  0.68360  0.26257  Biso   1.000  C
  H359     1.0000 0.31990  0.68050  0.27020  Biso   1.000  H
  C495     1.0000 0.28073  0.72040  0.24362  Biso   1.000  C
  H360     1.0000 0.30790  0.74760  0.23600  Biso   1.000  H
  C496     1.0000 0.22603  0.70910  0.23815  Biso   1.000  C
  C497     1.0000 0.19830  0.73820  0.22093  Biso   1.000  C
  C498     1.0000 0.14276  0.73710  0.21785  Biso   1.000  C
  C499     1.0000 0.11366  0.77520  0.20203  Biso   1.000  C
  H361     1.0000 0.12870  0.80260  0.19070  Biso   1.000  H
  C500     1.0000 0.06020  0.76510  0.20614  Biso   1.000  C
  H362     1.0000 0.03060  0.78520  0.19830  Biso   1.000  H
  C501     1.0000 0.05634  0.71890  0.22438  Biso   1.000  C
  H363     1.0000 0.02320  0.70340  0.23070  Biso   1.000  H
  C502     1.0000 0.23436  0.77310  0.20460  Biso   1.000  C
  C503     1.0000 0.25920  0.84550  0.20666  Biso   1.000  C
  H364     1.0000 0.25140  0.87850  0.21810  Biso   1.000  H
  C504     1.0000 0.29660  0.87200  0.19193  Biso   1.000  C
  H365     1.0000 0.31390  0.92270  0.19380  Biso   1.000  H
  C505     1.0000 0.28490  0.75660  0.17311  Biso   1.000  C
  C506     1.0000 0.29910  0.70650  0.15534  Biso   1.000  C
  H366     1.0000 0.32750  0.72250  0.14640  Biso   1.000  H
  C507     1.0000 0.26810  0.62990  0.15159  Biso   1.000  C
  H367     1.0000 0.27360  0.59930  0.13950  Biso   1.000  H
  C508     1.0000 0.23410  0.60680  0.16498  Biso   1.000  C
  H368     1.0000 0.21690  0.55610  0.16300  Biso   1.000  H
  C509     1.0000 0.22060  0.65020  0.18211  Biso   1.000  C
  H369     1.0000 0.19380  0.62860  0.19100  Biso   1.000  H
  C510     1.0000 0.24570  0.72900  0.18741  Biso   1.000  C
  C511     1.0000 0.34657  0.71770  0.02137  Biso   1.000  C
  H370     1.0000 0.34290  0.69460  0.00820  Biso   1.000  H
  C512     1.0000 0.34000  0.67250  0.03969  Biso   1.000  C
  H371     1.0000 0.33100  0.61690  0.04110  Biso   1.000  H
  C513     1.0000 0.34983  0.72820  0.05492  Biso   1.000  C
  H372     1.0000 0.34860  0.71770  0.06910  Biso   1.000  H
  C514     1.0000 0.36187  0.80210  0.04599  Biso   1.000  C
  C515     1.0000 0.42290  0.86720  0.08880  Biso   1.000  C
  H373     1.0000 0.45650  0.86020  0.08190  Biso   1.000  H
  C516     1.0000 0.41980  0.86990  0.11050  Biso   1.000  C
  H374     1.0000 0.45290  0.86780  0.11790  Biso   1.000  H
  C517     1.0000 0.47350  0.85940  0.12120  Biso   1.000  C
  H375     1.0000 0.47420  0.85990  0.13570  Biso   1.000  H
  C518     1.0000 0.52190  0.84900  0.11070  Biso   1.000  C
  H376     1.0000 0.55450  0.84660  0.11850  Biso   1.000  H
  C519     1.0000 0.52600  0.84210  0.09020  Biso   1.000  C
  H377     1.0000 0.55960  0.83260  0.08340  Biso   1.000  H
  C520     1.0000 0.47430  0.85040  0.07930  Biso   1.000  C
  H378     1.0000 0.47480  0.84430  0.06500  Biso   1.000  H
  N77      1.0000 0.19920  0.66590  0.25361  Biso   1.000  N
  N78      1.0000 0.10618  0.70020  0.23147  Biso   1.000  N
  N79      1.0000 0.30836  0.83040  0.17590  Biso   1.000  N
  N80      1.0000 0.35812  0.79400  0.02440  Biso   1.000  N
  C521     1.0000 0.73635  0.15210  0.26810  Biso   1.000  C
  H379     1.0000 0.72920  0.12460  0.28050  Biso   1.000  H
  C522     1.0000 0.78729  0.18360  0.26257  Biso   1.000  C
  H380     1.0000 0.81990  0.18050  0.27020  Biso   1.000  H
  C523     1.0000 0.78073  0.22040  0.24362  Biso   1.000  C
  H381     1.0000 0.80790  0.24760  0.23600  Biso   1.000  H
  C524     1.0000 0.72603  0.20910  0.23815  Biso   1.000  C
  C525     1.0000 0.69830  0.23820  0.22093  Biso   1.000  C
  C526     1.0000 0.64276  0.23710  0.21785  Biso   1.000  C
  C527     1.0000 0.61366  0.27520  0.20203  Biso   1.000  C
  H382     1.0000 0.62870  0.30260  0.19070  Biso   1.000  H
  C528     1.0000 0.56020  0.26510  0.20614  Biso   1.000  C
  H383     1.0000 0.53060  0.28520  0.19830  Biso   1.000  H
  C529     1.0000 0.55634  0.21890  0.22438  Biso   1.000  C
  H384     1.0000 0.52320  0.20340  0.23070  Biso   1.000  H
  C530     1.0000 0.73436  0.27310  0.20460  Biso   1.000  C
  C531     1.0000 0.75920  0.34550  0.20666  Biso   1.000  C
  H385     1.0000 0.75140  0.37850  0.21810  Biso   1.000  H
  C532     1.0000 0.79660  0.37200  0.19193  Biso   1.000  C
  H386     1.0000 0.81390  0.42270  0.19380  Biso   1.000  H
  C533     1.0000 0.78490  0.25660  0.17311  Biso   1.000  C
  C534     1.0000 0.79910  0.20650  0.15534  Biso   1.000  C
  H387     1.0000 0.82750  0.22250  0.14640  Biso   1.000  H
  C535     1.0000 0.76810  0.12990  0.15159  Biso   1.000  C
  H388     1.0000 0.77360  0.09930  0.13950  Biso   1.000  H
  C536     1.0000 0.73410  0.10680  0.16498  Biso   1.000  C
  H389     1.0000 0.71690  0.05610  0.16300  Biso   1.000  H
  C537     1.0000 0.72060  0.15020  0.18211  Biso   1.000  C
  H390     1.0000 0.69380  0.12860  0.19100  Biso   1.000  H
  C538     1.0000 0.74570  0.22900  0.18741  Biso   1.000  C
  C539     1.0000 0.84657  0.21770  0.02137  Biso   1.000  C
  H391     1.0000 0.84290  0.19460  0.00820  Biso   1.000  H
  C540     1.0000 0.84000  0.17250  0.03969  Biso   1.000  C
  H392     1.0000 0.83100  0.11690  0.04110  Biso   1.000  H
  C541     1.0000 0.84983  0.22820  0.05492  Biso   1.000  C
  H393     1.0000 0.84860  0.21770  0.06910  Biso   1.000  H
  C542     1.0000 0.86187  0.30210  0.04599  Biso   1.000  C
  C543     1.0000 0.92290  0.36720  0.08880  Biso   1.000  C
  H394     1.0000 0.95650  0.36020  0.08190  Biso   1.000  H
  C544     1.0000 0.91980  0.36990  0.11050  Biso   1.000  C
  H395     1.0000 0.95290  0.36780  0.11790  Biso   1.000  H
  C545     1.0000 0.97350  0.35940  0.12120  Biso   1.000  C
  H396     1.0000 0.97420  0.35990  0.13570  Biso   1.000  H
  C546     1.0000 0.02190  0.34900  0.11070  Biso   1.000  C
  H397     1.0000 0.05450  0.34660  0.11850  Biso   1.000  H
  C547     1.0000 0.02600  0.34210  0.09020  Biso   1.000  C
  H398     1.0000 0.05960  0.33260  0.08340  Biso   1.000  H
  C548     1.0000 0.97430  0.35040  0.07930  Biso   1.000  C
  H399     1.0000 0.97480  0.34430  0.06500  Biso   1.000  H
  N81      1.0000 0.69920  0.16590  0.25361  Biso   1.000  N
  N82      1.0000 0.60618  0.20020  0.23147  Biso   1.000  N
  N83      1.0000 0.80836  0.33040  0.17590  Biso   1.000  N
  N84      1.0000 0.85812  0.29400  0.02440  Biso   1.000  N
  C549     1.0000 0.73635  0.65210  0.76810  Biso   1.000  C
  H400     1.0000 0.72920  0.62460  0.78050  Biso   1.000  H
  C550     1.0000 0.78729  0.68360  0.76257  Biso   1.000  C
  H401     1.0000 0.81990  0.68050  0.77020  Biso   1.000  H
  C551     1.0000 0.78073  0.72040  0.74362  Biso   1.000  C
  H402     1.0000 0.80790  0.74760  0.73600  Biso   1.000  H
  C552     1.0000 0.72603  0.70910  0.73815  Biso   1.000  C
  C553     1.0000 0.69830  0.73820  0.72093  Biso   1.000  C
  C554     1.0000 0.64276  0.73710  0.71785  Biso   1.000  C
  C555     1.0000 0.61366  0.77520  0.70203  Biso   1.000  C
  H403     1.0000 0.62870  0.80260  0.69070  Biso   1.000  H
  C556     1.0000 0.56020  0.76510  0.70614  Biso   1.000  C
  H404     1.0000 0.53060  0.78520  0.69830  Biso   1.000  H
  C557     1.0000 0.55634  0.71890  0.72438  Biso   1.000  C
  H405     1.0000 0.52320  0.70340  0.73070  Biso   1.000  H
  C558     1.0000 0.73436  0.77310  0.70460  Biso   1.000  C
  C559     1.0000 0.75920  0.84550  0.70666  Biso   1.000  C
  H406     1.0000 0.75140  0.87850  0.71810  Biso   1.000  H
  C560     1.0000 0.79660  0.87200  0.69193  Biso   1.000  C
  H407     1.0000 0.81390  0.92270  0.69380  Biso   1.000  H
  C561     1.0000 0.78490  0.75660  0.67311  Biso   1.000  C
  C562     1.0000 0.79910  0.70650  0.65534  Biso   1.000  C
  H408     1.0000 0.82750  0.72250  0.64640  Biso   1.000  H
  C563     1.0000 0.76810  0.62990  0.65159  Biso   1.000  C
  H409     1.0000 0.77360  0.59930  0.63950  Biso   1.000  H
  C564     1.0000 0.73410  0.60680  0.66498  Biso   1.000  C
  H410     1.0000 0.71690  0.55610  0.66300  Biso   1.000  H
  C565     1.0000 0.72060  0.65020  0.68211  Biso   1.000  C
  H411     1.0000 0.69380  0.62860  0.69100  Biso   1.000  H
  C566     1.0000 0.74570  0.72900  0.68741  Biso   1.000  C
  C567     1.0000 0.84657  0.71770  0.52137  Biso   1.000  C
  H412     1.0000 0.84290  0.69460  0.50820  Biso   1.000  H
  C568     1.0000 0.84000  0.67250  0.53969  Biso   1.000  C
  H413     1.0000 0.83100  0.61690  0.54110  Biso   1.000  H
  C569     1.0000 0.84983  0.72820  0.55492  Biso   1.000  C
  H414     1.0000 0.84860  0.71770  0.56910  Biso   1.000  H
  C570     1.0000 0.86187  0.80210  0.54599  Biso   1.000  C
  C571     1.0000 0.92290  0.86720  0.58880  Biso   1.000  C
  H415     1.0000 0.95650  0.86020  0.58190  Biso   1.000  H
  C572     1.0000 0.91980  0.86990  0.61050  Biso   1.000  C
  H416     1.0000 0.95290  0.86780  0.61790  Biso   1.000  H
  C573     1.0000 0.97350  0.85940  0.62120  Biso   1.000  C
  H417     1.0000 0.97420  0.85990  0.63570  Biso   1.000  H
  C574     1.0000 0.02190  0.84900  0.61070  Biso   1.000  C
  H418     1.0000 0.05450  0.84660  0.61850  Biso   1.000  H
  C575     1.0000 0.02600  0.84210  0.59020  Biso   1.000  C
  H419     1.0000 0.05960  0.83260  0.58340  Biso   1.000  H
  C576     1.0000 0.97430  0.85040  0.57930  Biso   1.000  C
  H420     1.0000 0.97480  0.84430  0.56500  Biso   1.000  H
  N85      1.0000 0.69920  0.66590  0.75361  Biso   1.000  N
  N86      1.0000 0.60618  0.70020  0.73147  Biso   1.000  N
  N87      1.0000 0.80836  0.83040  0.67590  Biso   1.000  N
  N88      1.0000 0.85812  0.79400  0.52440  Biso   1.000  N
  C577     1.0000 0.51365  0.59790  0.76810  Biso   1.000  C
  H421     1.0000 0.52080  0.62540  0.78050  Biso   1.000  H
  C578     1.0000 0.46271  0.56640  0.76257  Biso   1.000  C
  H422     1.0000 0.43010  0.56950  0.77020  Biso   1.000  H
  C579     1.0000 0.46927  0.52960  0.74362  Biso   1.000  C
  H423     1.0000 0.44210  0.50240  0.73600  Biso   1.000  H
  C580     1.0000 0.52397  0.54090  0.73815  Biso   1.000  C
  C581     1.0000 0.55170  0.51180  0.72093  Biso   1.000  C
  C582     1.0000 0.60724  0.51290  0.71785  Biso   1.000  C
  C583     1.0000 0.63634  0.47480  0.70203  Biso   1.000  C
  H424     1.0000 0.62130  0.44740  0.69070  Biso   1.000  H
  C584     1.0000 0.68980  0.48490  0.70614  Biso   1.000  C
  H425     1.0000 0.71940  0.46480  0.69830  Biso   1.000  H
  C585     1.0000 0.69366  0.53110  0.72438  Biso   1.000  C
  H426     1.0000 0.72680  0.54660  0.73070  Biso   1.000  H
  C586     1.0000 0.51564  0.47690  0.70460  Biso   1.000  C
  C587     1.0000 0.49080  0.40450  0.70666  Biso   1.000  C
  H427     1.0000 0.49860  0.37150  0.71810  Biso   1.000  H
  C588     1.0000 0.45340  0.37800  0.69193  Biso   1.000  C
  H428     1.0000 0.43610  0.32730  0.69380  Biso   1.000  H
  C589     1.0000 0.46510  0.49340  0.67311  Biso   1.000  C
  C590     1.0000 0.45090  0.54350  0.65534  Biso   1.000  C
  H429     1.0000 0.42250  0.52750  0.64640  Biso   1.000  H
  C591     1.0000 0.48190  0.62010  0.65159  Biso   1.000  C
  H430     1.0000 0.47640  0.65070  0.63950  Biso   1.000  H
  C592     1.0000 0.51590  0.64320  0.66498  Biso   1.000  C
  H431     1.0000 0.53310  0.69390  0.66300  Biso   1.000  H
  C593     1.0000 0.52940  0.59980  0.68211  Biso   1.000  C
  H432     1.0000 0.55620  0.62140  0.69100  Biso   1.000  H
  C594     1.0000 0.50430  0.52100  0.68741  Biso   1.000  C
  C595     1.0000 0.40343  0.53230  0.52137  Biso   1.000  C
  H433     1.0000 0.40710  0.55540  0.50820  Biso   1.000  H
  C596     1.0000 0.41000  0.57750  0.53969  Biso   1.000  C
  H434     1.0000 0.41900  0.63310  0.54110  Biso   1.000  H
  C597     1.0000 0.40017  0.52180  0.55492  Biso   1.000  C
  H435     1.0000 0.40140  0.53230  0.56910  Biso   1.000  H
  C598     1.0000 0.38813  0.44790  0.54599  Biso   1.000  C
  C599     1.0000 0.32710  0.38280  0.58880  Biso   1.000  C
  H436     1.0000 0.29350  0.38980  0.58190  Biso   1.000  H
  C600     1.0000 0.33020  0.38010  0.61050  Biso   1.000  C
  H437     1.0000 0.29710  0.38220  0.61790  Biso   1.000  H
  C601     1.0000 0.27650  0.39060  0.62120  Biso   1.000  C
  H438     1.0000 0.27580  0.39010  0.63570  Biso   1.000  H
  C602     1.0000 0.22810  0.40100  0.61070  Biso   1.000  C
  H439     1.0000 0.19550  0.40340  0.61850  Biso   1.000  H
  C603     1.0000 0.22400  0.40790  0.59020  Biso   1.000  C
  H440     1.0000 0.19040  0.41740  0.58340  Biso   1.000  H
  C604     1.0000 0.27570  0.39960  0.57930  Biso   1.000  C
  H441     1.0000 0.27520  0.40570  0.56500  Biso   1.000  H
  N89      1.0000 0.55080  0.58410  0.75361  Biso   1.000  N
  N90      1.0000 0.64382  0.54980  0.73147  Biso   1.000  N
  N91      1.0000 0.44164  0.41960  0.67590  Biso   1.000  N
  N92      1.0000 0.39188  0.45600  0.52440  Biso   1.000  N
  C605     1.0000 0.51365  0.09790  0.26810  Biso   1.000  C
  H442     1.0000 0.52080  0.12540  0.28050  Biso   1.000  H
  C606     1.0000 0.46271  0.06640  0.26257  Biso   1.000  C
  H443     1.0000 0.43010  0.06950  0.27020  Biso   1.000  H
  C607     1.0000 0.46927  0.02960  0.24362  Biso   1.000  C
  H444     1.0000 0.44210  0.00240  0.23600  Biso   1.000  H
  C608     1.0000 0.52397  0.04090  0.23815  Biso   1.000  C
  C609     1.0000 0.55170  0.01180  0.22093  Biso   1.000  C
  C610     1.0000 0.60724  0.01290  0.21785  Biso   1.000  C
  C611     1.0000 0.63634  0.97480  0.20203  Biso   1.000  C
  H445     1.0000 0.62130  0.94740  0.19070  Biso   1.000  H
  C612     1.0000 0.68980  0.98490  0.20614  Biso   1.000  C
  H446     1.0000 0.71940  0.96480  0.19830  Biso   1.000  H
  C613     1.0000 0.69366  0.03110  0.22438  Biso   1.000  C
  H447     1.0000 0.72680  0.04660  0.23070  Biso   1.000  H
  C614     1.0000 0.51564  0.97690  0.20460  Biso   1.000  C
  C615     1.0000 0.49080  0.90450  0.20666  Biso   1.000  C
  H448     1.0000 0.49860  0.87150  0.21810  Biso   1.000  H
  C616     1.0000 0.45340  0.87800  0.19193  Biso   1.000  C
  H449     1.0000 0.43610  0.82730  0.19380  Biso   1.000  H
  C617     1.0000 0.46510  0.99340  0.17311  Biso   1.000  C
  C618     1.0000 0.45090  0.04350  0.15534  Biso   1.000  C
  H450     1.0000 0.42250  0.02750  0.14640  Biso   1.000  H
  C619     1.0000 0.48190  0.12010  0.15159  Biso   1.000  C
  H451     1.0000 0.47640  0.15070  0.13950  Biso   1.000  H
  C620     1.0000 0.51590  0.14320  0.16498  Biso   1.000  C
  H452     1.0000 0.53310  0.19390  0.16300  Biso   1.000  H
  C621     1.0000 0.52940  0.09980  0.18211  Biso   1.000  C
  H453     1.0000 0.55620  0.12140  0.19100  Biso   1.000  H
  C622     1.0000 0.50430  0.02100  0.18741  Biso   1.000  C
  C623     1.0000 0.40343  0.03230  0.02137  Biso   1.000  C
  H454     1.0000 0.40710  0.05540  0.00820  Biso   1.000  H
  C624     1.0000 0.41000  0.07750  0.03969  Biso   1.000  C
  H455     1.0000 0.41900  0.13310  0.04110  Biso   1.000  H
  C625     1.0000 0.40017  0.02180  0.05492  Biso   1.000  C
  H456     1.0000 0.40140  0.03230  0.06910  Biso   1.000  H
  C626     1.0000 0.38813  0.94790  0.04599  Biso   1.000  C
  C627     1.0000 0.32710  0.88280  0.08880  Biso   1.000  C
  H457     1.0000 0.29350  0.88980  0.08190  Biso   1.000  H
  C628     1.0000 0.33020  0.88010  0.11050  Biso   1.000  C
  H458     1.0000 0.29710  0.88220  0.11790  Biso   1.000  H
  C629     1.0000 0.27650  0.89060  0.12120  Biso   1.000  C
  H459     1.0000 0.27580  0.89010  0.13570  Biso   1.000  H
  C630     1.0000 0.22810  0.90100  0.11070  Biso   1.000  C
  H460     1.0000 0.19550  0.90340  0.11850  Biso   1.000  H
  C631     1.0000 0.22400  0.90790  0.09020  Biso   1.000  C
  H461     1.0000 0.19040  0.91740  0.08340  Biso   1.000  H
  C632     1.0000 0.27570  0.89960  0.07930  Biso   1.000  C
  H462     1.0000 0.27520  0.90570  0.06500  Biso   1.000  H
  N93      1.0000 0.55080  0.08410  0.25361  Biso   1.000  N
  N94      1.0000 0.64382  0.04980  0.23147  Biso   1.000  N
  N95      1.0000 0.44164  0.91960  0.17590  Biso   1.000  N
  N96      1.0000 0.39188  0.95600  0.02440  Biso   1.000  N
  C633     1.0000 0.01365  0.59790  0.26810  Biso   1.000  C
  H463     1.0000 0.02080  0.62540  0.28050  Biso   1.000  H
  C634     1.0000 0.96271  0.56640  0.26257  Biso   1.000  C
  H464     1.0000 0.93010  0.56950  0.27020  Biso   1.000  H
  C635     1.0000 0.96927  0.52960  0.24362  Biso   1.000  C
  H465     1.0000 0.94210  0.50240  0.23600  Biso   1.000  H
  C636     1.0000 0.02397  0.54090  0.23815  Biso   1.000  C
  C637     1.0000 0.05170  0.51180  0.22093  Biso   1.000  C
  C638     1.0000 0.10724  0.51290  0.21785  Biso   1.000  C
  C639     1.0000 0.13634  0.47480  0.20203  Biso   1.000  C
  H466     1.0000 0.12130  0.44740  0.19070  Biso   1.000  H
  C640     1.0000 0.18980  0.48490  0.20614  Biso   1.000  C
  H467     1.0000 0.21940  0.46480  0.19830  Biso   1.000  H
  C641     1.0000 0.19366  0.53110  0.22438  Biso   1.000  C
  H468     1.0000 0.22680  0.54660  0.23070  Biso   1.000  H
  C642     1.0000 0.01564  0.47690  0.20460  Biso   1.000  C
  C643     1.0000 0.99080  0.40450  0.20666  Biso   1.000  C
  H469     1.0000 0.99860  0.37150  0.21810  Biso   1.000  H
  C644     1.0000 0.95340  0.37800  0.19193  Biso   1.000  C
  H470     1.0000 0.93610  0.32730  0.19380  Biso   1.000  H
  C645     1.0000 0.96510  0.49340  0.17311  Biso   1.000  C
  C646     1.0000 0.95090  0.54350  0.15534  Biso   1.000  C
  H471     1.0000 0.92250  0.52750  0.14640  Biso   1.000  H
  C647     1.0000 0.98190  0.62010  0.15159  Biso   1.000  C
  H472     1.0000 0.97640  0.65070  0.13950  Biso   1.000  H
  C648     1.0000 0.01590  0.64320  0.16498  Biso   1.000  C
  H473     1.0000 0.03310  0.69390  0.16300  Biso   1.000  H
  C649     1.0000 0.02940  0.59980  0.18211  Biso   1.000  C
  H474     1.0000 0.05620  0.62140  0.19100  Biso   1.000  H
  C650     1.0000 0.00430  0.52100  0.18741  Biso   1.000  C
  C651     1.0000 0.90343  0.53230  0.02137  Biso   1.000  C
  H475     1.0000 0.90710  0.55540  0.00820  Biso   1.000  H
  C652     1.0000 0.91000  0.57750  0.03969  Biso   1.000  C
  H476     1.0000 0.91900  0.63310  0.04110  Biso   1.000  H
  C653     1.0000 0.90017  0.52180  0.05492  Biso   1.000  C
  H477     1.0000 0.90140  0.53230  0.06910  Biso   1.000  H
  C654     1.0000 0.88813  0.44790  0.04599  Biso   1.000  C
  C655     1.0000 0.82710  0.38280  0.08880  Biso   1.000  C
  H478     1.0000 0.79350  0.38980  0.08190  Biso   1.000  H
  C656     1.0000 0.83020  0.38010  0.11050  Biso   1.000  C
  H479     1.0000 0.79710  0.38220  0.11790  Biso   1.000  H
  C657     1.0000 0.77650  0.39060  0.12120  Biso   1.000  C
  H480     1.0000 0.77580  0.39010  0.13570  Biso   1.000  H
  C658     1.0000 0.72810  0.40100  0.11070  Biso   1.000  C
  H481     1.0000 0.69550  0.40340  0.11850  Biso   1.000  H
  C659     1.0000 0.72400  0.40790  0.09020  Biso   1.000  C
  H482     1.0000 0.69040  0.41740  0.08340  Biso   1.000  H
  C660     1.0000 0.77570  0.39960  0.07930  Biso   1.000  C
  H483     1.0000 0.77520  0.40570  0.06500  Biso   1.000  H
  N97      1.0000 0.05080  0.58410  0.25361  Biso   1.000  N
  N98      1.0000 0.14382  0.54980  0.23147  Biso   1.000  N
  N99      1.0000 0.94164  0.41960  0.17590  Biso   1.000  N
  N100     1.0000 0.89188  0.45600  0.02440  Biso   1.000  N
  C661     1.0000 0.01365  0.09790  0.76810  Biso   1.000  C
  H484     1.0000 0.02080  0.12540  0.78050  Biso   1.000  H
  C662     1.0000 0.96271  0.06640  0.76257  Biso   1.000  C
  H485     1.0000 0.93010  0.06950  0.77020  Biso   1.000  H
  C663     1.0000 0.96927  0.02960  0.74362  Biso   1.000  C
  H486     1.0000 0.94210  0.00240  0.73600  Biso   1.000  H
  C664     1.0000 0.02397  0.04090  0.73815  Biso   1.000  C
  C665     1.0000 0.05170  0.01180  0.72093  Biso   1.000  C
  C666     1.0000 0.10724  0.01290  0.71785  Biso   1.000  C
  C667     1.0000 0.13634  0.97480  0.70203  Biso   1.000  C
  H487     1.0000 0.12130  0.94740  0.69070  Biso   1.000  H
  C668     1.0000 0.18980  0.98490  0.70614  Biso   1.000  C
  H488     1.0000 0.21940  0.96480  0.69830  Biso   1.000  H
  C669     1.0000 0.19366  0.03110  0.72438  Biso   1.000  C
  H489     1.0000 0.22680  0.04660  0.73070  Biso   1.000  H
  C670     1.0000 0.01564  0.97690  0.70460  Biso   1.000  C
  C671     1.0000 0.99080  0.90450  0.70666  Biso   1.000  C
  H490     1.0000 0.99860  0.87150  0.71810  Biso   1.000  H
  C672     1.0000 0.95340  0.87800  0.69193  Biso   1.000  C
  H491     1.0000 0.93610  0.82730  0.69380  Biso   1.000  H
  C673     1.0000 0.96510  0.99340  0.67311  Biso   1.000  C
  C674     1.0000 0.95090  0.04350  0.65534  Biso   1.000  C
  H492     1.0000 0.92250  0.02750  0.64640  Biso   1.000  H
  C675     1.0000 0.98190  0.12010  0.65159  Biso   1.000  C
  H493     1.0000 0.97640  0.15070  0.63950  Biso   1.000  H
  C676     1.0000 0.01590  0.14320  0.66498  Biso   1.000  C
  H494     1.0000 0.03310  0.19390  0.66300  Biso   1.000  H
  C677     1.0000 0.02940  0.09980  0.68211  Biso   1.000  C
  H495     1.0000 0.05620  0.12140  0.69100  Biso   1.000  H
  C678     1.0000 0.00430  0.02100  0.68741  Biso   1.000  C
  C679     1.0000 0.90343  0.03230  0.52137  Biso   1.000  C
  H496     1.0000 0.90710  0.05540  0.50820  Biso   1.000  H
  C680     1.0000 0.91000  0.07750  0.53969  Biso   1.000  C
  H497     1.0000 0.91900  0.13310  0.54110  Biso   1.000  H
  C681     1.0000 0.90017  0.02180  0.55492  Biso   1.000  C
  H498     1.0000 0.90140  0.03230  0.56910  Biso   1.000  H
  C682     1.0000 0.88813  0.94790  0.54599  Biso   1.000  C
  C683     1.0000 0.82710  0.88280  0.58880  Biso   1.000  C
  H499     1.0000 0.79350  0.88980  0.58190  Biso   1.000  H
  C684     1.0000 0.83020  0.88010  0.61050  Biso   1.000  C
  H500     1.0000 0.79710  0.88220  0.61790  Biso   1.000  H
  C685     1.0000 0.77650  0.89060  0.62120  Biso   1.000  C
  H501     1.0000 0.77580  0.89010  0.63570  Biso   1.000  H
  C686     1.0000 0.72810  0.90100  0.61070  Biso   1.000  C
  H502     1.0000 0.69550  0.90340  0.61850  Biso   1.000  H
  C687     1.0000 0.72400  0.90790  0.59020  Biso   1.000  C
  H503     1.0000 0.69040  0.91740  0.58340  Biso   1.000  H
  C688     1.0000 0.77570  0.89960  0.57930  Biso   1.000  C
  H504     1.0000 0.77520  0.90570  0.56500  Biso   1.000  H
  N101     1.0000 0.05080  0.08410  0.75361  Biso   1.000  N
  N102     1.0000 0.14382  0.04980  0.73147  Biso   1.000  N
  N103     1.0000 0.94164  0.91960  0.67590  Biso   1.000  N
  N104     1.0000 0.89188  0.95600  0.52440  Biso   1.000  N
  C689     1.0000 0.48635  0.84790  0.01810  Biso   1.000  C
  H505     1.0000 0.47920  0.87540  0.03050  Biso   1.000  H
  C690     1.0000 0.53729  0.81640  0.01257  Biso   1.000  C
  H506     1.0000 0.56990  0.81950  0.02020  Biso   1.000  H
  C691     1.0000 0.53073  0.77960  0.99362  Biso   1.000  C
  H507     1.0000 0.55790  0.75240  0.98600  Biso   1.000  H
  C692     1.0000 0.47603  0.79090  0.98815  Biso   1.000  C
  C693     1.0000 0.44830  0.76180  0.97093  Biso   1.000  C
  C694     1.0000 0.39276  0.76290  0.96785  Biso   1.000  C
  C695     1.0000 0.36366  0.72480  0.95203  Biso   1.000  C
  H508     1.0000 0.37870  0.69740  0.94070  Biso   1.000  H
  C696     1.0000 0.31020  0.73490  0.95614  Biso   1.000  C
  H509     1.0000 0.28060  0.71480  0.94830  Biso   1.000  H
  C697     1.0000 0.30634  0.78110  0.97438  Biso   1.000  C
  H510     1.0000 0.27320  0.79660  0.98070  Biso   1.000  H
  C698     1.0000 0.48436  0.72690  0.95460  Biso   1.000  C
  C699     1.0000 0.50920  0.65450  0.95666  Biso   1.000  C
  H511     1.0000 0.50140  0.62150  0.96810  Biso   1.000  H
  C700     1.0000 0.54660  0.62800  0.94193  Biso   1.000  C
  H512     1.0000 0.56390  0.57730  0.94380  Biso   1.000  H
  C701     1.0000 0.53490  0.74340  0.92311  Biso   1.000  C
  C702     1.0000 0.54910  0.79350  0.90534  Biso   1.000  C
  H513     1.0000 0.57750  0.77750  0.89640  Biso   1.000  H
  C703     1.0000 0.51810  0.87010  0.90159  Biso   1.000  C
  H514     1.0000 0.52360  0.90070  0.88950  Biso   1.000  H
  C704     1.0000 0.48410  0.89320  0.91498  Biso   1.000  C
  H515     1.0000 0.46690  0.94390  0.91300  Biso   1.000  H
  C705     1.0000 0.47060  0.84980  0.93211  Biso   1.000  C
  H516     1.0000 0.44380  0.87140  0.94100  Biso   1.000  H
  C706     1.0000 0.49570  0.77100  0.93741  Biso   1.000  C
  C707     1.0000 0.59657  0.78230  0.77137  Biso   1.000  C
  H517     1.0000 0.59290  0.80540  0.75820  Biso   1.000  H
  C708     1.0000 0.59000  0.82750  0.78969  Biso   1.000  C
  H518     1.0000 0.58100  0.88310  0.79110  Biso   1.000  H
  C709     1.0000 0.59983  0.77180  0.80492  Biso   1.000  C
  H519     1.0000 0.59860  0.78230  0.81910  Biso   1.000  H
  C710     1.0000 0.61187  0.69790  0.79599  Biso   1.000  C
  C711     1.0000 0.67290  0.63280  0.83880  Biso   1.000  C
  H520     1.0000 0.70650  0.63980  0.83190  Biso   1.000  H
  C712     1.0000 0.66980  0.63010  0.86050  Biso   1.000  C
  H521     1.0000 0.70290  0.63220  0.86790  Biso   1.000  H
  C713     1.0000 0.72350  0.64060  0.87120  Biso   1.000  C
  H522     1.0000 0.72420  0.64010  0.88570  Biso   1.000  H
  C714     1.0000 0.77190  0.65100  0.86070  Biso   1.000  C
  H523     1.0000 0.80450  0.65340  0.86850  Biso   1.000  H
  C715     1.0000 0.77600  0.65790  0.84020  Biso   1.000  C
  H524     1.0000 0.80960  0.66740  0.83340  Biso   1.000  H
  C716     1.0000 0.72430  0.64960  0.82930  Biso   1.000  C
  H525     1.0000 0.72480  0.65570  0.81500  Biso   1.000  H
  N105     1.0000 0.44920  0.83410  0.00361  Biso   1.000  N
  N106     1.0000 0.35618  0.79980  0.98147  Biso   1.000  N
  N107     1.0000 0.55836  0.66960  0.92590  Biso   1.000  N
  N108     1.0000 0.60812  0.70600  0.77440  Biso   1.000  N
  C717     1.0000 0.48635  0.34790  0.51810  Biso   1.000  C
  H526     1.0000 0.47920  0.37540  0.53050  Biso   1.000  H
  C718     1.0000 0.53729  0.31640  0.51257  Biso   1.000  C
  H527     1.0000 0.56990  0.31950  0.52020  Biso   1.000  H
  C719     1.0000 0.53073  0.27960  0.49362  Biso   1.000  C
  H528     1.0000 0.55790  0.25240  0.48600  Biso   1.000  H
  C720     1.0000 0.47603  0.29090  0.48815  Biso   1.000  C
  C721     1.0000 0.44830  0.26180  0.47093  Biso   1.000  C
  C722     1.0000 0.39276  0.26290  0.46785  Biso   1.000  C
  C723     1.0000 0.36366  0.22480  0.45203  Biso   1.000  C
  H529     1.0000 0.37870  0.19740  0.44070  Biso   1.000  H
  C724     1.0000 0.31020  0.23490  0.45614  Biso   1.000  C
  H530     1.0000 0.28060  0.21480  0.44830  Biso   1.000  H
  C725     1.0000 0.30634  0.28110  0.47438  Biso   1.000  C
  H531     1.0000 0.27320  0.29660  0.48070  Biso   1.000  H
  C726     1.0000 0.48436  0.22690  0.45460  Biso   1.000  C
  C727     1.0000 0.50920  0.15450  0.45666  Biso   1.000  C
  H532     1.0000 0.50140  0.12150  0.46810  Biso   1.000  H
  C728     1.0000 0.54660  0.12800  0.44193  Biso   1.000  C
  H533     1.0000 0.56390  0.07730  0.44380  Biso   1.000  H
  C729     1.0000 0.53490  0.24340  0.42311  Biso   1.000  C
  C730     1.0000 0.54910  0.29350  0.40534  Biso   1.000  C
  H534     1.0000 0.57750  0.27750  0.39640  Biso   1.000  H
  C731     1.0000 0.51810  0.37010  0.40159  Biso   1.000  C
  H535     1.0000 0.52360  0.40070  0.38950  Biso   1.000  H
  C732     1.0000 0.48410  0.39320  0.41498  Biso   1.000  C
  H536     1.0000 0.46690  0.44390  0.41300  Biso   1.000  H
  C733     1.0000 0.47060  0.34980  0.43211  Biso   1.000  C
  H537     1.0000 0.44380  0.37140  0.44100  Biso   1.000  H
  C734     1.0000 0.49570  0.27100  0.43741  Biso   1.000  C
  C735     1.0000 0.59657  0.28230  0.27137  Biso   1.000  C
  H538     1.0000 0.59290  0.30540  0.25820  Biso   1.000  H
  C736     1.0000 0.59000  0.32750  0.28969  Biso   1.000  C
  H539     1.0000 0.58100  0.38310  0.29110  Biso   1.000  H
  C737     1.0000 0.59983  0.27180  0.30492  Biso   1.000  C
  H540     1.0000 0.59860  0.28230  0.31910  Biso   1.000  H
  C738     1.0000 0.61187  0.19790  0.29599  Biso   1.000  C
  C739     1.0000 0.67290  0.13280  0.33880  Biso   1.000  C
  H541     1.0000 0.70650  0.13980  0.33190  Biso   1.000  H
  C740     1.0000 0.66980  0.13010  0.36050  Biso   1.000  C
  H542     1.0000 0.70290  0.13220  0.36790  Biso   1.000  H
  C741     1.0000 0.72350  0.14060  0.37120  Biso   1.000  C
  H543     1.0000 0.72420  0.14010  0.38570  Biso   1.000  H
  C742     1.0000 0.77190  0.15100  0.36070  Biso   1.000  C
  H544     1.0000 0.80450  0.15340  0.36850  Biso   1.000  H
  C743     1.0000 0.77600  0.15790  0.34020  Biso   1.000  C
  H545     1.0000 0.80960  0.16740  0.33340  Biso   1.000  H
  C744     1.0000 0.72430  0.14960  0.32930  Biso   1.000  C
  H546     1.0000 0.72480  0.15570  0.31500  Biso   1.000  H
  N109     1.0000 0.44920  0.33410  0.50361  Biso   1.000  N
  N110     1.0000 0.35618  0.29980  0.48147  Biso   1.000  N
  N111     1.0000 0.55836  0.16960  0.42590  Biso   1.000  N
  N112     1.0000 0.60812  0.20600  0.27440  Biso   1.000  N
  C745     1.0000 0.98635  0.84790  0.51810  Biso   1.000  C
  H547     1.0000 0.97920  0.87540  0.53050  Biso   1.000  H
  C746     1.0000 0.03729  0.81640  0.51257  Biso   1.000  C
  H548     1.0000 0.06990  0.81950  0.52020  Biso   1.000  H
  C747     1.0000 0.03073  0.77960  0.49362  Biso   1.000  C
  H549     1.0000 0.05790  0.75240  0.48600  Biso   1.000  H
  C748     1.0000 0.97603  0.79090  0.48815  Biso   1.000  C
  C749     1.0000 0.94830  0.76180  0.47093  Biso   1.000  C
  C750     1.0000 0.89276  0.76290  0.46785  Biso   1.000  C
  C751     1.0000 0.86366  0.72480  0.45203  Biso   1.000  C
  H550     1.0000 0.87870  0.69740  0.44070  Biso   1.000  H
  C752     1.0000 0.81020  0.73490  0.45614  Biso   1.000  C
  H551     1.0000 0.78060  0.71480  0.44830  Biso   1.000  H
  C753     1.0000 0.80634  0.78110  0.47438  Biso   1.000  C
  H552     1.0000 0.77320  0.79660  0.48070  Biso   1.000  H
  C754     1.0000 0.98436  0.72690  0.45460  Biso   1.000  C
  C755     1.0000 0.00920  0.65450  0.45666  Biso   1.000  C
  H553     1.0000 0.00140  0.62150  0.46810  Biso   1.000  H
  C756     1.0000 0.04660  0.62800  0.44193  Biso   1.000  C
  H554     1.0000 0.06390  0.57730  0.44380  Biso   1.000  H
  C757     1.0000 0.03490  0.74340  0.42311  Biso   1.000  C
  C758     1.0000 0.04910  0.79350  0.40534  Biso   1.000  C
  H555     1.0000 0.07750  0.77750  0.39640  Biso   1.000  H
  C759     1.0000 0.01810  0.87010  0.40159  Biso   1.000  C
  H556     1.0000 0.02360  0.90070  0.38950  Biso   1.000  H
  C760     1.0000 0.98410  0.89320  0.41498  Biso   1.000  C
  H557     1.0000 0.96690  0.94390  0.41300  Biso   1.000  H
  C761     1.0000 0.97060  0.84980  0.43211  Biso   1.000  C
  H558     1.0000 0.94380  0.87140  0.44100  Biso   1.000  H
  C762     1.0000 0.99570  0.77100  0.43741  Biso   1.000  C
  C763     1.0000 0.09657  0.78230  0.27137  Biso   1.000  C
  H559     1.0000 0.09290  0.80540  0.25820  Biso   1.000  H
  C764     1.0000 0.09000  0.82750  0.28969  Biso   1.000  C
  H560     1.0000 0.08100  0.88310  0.29110  Biso   1.000  H
  C765     1.0000 0.09983  0.77180  0.30492  Biso   1.000  C
  H561     1.0000 0.09860  0.78230  0.31910  Biso   1.000  H
  C766     1.0000 0.11187  0.69790  0.29599  Biso   1.000  C
  C767     1.0000 0.17290  0.63280  0.33880  Biso   1.000  C
  H562     1.0000 0.20650  0.63980  0.33190  Biso   1.000  H
  C768     1.0000 0.16980  0.63010  0.36050  Biso   1.000  C
  H563     1.0000 0.20290  0.63220  0.36790  Biso   1.000  H
  C769     1.0000 0.22350  0.64060  0.37120  Biso   1.000  C
  H564     1.0000 0.22420  0.64010  0.38570  Biso   1.000  H
  C770     1.0000 0.27190  0.65100  0.36070  Biso   1.000  C
  H565     1.0000 0.30450  0.65340  0.36850  Biso   1.000  H
  C771     1.0000 0.27600  0.65790  0.34020  Biso   1.000  C
  H566     1.0000 0.30960  0.66740  0.33340  Biso   1.000  H
  C772     1.0000 0.22430  0.64960  0.32930  Biso   1.000  C
  H567     1.0000 0.22480  0.65570  0.31500  Biso   1.000  H
  N113     1.0000 0.94920  0.83410  0.50361  Biso   1.000  N
  N114     1.0000 0.85618  0.79980  0.48147  Biso   1.000  N
  N115     1.0000 0.05836  0.66960  0.42590  Biso   1.000  N
  N116     1.0000 0.10812  0.70600  0.27440  Biso   1.000  N
  C773     1.0000 0.98635  0.34790  0.01810  Biso   1.000  C
  H568     1.0000 0.97920  0.37540  0.03050  Biso   1.000  H
  C774     1.0000 0.03729  0.31640  0.01257  Biso   1.000  C
  H569     1.0000 0.06990  0.31950  0.02020  Biso   1.000  H
  C775     1.0000 0.03073  0.27960  0.99362  Biso   1.000  C
  H570     1.0000 0.05790  0.25240  0.98600  Biso   1.000  H
  C776     1.0000 0.97603  0.29090  0.98815  Biso   1.000  C
  C777     1.0000 0.94830  0.26180  0.97093  Biso   1.000  C
  C778     1.0000 0.89276  0.26290  0.96785  Biso   1.000  C
  C779     1.0000 0.86366  0.22480  0.95203  Biso   1.000  C
  H571     1.0000 0.87870  0.19740  0.94070  Biso   1.000  H
  C780     1.0000 0.81020  0.23490  0.95614  Biso   1.000  C
  H572     1.0000 0.78060  0.21480  0.94830  Biso   1.000  H
  C781     1.0000 0.80634  0.28110  0.97438  Biso   1.000  C
  H573     1.0000 0.77320  0.29660  0.98070  Biso   1.000  H
  C782     1.0000 0.98436  0.22690  0.95460  Biso   1.000  C
  C783     1.0000 0.00920  0.15450  0.95666  Biso   1.000  C
  H574     1.0000 0.00140  0.12150  0.96810  Biso   1.000  H
  C784     1.0000 0.04660  0.12800  0.94193  Biso   1.000  C
  H575     1.0000 0.06390  0.07730  0.94380  Biso   1.000  H
  C785     1.0000 0.03490  0.24340  0.92311  Biso   1.000  C
  C786     1.0000 0.04910  0.29350  0.90534  Biso   1.000  C
  H576     1.0000 0.07750  0.27750  0.89640  Biso   1.000  H
  C787     1.0000 0.01810  0.37010  0.90159  Biso   1.000  C
  H577     1.0000 0.02360  0.40070  0.88950  Biso   1.000  H
  C788     1.0000 0.98410  0.39320  0.91498  Biso   1.000  C
  H578     1.0000 0.96690  0.44390  0.91300  Biso   1.000  H
  C789     1.0000 0.97060  0.34980  0.93211  Biso   1.000  C
  H579     1.0000 0.94380  0.37140  0.94100  Biso   1.000  H
  C790     1.0000 0.99570  0.27100  0.93741  Biso   1.000  C
  C791     1.0000 0.09657  0.28230  0.77137  Biso   1.000  C
  H580     1.0000 0.09290  0.30540  0.75820  Biso   1.000  H
  C792     1.0000 0.09000  0.32750  0.78969  Biso   1.000  C
  H581     1.0000 0.08100  0.38310  0.79110  Biso   1.000  H
  C793     1.0000 0.09983  0.27180  0.80492  Biso   1.000  C
  H582     1.0000 0.09860  0.28230  0.81910  Biso   1.000  H
  C794     1.0000 0.11187  0.19790  0.79599  Biso   1.000  C
  C795     1.0000 0.17290  0.13280  0.83880  Biso   1.000  C
  H583     1.0000 0.20650  0.13980  0.83190  Biso   1.000  H
  C796     1.0000 0.16980  0.13010  0.86050  Biso   1.000  C
  H584     1.0000 0.20290  0.13220  0.86790  Biso   1.000  H
  C797     1.0000 0.22350  0.14060  0.87120  Biso   1.000  C
  H585     1.0000 0.22420  0.14010  0.88570  Biso   1.000  H
  C798     1.0000 0.27190  0.15100  0.86070  Biso   1.000  C
  H586     1.0000 0.30450  0.15340  0.86850  Biso   1.000  H
  C799     1.0000 0.27600  0.15790  0.84020  Biso   1.000  C
  H587     1.0000 0.30960  0.16740  0.83340  Biso   1.000  H
  C800     1.0000 0.22430  0.14960  0.82930  Biso   1.000  C
  H588     1.0000 0.22480  0.15570  0.81500  Biso   1.000  H
  N117     1.0000 0.94920  0.33410  0.00361  Biso   1.000  N
  N118     1.0000 0.85618  0.29980  0.98147  Biso   1.000  N
  N119     1.0000 0.05836  0.16960  0.92590  Biso   1.000  N
  N120     1.0000 0.10812  0.20600  0.77440  Biso   1.000  N
  C801     1.0000 0.76365  0.40210  0.01810  Biso   1.000  C
  H589     1.0000 0.77080  0.37460  0.03050  Biso   1.000  H
  C802     1.0000 0.71271  0.43360  0.01257  Biso   1.000  C
  H590     1.0000 0.68010  0.43050  0.02020  Biso   1.000  H
  C803     1.0000 0.71927  0.47040  0.99362  Biso   1.000  C
  H591     1.0000 0.69210  0.49760  0.98600  Biso   1.000  H
  C804     1.0000 0.77397  0.45910  0.98815  Biso   1.000  C
  C805     1.0000 0.80170  0.48820  0.97093  Biso   1.000  C
  C806     1.0000 0.85724  0.48710  0.96785  Biso   1.000  C
  C807     1.0000 0.88634  0.52520  0.95203  Biso   1.000  C
  H592     1.0000 0.87130  0.55260  0.94070  Biso   1.000  H
  C808     1.0000 0.93980  0.51510  0.95614  Biso   1.000  C
  H593     1.0000 0.96940  0.53520  0.94830  Biso   1.000  H
  C809     1.0000 0.94366  0.46890  0.97438  Biso   1.000  C
  H594     1.0000 0.97680  0.45340  0.98070  Biso   1.000  H
  C810     1.0000 0.76564  0.52310  0.95460  Biso   1.000  C
  C811     1.0000 0.74080  0.59550  0.95666  Biso   1.000  C
  H595     1.0000 0.74860  0.62850  0.96810  Biso   1.000  H
  C812     1.0000 0.70340  0.62200  0.94193  Biso   1.000  C
  H596     1.0000 0.68610  0.67270  0.94380  Biso   1.000  H
  C813     1.0000 0.71510  0.50660  0.92311  Biso   1.000  C
  C814     1.0000 0.70090  0.45650  0.90534  Biso   1.000  C
  H597     1.0000 0.67250  0.47250  0.89640  Biso   1.000  H
  C815     1.0000 0.73190  0.37990  0.90159  Biso   1.000  C
  H598     1.0000 0.72640  0.34930  0.88950  Biso   1.000  H
  C816     1.0000 0.76590  0.35680  0.91498  Biso   1.000  C
  H599     1.0000 0.78310  0.30610  0.91300  Biso   1.000  H
  C817     1.0000 0.77940  0.40020  0.93211  Biso   1.000  C
  H600     1.0000 0.80620  0.37860  0.94100  Biso   1.000  H
  C818     1.0000 0.75430  0.47900  0.93741  Biso   1.000  C
  C819     1.0000 0.65343  0.46770  0.77137  Biso   1.000  C
  H601     1.0000 0.65710  0.44460  0.75820  Biso   1.000  H
  C820     1.0000 0.66000  0.42250  0.78969  Biso   1.000  C
  H602     1.0000 0.66900  0.36690  0.79110  Biso   1.000  H
  C821     1.0000 0.65017  0.47820  0.80492  Biso   1.000  C
  H603     1.0000 0.65140  0.46770  0.81910  Biso   1.000  H
  C822     1.0000 0.63813  0.55210  0.79599  Biso   1.000  C
  C823     1.0000 0.57710  0.61720  0.83880  Biso   1.000  C
  H604     1.0000 0.54350  0.61020  0.83190  Biso   1.000  H
  C824     1.0000 0.58020  0.61990  0.86050  Biso   1.000  C
  H605     1.0000 0.54710  0.61780  0.86790  Biso   1.000  H
  C825     1.0000 0.52650  0.60940  0.87120  Biso   1.000  C
  H606     1.0000 0.52580  0.60990  0.88570  Biso   1.000  H
  C826     1.0000 0.47810  0.59900  0.86070  Biso   1.000  C
  H607     1.0000 0.44550  0.59660  0.86850  Biso   1.000  H
  C827     1.0000 0.47400  0.59210  0.84020  Biso   1.000  C
  H608     1.0000 0.44040  0.58260  0.83340  Biso   1.000  H
  C828     1.0000 0.52570  0.60040  0.82930  Biso   1.000  C
  H609     1.0000 0.52520  0.59430  0.81500  Biso   1.000  H
  N121     1.0000 0.80080  0.41590  0.00361  Biso   1.000  N
  N122     1.0000 0.89382  0.45020  0.98147  Biso   1.000  N
  N123     1.0000 0.69164  0.58040  0.92590  Biso   1.000  N
  N124     1.0000 0.64188  0.54400  0.77440  Biso   1.000  N
  C829     1.0000 0.76365  0.90210  0.51810  Biso   1.000  C
  H610     1.0000 0.77080  0.87460  0.53050  Biso   1.000  H
  C830     1.0000 0.71271  0.93360  0.51257  Biso   1.000  C
  H611     1.0000 0.68010  0.93050  0.52020  Biso   1.000  H
  C831     1.0000 0.71927  0.97040  0.49362  Biso   1.000  C
  H612     1.0000 0.69210  0.99760  0.48600  Biso   1.000  H
  C832     1.0000 0.77397  0.95910  0.48815  Biso   1.000  C
  C833     1.0000 0.80170  0.98820  0.47093  Biso   1.000  C
  C834     1.0000 0.85724  0.98710  0.46785  Biso   1.000  C
  C835     1.0000 0.88634  0.02520  0.45203  Biso   1.000  C
  H613     1.0000 0.87130  0.05260  0.44070  Biso   1.000  H
  C836     1.0000 0.93980  0.01510  0.45614  Biso   1.000  C
  H614     1.0000 0.96940  0.03520  0.44830  Biso   1.000  H
  C837     1.0000 0.94366  0.96890  0.47438  Biso   1.000  C
  H615     1.0000 0.97680  0.95340  0.48070  Biso   1.000  H
  C838     1.0000 0.76564  0.02310  0.45460  Biso   1.000  C
  C839     1.0000 0.74080  0.09550  0.45666  Biso   1.000  C
  H616     1.0000 0.74860  0.12850  0.46810  Biso   1.000  H
  C840     1.0000 0.70340  0.12200  0.44193  Biso   1.000  C
  H617     1.0000 0.68610  0.17270  0.44380  Biso   1.000  H
  C841     1.0000 0.71510  0.00660  0.42311  Biso   1.000  C
  C842     1.0000 0.70090  0.95650  0.40534  Biso   1.000  C
  H618     1.0000 0.67250  0.97250  0.39640  Biso   1.000  H
  C843     1.0000 0.73190  0.87990  0.40159  Biso   1.000  C
  H619     1.0000 0.72640  0.84930  0.38950  Biso   1.000  H
  C844     1.0000 0.76590  0.85680  0.41498  Biso   1.000  C
  H620     1.0000 0.78310  0.80610  0.41300  Biso   1.000  H
  C845     1.0000 0.77940  0.90020  0.43211  Biso   1.000  C
  H621     1.0000 0.80620  0.87860  0.44100  Biso   1.000  H
  C846     1.0000 0.75430  0.97900  0.43741  Biso   1.000  C
  C847     1.0000 0.65343  0.96770  0.27137  Biso   1.000  C
  H622     1.0000 0.65710  0.94460  0.25820  Biso   1.000  H
  C848     1.0000 0.66000  0.92250  0.28969  Biso   1.000  C
  H623     1.0000 0.66900  0.86690  0.29110  Biso   1.000  H
  C849     1.0000 0.65017  0.97820  0.30492  Biso   1.000  C
  H624     1.0000 0.65140  0.96770  0.31910  Biso   1.000  H
  C850     1.0000 0.63813  0.05210  0.29599  Biso   1.000  C
  C851     1.0000 0.57710  0.11720  0.33880  Biso   1.000  C
  H625     1.0000 0.54350  0.11020  0.33190  Biso   1.000  H
  C852     1.0000 0.58020  0.11990  0.36050  Biso   1.000  C
  H626     1.0000 0.54710  0.11780  0.36790  Biso   1.000  H
  C853     1.0000 0.52650  0.10940  0.37120  Biso   1.000  C
  H627     1.0000 0.52580  0.10990  0.38570  Biso   1.000  H
  C854     1.0000 0.47810  0.09900  0.36070  Biso   1.000  C
  H628     1.0000 0.44550  0.09660  0.36850  Biso   1.000  H
  C855     1.0000 0.47400  0.09210  0.34020  Biso   1.000  C
  H629     1.0000 0.44040  0.08260  0.33340  Biso   1.000  H
  C856     1.0000 0.52570  0.10040  0.32930  Biso   1.000  C
  H630     1.0000 0.52520  0.09430  0.31500  Biso   1.000  H
  N125     1.0000 0.80080  0.91590  0.50361  Biso   1.000  N
  N126     1.0000 0.89382  0.95020  0.48147  Biso   1.000  N
  N127     1.0000 0.69164  0.08040  0.42590  Biso   1.000  N
  N128     1.0000 0.64188  0.04400  0.27440  Biso   1.000  N
  C857     1.0000 0.26365  0.40210  0.51810  Biso   1.000  C
  H631     1.0000 0.27080  0.37460  0.53050  Biso   1.000  H
  C858     1.0000 0.21271  0.43360  0.51257  Biso   1.000  C
  H632     1.0000 0.18010  0.43050  0.52020  Biso   1.000  H
  C859     1.0000 0.21927  0.47040  0.49362  Biso   1.000  C
  H633     1.0000 0.19210  0.49760  0.48600  Biso   1.000  H
  C860     1.0000 0.27397  0.45910  0.48815  Biso   1.000  C
  C861     1.0000 0.30170  0.48820  0.47093  Biso   1.000  C
  C862     1.0000 0.35724  0.48710  0.46785  Biso   1.000  C
  C863     1.0000 0.38634  0.52520  0.45203  Biso   1.000  C
  H634     1.0000 0.37130  0.55260  0.44070  Biso   1.000  H
  C864     1.0000 0.43980  0.51510  0.45614  Biso   1.000  C
  H635     1.0000 0.46940  0.53520  0.44830  Biso   1.000  H
  C865     1.0000 0.44366  0.46890  0.47438  Biso   1.000  C
  H636     1.0000 0.47680  0.45340  0.48070  Biso   1.000  H
  C866     1.0000 0.26564  0.52310  0.45460  Biso   1.000  C
  C867     1.0000 0.24080  0.59550  0.45666  Biso   1.000  C
  H637     1.0000 0.24860  0.62850  0.46810  Biso   1.000  H
  C868     1.0000 0.20340  0.62200  0.44193  Biso   1.000  C
  H638     1.0000 0.18610  0.67270  0.44380  Biso   1.000  H
  C869     1.0000 0.21510  0.50660  0.42311  Biso   1.000  C
  C870     1.0000 0.20090  0.45650  0.40534  Biso   1.000  C
  H639     1.0000 0.17250  0.47250  0.39640  Biso   1.000  H
  C871     1.0000 0.23190  0.37990  0.40159  Biso   1.000  C
  H640     1.0000 0.22640  0.34930  0.38950  Biso   1.000  H
  C872     1.0000 0.26590  0.35680  0.41498  Biso   1.000  C
  H641     1.0000 0.28310  0.30610  0.41300  Biso   1.000  H
  C873     1.0000 0.27940  0.40020  0.43211  Biso   1.000  C
  H642     1.0000 0.30620  0.37860  0.44100  Biso   1.000  H
  C874     1.0000 0.25430  0.47900  0.43741  Biso   1.000  C
  C875     1.0000 0.15343  0.46770  0.27137  Biso   1.000  C
  H643     1.0000 0.15710  0.44460  0.25820  Biso   1.000  H
  C876     1.0000 0.16000  0.42250  0.28969  Biso   1.000  C
  H644     1.0000 0.16900  0.36690  0.29110  Biso   1.000  H
  C877     1.0000 0.15017  0.47820  0.30492  Biso   1.000  C
  H645     1.0000 0.15140  0.46770  0.31910  Biso   1.000  H
  C878     1.0000 0.13813  0.55210  0.29599  Biso   1.000  C
  C879     1.0000 0.07710  0.61720  0.33880  Biso   1.000  C
  H646     1.0000 0.04350  0.61020  0.33190  Biso   1.000  H
  C880     1.0000 0.08020  0.61990  0.36050  Biso   1.000  C
  H647     1.0000 0.04710  0.61780  0.36790  Biso   1.000  H
  C881     1.0000 0.02650  0.60940  0.37120  Biso   1.000  C
  H648     1.0000 0.02580  0.60990  0.38570  Biso   1.000  H
  C882     1.0000 0.97810  0.59900  0.36070  Biso   1.000  C
  H649     1.0000 0.94550  0.59660  0.36850  Biso   1.000  H
  C883     1.0000 0.97400  0.59210  0.34020  Biso   1.000  C
  H650     1.0000 0.94040  0.58260  0.33340  Biso   1.000  H
  C884     1.0000 0.02570  0.60040  0.32930  Biso   1.000  C
  H651     1.0000 0.02520  0.59430  0.31500  Biso   1.000  H
  N129     1.0000 0.30080  0.41590  0.50361  Biso   1.000  N
  N130     1.0000 0.39382  0.45020  0.48147  Biso   1.000  N
  N131     1.0000 0.19164  0.58040  0.42590  Biso   1.000  N
  N132     1.0000 0.14188  0.54400  0.27440  Biso   1.000  N
  C885     1.0000 0.26365  0.90210  0.01810  Biso   1.000  C
  H652     1.0000 0.27080  0.87460  0.03050  Biso   1.000  H
  C886     1.0000 0.21271  0.93360  0.01257  Biso   1.000  C
  H653     1.0000 0.18010  0.93050  0.02020  Biso   1.000  H
  C887     1.0000 0.21927  0.97040  0.99362  Biso   1.000  C
  H654     1.0000 0.19210  0.99760  0.98600  Biso   1.000  H
  C888     1.0000 0.27397  0.95910  0.98815  Biso   1.000  C
  C889     1.0000 0.30170  0.98820  0.97093  Biso   1.000  C
  C890     1.0000 0.35724  0.98710  0.96785  Biso   1.000  C
  C891     1.0000 0.38634  0.02520  0.95203  Biso   1.000  C
  H655     1.0000 0.37130  0.05260  0.94070  Biso   1.000  H
  C892     1.0000 0.43980  0.01510  0.95614  Biso   1.000  C
  H656     1.0000 0.46940  0.03520  0.94830  Biso   1.000  H
  C893     1.0000 0.44366  0.96890  0.97438  Biso   1.000  C
  H657     1.0000 0.47680  0.95340  0.98070  Biso   1.000  H
  C894     1.0000 0.26564  0.02310  0.95460  Biso   1.000  C
  C895     1.0000 0.24080  0.09550  0.95666  Biso   1.000  C
  H658     1.0000 0.24860  0.12850  0.96810  Biso   1.000  H
  C896     1.0000 0.20340  0.12200  0.94193  Biso   1.000  C
  H659     1.0000 0.18610  0.17270  0.94380  Biso   1.000  H
  C897     1.0000 0.21510  0.00660  0.92311  Biso   1.000  C
  C898     1.0000 0.20090  0.95650  0.90534  Biso   1.000  C
  H660     1.0000 0.17250  0.97250  0.89640  Biso   1.000  H
  C899     1.0000 0.23190  0.87990  0.90159  Biso   1.000  C
  H661     1.0000 0.22640  0.84930  0.88950  Biso   1.000  H
  C900     1.0000 0.26590  0.85680  0.91498  Biso   1.000  C
  H662     1.0000 0.28310  0.80610  0.91300  Biso   1.000  H
  C901     1.0000 0.27940  0.90020  0.93211  Biso   1.000  C
  H663     1.0000 0.30620  0.87860  0.94100  Biso   1.000  H
  C902     1.0000 0.25430  0.97900  0.93741  Biso   1.000  C
  C903     1.0000 0.15343  0.96770  0.77137  Biso   1.000  C
  H664     1.0000 0.15710  0.94460  0.75820  Biso   1.000  H
  C904     1.0000 0.16000  0.92250  0.78969  Biso   1.000  C
  H665     1.0000 0.16900  0.86690  0.79110  Biso   1.000  H
  C905     1.0000 0.15017  0.97820  0.80492  Biso   1.000  C
  H666     1.0000 0.15140  0.96770  0.81910  Biso   1.000  H
  C906     1.0000 0.13813  0.05210  0.79599  Biso   1.000  C
  C907     1.0000 0.07710  0.11720  0.83880  Biso   1.000  C
  H667     1.0000 0.04350  0.11020  0.83190  Biso   1.000  H
  C908     1.0000 0.08020  0.11990  0.86050  Biso   1.000  C
  H668     1.0000 0.04710  0.11780  0.86790  Biso   1.000  H
  C909     1.0000 0.02650  0.10940  0.87120  Biso   1.000  C
  H669     1.0000 0.02580  0.10990  0.88570  Biso   1.000  H
  C910     1.0000 0.97810  0.09900  0.86070  Biso   1.000  C
  H670     1.0000 0.94550  0.09660  0.86850  Biso   1.000  H
  C911     1.0000 0.97400  0.09210  0.84020  Biso   1.000  C
  H671     1.0000 0.94040  0.08260  0.83340  Biso   1.000  H
  C912     1.0000 0.02570  0.10040  0.82930  Biso   1.000  C
  H672     1.0000 0.02520  0.09430  0.81500  Biso   1.000  H
  N133     1.0000 0.30080  0.91590  0.00361  Biso   1.000  N
  N134     1.0000 0.39382  0.95020  0.98147  Biso   1.000  N
  N135     1.0000 0.19164  0.08040  0.92590  Biso   1.000  N
  N136     1.0000 0.14188  0.04400  0.77440  Biso   1.000  N
  Ag9      1.0000 0.37500  0.37500  0.65433  Biso   1.000  Ag
  C913     1.0000 0.37500  0.37500  0.55523  Biso   1.000  C
  C914     1.0000 0.37500  0.37500  0.57847  Biso   1.000  C
  N137     1.0000 0.37500  0.37500  0.62066  Biso   1.000  N
  Ag10     1.0000 0.37500  0.87500  0.15433  Biso   1.000  Ag
  C915     1.0000 0.37500  0.87500  0.05523  Biso   1.000  C
  C916     1.0000 0.37500  0.87500  0.07847  Biso   1.000  C
  N138     1.0000 0.37500  0.87500  0.12066  Biso   1.000  N
  Ag11     1.0000 0.87500  0.37500  0.15433  Biso   1.000  Ag
  C917     1.0000 0.87500  0.37500  0.05523  Biso   1.000  C
  C918     1.0000 0.87500  0.37500  0.07847  Biso   1.000  C
  N139     1.0000 0.87500  0.37500  0.12066  Biso   1.000  N
  Ag12     1.0000 0.87500  0.87500  0.65433  Biso   1.000  Ag
  C919     1.0000 0.87500  0.87500  0.55523  Biso   1.000  C
  C920     1.0000 0.87500  0.87500  0.57847  Biso   1.000  C
  N140     1.0000 0.87500  0.87500  0.62066  Biso   1.000  N
  Ag13     1.0000 0.62500  0.62500  0.90433  Biso   1.000  Ag
  C921     1.0000 0.62500  0.62500  0.80523  Biso   1.000  C
  C922     1.0000 0.62500  0.62500  0.82847  Biso   1.000  C
  N141     1.0000 0.62500  0.62500  0.87066  Biso   1.000  N
  Ag14     1.0000 0.62500  0.12500  0.40433  Biso   1.000  Ag
  C923     1.0000 0.62500  0.12500  0.30523  Biso   1.000  C
  C924     1.0000 0.62500  0.12500  0.32847  Biso   1.000  C
  N142     1.0000 0.62500  0.12500  0.37066  Biso   1.000  N
  Ag15     1.0000 0.12500  0.62500  0.40433  Biso   1.000  Ag
  C925     1.0000 0.12500  0.62500  0.30523  Biso   1.000  C
  C926     1.0000 0.12500  0.62500  0.32847  Biso   1.000  C
  N143     1.0000 0.12500  0.62500  0.37066  Biso   1.000  N
  Ag16     1.0000 0.12500  0.12500  0.90433  Biso   1.000  Ag
  C927     1.0000 0.12500  0.12500  0.80523  Biso   1.000  C
  C928     1.0000 0.12500  0.12500  0.82847  Biso   1.000  C
  N144     1.0000 0.12500  0.12500  0.87066  Biso   1.000  N
  Fe9      1.0000 0.12500  0.12500  0.75361  Biso   1.000  Fe
  Fe10     1.0000 0.12500  0.62500  0.25361  Biso   1.000  Fe
  Fe11     1.0000 0.62500  0.62500  0.75361  Biso   1.000  Fe
  Fe12     1.0000 0.62500  0.12500  0.25361  Biso   1.000  Fe
  Fe13     1.0000 0.37500  0.87500  0.00361  Biso   1.000  Fe
  Fe14     1.0000 0.37500  0.37500  0.50361  Biso   1.000  Fe
  Fe15     1.0000 0.87500  0.37500  0.00361  Biso   1.000  Fe
  Fe16     1.0000 0.87500  0.87500  0.50361  Biso   1.000  Fe
