data_CEXSEE_charged
_audit_creation_date              2014-07-02
_audit_creation_method            'Materials Studio'
_symmetry_space_group_name_H-M    'P1'
_symmetry_Int_Tables_number       1
_symmetry_cell_setting            triclinic
loop_
_symmetry_equiv_pos_as_xyz
  x,y,z
_cell_length_a                    12.3270
_cell_length_b                    26.9140
_cell_length_c                    33.3750
_cell_angle_alpha                 90.0000
_cell_angle_beta                  90.0000
_cell_angle_gamma                 90.0000
loop_
_atom_site_label
_atom_site_type_symbol
_atom_site_fract_x
_atom_site_fract_y
_atom_site_fract_z
_atom_site_U_iso_or_equiv
_atom_site_adp_type
_atom_site_occupancy
Co1    Co    0.52336   0.56858   0.61367   0.01267  Uiso   1.00
Co2    Co    0.97664   0.06858   0.38633   0.01267  Uiso   1.00
Co3    Co    0.02336   0.06858   0.88633   0.01267  Uiso   1.00
Co4    Co    0.47664   0.56858   0.11367   0.01267  Uiso   1.00
Ag1    Ag    0.73920   0.22119   0.64001   0.01267  Uiso   1.00
Ag2    Ag    0.76080   0.72119   0.35999   0.01267  Uiso   1.00
Ag3    Ag    0.23920   0.72119   0.85999   0.01267  Uiso   1.00
Ag4    Ag    0.26080   0.22119   0.14001   0.01267  Uiso   1.00
H1     H     0.28760   0.53910   0.64310   0.01267  Uiso   1.00
H2     H     0.23610   0.45590   0.66950   0.01267  Uiso   1.00
H3     H     0.39720   0.40190   0.66060   0.01267  Uiso   1.00
H4     H     0.79290   0.42860   0.59760   0.01267  Uiso   1.00
H5     H     0.88410   0.50420   0.57050   0.01267  Uiso   1.00
H6     H     0.75450   0.57360   0.57470   0.01267  Uiso   1.00
H7     H     0.72240   0.40440   0.67620   0.01267  Uiso   1.00
H8     H     0.75920   0.32500   0.68510   0.01267  Uiso   1.00
H9     H     0.54240   0.28170   0.60680   0.01267  Uiso   1.00
H10    H     0.49860   0.36350   0.59230   0.01267  Uiso   1.00
H11    H     0.22180   0.03590   0.83320   0.01267  Uiso   1.00
H12    H     0.22860   0.04280   0.75970   0.01267  Uiso   1.00
H13    H     0.06840   0.09080   0.73640   0.01267  Uiso   1.00
H14    H     0.75060   0.18060   0.82210   0.01267  Uiso   1.00
H15    H     0.70580   0.18180   0.89500   0.01267  Uiso   1.00
H16    H     0.83670   0.12420   0.92890   0.01267  Uiso   1.00
H17    H     0.00840   0.18640   0.75310   0.01267  Uiso   1.00
H18    H     0.92990   0.22150   0.69510   0.01267  Uiso   1.00
H19    H     0.66930   0.14110   0.70680   0.01267  Uiso   1.00
H20    H     0.73850   0.09810   0.76300   0.01267  Uiso   1.00
H21    H     0.84770   0.15230   0.34580   0.01267  Uiso   1.00
H22    H     0.75020   0.22230   0.38100   0.01267  Uiso   1.00
H23    H     0.77500   0.20720   0.45450   0.01267  Uiso   1.00
H24    H     0.03150   0.07850   0.53470   0.01267  Uiso   1.00
H25    H     0.16750   0.01410   0.51100   0.01267  Uiso   1.00
H26    H     0.13930   0.00660   0.43730   0.01267  Uiso   1.00
H27    H     0.79820   0.08560   0.53200   0.01267  Uiso   1.00
H28    H     0.72800   0.12330   0.58930   0.01267  Uiso   1.00
H29    H     0.88460   0.24670   0.56480   0.01267  Uiso   1.00
H30    H     0.94540   0.21790   0.50480   0.01267  Uiso   1.00
H31    H     0.21240   0.03910   0.35690   0.01267  Uiso   1.00
H32    H     0.26390   0.95590   0.33050   0.01267  Uiso   1.00
H33    H     0.10280   0.90190   0.33940   0.01267  Uiso   1.00
H34    H     0.70710   0.92860   0.40240   0.01267  Uiso   1.00
H35    H     0.61590   0.00420   0.42950   0.01267  Uiso   1.00
H36    H     0.74550   0.07360   0.42530   0.01267  Uiso   1.00
H37    H     0.77760   0.90440   0.32380   0.01267  Uiso   1.00
H38    H     0.74080   0.82500   0.31490   0.01267  Uiso   1.00
H39    H     0.95760   0.78170   0.39320   0.01267  Uiso   1.00
H40    H     0.00140   0.86350   0.40770   0.01267  Uiso   1.00
H41    H     0.27820   0.53590   0.16680   0.01267  Uiso   1.00
H42    H     0.27140   0.54280   0.24030   0.01267  Uiso   1.00
H43    H     0.43160   0.59080   0.26360   0.01267  Uiso   1.00
H44    H     0.74940   0.68060   0.17790   0.01267  Uiso   1.00
H45    H     0.79420   0.68180   0.10500   0.01267  Uiso   1.00
H46    H     0.66330   0.62420   0.07110   0.01267  Uiso   1.00
H47    H     0.49160   0.68640   0.24690   0.01267  Uiso   1.00
H48    H     0.57010   0.72150   0.30490   0.01267  Uiso   1.00
H49    H     0.83070   0.64110   0.29320   0.01267  Uiso   1.00
H50    H     0.76150   0.59810   0.23700   0.01267  Uiso   1.00
H51    H     0.65230   0.65230   0.65420   0.01267  Uiso   1.00
H52    H     0.74980   0.72230   0.61900   0.01267  Uiso   1.00
H53    H     0.72500   0.70720   0.54550   0.01267  Uiso   1.00
H54    H     0.46850   0.57850   0.46530   0.01267  Uiso   1.00
H55    H     0.33250   0.51410   0.48900   0.01267  Uiso   1.00
H56    H     0.36070   0.50660   0.56270   0.01267  Uiso   1.00
H57    H     0.70180   0.58560   0.46800   0.01267  Uiso   1.00
H58    H     0.77200   0.62330   0.41070   0.01267  Uiso   1.00
H59    H     0.61540   0.74670   0.43520   0.01267  Uiso   1.00
H60    H     0.55460   0.71790   0.49520   0.01267  Uiso   1.00
H61    H     0.78760   0.03910   0.85690   0.01267  Uiso   1.00
H62    H     0.73610   0.95590   0.83050   0.01267  Uiso   1.00
H63    H     0.89720   0.90190   0.83940   0.01267  Uiso   1.00
H64    H     0.29290   0.92860   0.90240   0.01267  Uiso   1.00
H65    H     0.38410   0.00420   0.92950   0.01267  Uiso   1.00
H66    H     0.25450   0.07360   0.92530   0.01267  Uiso   1.00
H67    H     0.22240   0.90440   0.82380   0.01267  Uiso   1.00
H68    H     0.25920   0.82500   0.81490   0.01267  Uiso   1.00
H69    H     0.04240   0.78170   0.89320   0.01267  Uiso   1.00
H70    H     0.99860   0.86350   0.90770   0.01267  Uiso   1.00
H71    H     0.72180   0.53590   0.66680   0.01267  Uiso   1.00
H72    H     0.72860   0.54280   0.74030   0.01267  Uiso   1.00
H73    H     0.56840   0.59080   0.76360   0.01267  Uiso   1.00
H74    H     0.25060   0.68060   0.67790   0.01267  Uiso   1.00
H75    H     0.20580   0.68180   0.60500   0.01267  Uiso   1.00
H76    H     0.33670   0.62420   0.57110   0.01267  Uiso   1.00
H77    H     0.50840   0.68640   0.74690   0.01267  Uiso   1.00
H78    H     0.42990   0.72150   0.80490   0.01267  Uiso   1.00
H79    H     0.16930   0.64110   0.79320   0.01267  Uiso   1.00
H80    H     0.23850   0.59810   0.73700   0.01267  Uiso   1.00
H81    H     0.34770   0.65230   0.15420   0.01267  Uiso   1.00
H82    H     0.25020   0.72230   0.11900   0.01267  Uiso   1.00
H83    H     0.27500   0.70720   0.04550   0.01267  Uiso   1.00
H84    H     0.53150   0.57850   0.96530   0.01267  Uiso   1.00
H85    H     0.66750   0.51410   0.98900   0.01267  Uiso   1.00
H86    H     0.63930   0.50660   0.06270   0.01267  Uiso   1.00
H87    H     0.29820   0.58560   0.96800   0.01267  Uiso   1.00
H88    H     0.22800   0.62330   0.91070   0.01267  Uiso   1.00
H89    H     0.38460   0.74670   0.93520   0.01267  Uiso   1.00
H90    H     0.44540   0.71790   0.99520   0.01267  Uiso   1.00
H91    H     0.71240   0.53910   0.14310   0.01267  Uiso   1.00
H92    H     0.76390   0.45590   0.16950   0.01267  Uiso   1.00
H93    H     0.60280   0.40190   0.16060   0.01267  Uiso   1.00
H94    H     0.20710   0.42860   0.09760   0.01267  Uiso   1.00
H95    H     0.11590   0.50420   0.07050   0.01267  Uiso   1.00
H96    H     0.24550   0.57360   0.07470   0.01267  Uiso   1.00
H97    H     0.27760   0.40440   0.17620   0.01267  Uiso   1.00
H98    H     0.24080   0.32500   0.18510   0.01267  Uiso   1.00
H99    H     0.45760   0.28170   0.10680   0.01267  Uiso   1.00
H100   H     0.50140   0.36350   0.09230   0.01267  Uiso   1.00
H101   H     0.77820   0.03590   0.33320   0.01267  Uiso   1.00
H102   H     0.77140   0.04280   0.25970   0.01267  Uiso   1.00
H103   H     0.93160   0.09080   0.23640   0.01267  Uiso   1.00
H104   H     0.24940   0.18060   0.32210   0.01267  Uiso   1.00
H105   H     0.29420   0.18180   0.39500   0.01267  Uiso   1.00
H106   H     0.16330   0.12420   0.42890   0.01267  Uiso   1.00
H107   H     0.99160   0.18640   0.25310   0.01267  Uiso   1.00
H108   H     0.07010   0.22150   0.19510   0.01267  Uiso   1.00
H109   H     0.33070   0.14110   0.20680   0.01267  Uiso   1.00
H110   H     0.26150   0.09810   0.26300   0.01267  Uiso   1.00
H111   H     0.15230   0.15230   0.84580   0.01267  Uiso   1.00
H112   H     0.24980   0.22230   0.88100   0.01267  Uiso   1.00
H113   H     0.22500   0.20720   0.95450   0.01267  Uiso   1.00
H114   H     0.96850   0.07850   0.03470   0.01267  Uiso   1.00
H115   H     0.83250   0.01410   0.01100   0.01267  Uiso   1.00
H116   H     0.86070   0.00660   0.93730   0.01267  Uiso   1.00
H117   H     0.20180   0.08560   0.03200   0.01267  Uiso   1.00
H118   H     0.27200   0.12330   0.08930   0.01267  Uiso   1.00
H119   H     0.11540   0.24670   0.06480   0.01267  Uiso   1.00
H120   H     0.05460   0.21790   0.00480   0.01267  Uiso   1.00
C1     C     0.33430   0.51100   0.64380   0.01267  Uiso   1.00
C2     C     0.30420   0.46510   0.65840   0.01267  Uiso   1.00
C3     C     0.39250   0.43610   0.65360   0.01267  Uiso   1.00
C4     C     0.47260   0.46320   0.63730   0.01267  Uiso   1.00
C5     C     0.57810   0.44810   0.62580   0.01267  Uiso   1.00
C6     C     0.65590   0.47610   0.60830   0.01267  Uiso   1.00
C7     C     0.76280   0.46100   0.59580   0.01267  Uiso   1.00
C8     C     0.81240   0.50230   0.58080   0.01267  Uiso   1.00
C9     C     0.73950   0.54080   0.58360   0.01267  Uiso   1.00
C10    C     0.60710   0.39440   0.63330   0.01267  Uiso   1.00
C11    C     0.68540   0.38020   0.66060   0.01267  Uiso   1.00
C12    C     0.70780   0.33310   0.66490   0.01267  Uiso   1.00
C13    C     0.58210   0.30770   0.61920   0.01267  Uiso   1.00
C14    C     0.55300   0.35590   0.61150   0.01267  Uiso   1.00
C15    C     0.16750   0.05170   0.81750   0.01267  Uiso   1.00
C16    C     0.17250   0.05580   0.77620   0.01267  Uiso   1.00
C17    C     0.08440   0.08120   0.76310   0.01267  Uiso   1.00
C18    C     0.01920   0.09080   0.79890   0.01267  Uiso   1.00
C19    C     0.92650   0.11700   0.80180   0.01267  Uiso   1.00
C20    C     0.87460   0.12830   0.83760   0.01267  Uiso   1.00
C21    C     0.78580   0.16220   0.84270   0.01267  Uiso   1.00
C22    C     0.76160   0.16320   0.88240   0.01267  Uiso   1.00
C23    C     0.83550   0.13120   0.90100   0.01267  Uiso   1.00
C24    C     0.87810   0.14020   0.76460   0.01267  Uiso   1.00
C25    C     0.93880   0.17610   0.74400   0.01267  Uiso   1.00
C26    C     0.89090   0.19630   0.70900   0.01267  Uiso   1.00
C27    C     0.74040   0.14880   0.71590   0.01267  Uiso   1.00
C28    C     0.77830   0.12400   0.75040   0.01267  Uiso   1.00
C29    C     0.84620   0.15720   0.37390   0.01267  Uiso   1.00
C30    C     0.78990   0.19610   0.39320   0.01267  Uiso   1.00
C31    C     0.80490   0.18810   0.43330   0.01267  Uiso   1.00
C32    C     0.87300   0.14620   0.43740   0.01267  Uiso   1.00
C33    C     0.91310   0.12690   0.47190   0.01267  Uiso   1.00
C34    C     0.99360   0.08580   0.47440   0.01267  Uiso   1.00
C35    C     0.04400   0.06820   0.50780   0.01267  Uiso   1.00
C36    C     0.11730   0.03230   0.49510   0.01267  Uiso   1.00
C37    C     0.10090   0.02890   0.45430   0.01267  Uiso   1.00
C38    C     0.88140   0.14700   0.51080   0.01267  Uiso   1.00
C39    C     0.81470   0.11940   0.53750   0.01267  Uiso   1.00
C40    C     0.77330   0.14220   0.57210   0.01267  Uiso   1.00
C41    C     0.86340   0.21420   0.55680   0.01267  Uiso   1.00
C42    C     0.90350   0.19700   0.52170   0.01267  Uiso   1.00
C43    C     0.16570   0.01100   0.35620   0.01267  Uiso   1.00
C44    C     0.19580   0.96510   0.34160   0.01267  Uiso   1.00
C45    C     0.10750   0.93610   0.34640   0.01267  Uiso   1.00
C46    C     0.02740   0.96320   0.36270   0.01267  Uiso   1.00
C47    C     0.92190   0.94810   0.37420   0.01267  Uiso   1.00
C48    C     0.84410   0.97610   0.39170   0.01267  Uiso   1.00
C49    C     0.73720   0.96100   0.40420   0.01267  Uiso   1.00
C50    C     0.68760   0.00230   0.41920   0.01267  Uiso   1.00
C51    C     0.76050   0.04080   0.41640   0.01267  Uiso   1.00
C52    C     0.89290   0.89440   0.36670   0.01267  Uiso   1.00
C53    C     0.81460   0.88020   0.33940   0.01267  Uiso   1.00
C54    C     0.79220   0.83310   0.33510   0.01267  Uiso   1.00
C55    C     0.91790   0.80770   0.38080   0.01267  Uiso   1.00
C56    C     0.94700   0.85590   0.38850   0.01267  Uiso   1.00
C57    C     0.33250   0.55170   0.18250   0.01267  Uiso   1.00
C58    C     0.32750   0.55580   0.22380   0.01267  Uiso   1.00
C59    C     0.41560   0.58120   0.23690   0.01267  Uiso   1.00
C60    C     0.48080   0.59080   0.20110   0.01267  Uiso   1.00
C61    C     0.57350   0.61700   0.19820   0.01267  Uiso   1.00
C62    C     0.62540   0.62830   0.16240   0.01267  Uiso   1.00
C63    C     0.71420   0.66220   0.15730   0.01267  Uiso   1.00
C64    C     0.73840   0.66320   0.11760   0.01267  Uiso   1.00
C65    C     0.66450   0.63120   0.09900   0.01267  Uiso   1.00
C66    C     0.62190   0.64020   0.23540   0.01267  Uiso   1.00
C67    C     0.56120   0.67610   0.25600   0.01267  Uiso   1.00
C68    C     0.60910   0.69630   0.29100   0.01267  Uiso   1.00
C69    C     0.75960   0.64880   0.28410   0.01267  Uiso   1.00
C70    C     0.72170   0.62400   0.24960   0.01267  Uiso   1.00
C71    C     0.65380   0.65720   0.62610   0.01267  Uiso   1.00
C72    C     0.71010   0.69610   0.60680   0.01267  Uiso   1.00
C73    C     0.69510   0.68810   0.56670   0.01267  Uiso   1.00
C74    C     0.62700   0.64620   0.56260   0.01267  Uiso   1.00
C75    C     0.58690   0.62690   0.52810   0.01267  Uiso   1.00
C76    C     0.50640   0.58580   0.52560   0.01267  Uiso   1.00
C77    C     0.45600   0.56820   0.49220   0.01267  Uiso   1.00
C78    C     0.38270   0.53230   0.50490   0.01267  Uiso   1.00
C79    C     0.39910   0.52890   0.54570   0.01267  Uiso   1.00
C80    C     0.61860   0.64700   0.48920   0.01267  Uiso   1.00
C81    C     0.68530   0.61940   0.46250   0.01267  Uiso   1.00
C82    C     0.72670   0.64220   0.42790   0.01267  Uiso   1.00
C83    C     0.63660   0.71420   0.44320   0.01267  Uiso   1.00
C84    C     0.59650   0.69700   0.47830   0.01267  Uiso   1.00
C85    C     0.83430   0.01100   0.85620   0.01267  Uiso   1.00
C86    C     0.80420   0.96510   0.84160   0.01267  Uiso   1.00
C87    C     0.89250   0.93610   0.84640   0.01267  Uiso   1.00
C88    C     0.97260   0.96320   0.86270   0.01267  Uiso   1.00
C89    C     0.07810   0.94810   0.87420   0.01267  Uiso   1.00
C90    C     0.15590   0.97610   0.89170   0.01267  Uiso   1.00
C91    C     0.26280   0.96100   0.90420   0.01267  Uiso   1.00
C92    C     0.31240   0.00230   0.91920   0.01267  Uiso   1.00
C93    C     0.23950   0.04080   0.91640   0.01267  Uiso   1.00
C94    C     0.10710   0.89440   0.86670   0.01267  Uiso   1.00
C95    C     0.18540   0.88020   0.83940   0.01267  Uiso   1.00
C96    C     0.20780   0.83310   0.83510   0.01267  Uiso   1.00
C97    C     0.08210   0.80770   0.88080   0.01267  Uiso   1.00
C98    C     0.05300   0.85590   0.88850   0.01267  Uiso   1.00
C99    C     0.66750   0.55170   0.68250   0.01267  Uiso   1.00
C100   C     0.67250   0.55580   0.72380   0.01267  Uiso   1.00
C101   C     0.58440   0.58120   0.73690   0.01267  Uiso   1.00
C102   C     0.51920   0.59080   0.70110   0.01267  Uiso   1.00
C103   C     0.42650   0.61700   0.69820   0.01267  Uiso   1.00
C104   C     0.37460   0.62830   0.66240   0.01267  Uiso   1.00
C105   C     0.28580   0.66220   0.65730   0.01267  Uiso   1.00
C106   C     0.26160   0.66320   0.61760   0.01267  Uiso   1.00
C107   C     0.33550   0.63120   0.59900   0.01267  Uiso   1.00
C108   C     0.37810   0.64020   0.73540   0.01267  Uiso   1.00
C109   C     0.43880   0.67610   0.75600   0.01267  Uiso   1.00
C110   C     0.39090   0.69630   0.79100   0.01267  Uiso   1.00
C111   C     0.24040   0.64880   0.78410   0.01267  Uiso   1.00
C112   C     0.27830   0.62400   0.74960   0.01267  Uiso   1.00
C113   C     0.34620   0.65720   0.12610   0.01267  Uiso   1.00
C114   C     0.28990   0.69610   0.10680   0.01267  Uiso   1.00
C115   C     0.30490   0.68810   0.06670   0.01267  Uiso   1.00
C116   C     0.37300   0.64620   0.06260   0.01267  Uiso   1.00
C117   C     0.41310   0.62690   0.02810   0.01267  Uiso   1.00
C118   C     0.49360   0.58580   0.02560   0.01267  Uiso   1.00
C119   C     0.54400   0.56820   0.99220   0.01267  Uiso   1.00
C120   C     0.61730   0.53230   0.00490   0.01267  Uiso   1.00
C121   C     0.60090   0.52890   0.04570   0.01267  Uiso   1.00
C122   C     0.38140   0.64700   0.98920   0.01267  Uiso   1.00
C123   C     0.31470   0.61940   0.96250   0.01267  Uiso   1.00
C124   C     0.27330   0.64220   0.92790   0.01267  Uiso   1.00
C125   C     0.36340   0.71420   0.94320   0.01267  Uiso   1.00
C126   C     0.40350   0.69700   0.97830   0.01267  Uiso   1.00
C127   C     0.66570   0.51100   0.14380   0.01267  Uiso   1.00
C128   C     0.69580   0.46510   0.15840   0.01267  Uiso   1.00
C129   C     0.60750   0.43610   0.15360   0.01267  Uiso   1.00
C130   C     0.52740   0.46320   0.13730   0.01267  Uiso   1.00
C131   C     0.42190   0.44810   0.12580   0.01267  Uiso   1.00
C132   C     0.34410   0.47610   0.10830   0.01267  Uiso   1.00
C133   C     0.23720   0.46100   0.09580   0.01267  Uiso   1.00
C134   C     0.18760   0.50230   0.08080   0.01267  Uiso   1.00
C135   C     0.26050   0.54080   0.08360   0.01267  Uiso   1.00
C136   C     0.39290   0.39440   0.13330   0.01267  Uiso   1.00
C137   C     0.31460   0.38020   0.16060   0.01267  Uiso   1.00
C138   C     0.29220   0.33310   0.16490   0.01267  Uiso   1.00
C139   C     0.41790   0.30770   0.11920   0.01267  Uiso   1.00
C140   C     0.44700   0.35590   0.11150   0.01267  Uiso   1.00
C141   C     0.83250   0.05170   0.31750   0.01267  Uiso   1.00
C142   C     0.82750   0.05580   0.27620   0.01267  Uiso   1.00
C143   C     0.91560   0.08120   0.26310   0.01267  Uiso   1.00
C144   C     0.98080   0.09080   0.29890   0.01267  Uiso   1.00
C145   C     0.07350   0.11700   0.30180   0.01267  Uiso   1.00
C146   C     0.12540   0.12830   0.33760   0.01267  Uiso   1.00
C147   C     0.21420   0.16220   0.34270   0.01267  Uiso   1.00
C148   C     0.23840   0.16320   0.38240   0.01267  Uiso   1.00
C149   C     0.16450   0.13120   0.40100   0.01267  Uiso   1.00
C150   C     0.12190   0.14020   0.26460   0.01267  Uiso   1.00
C151   C     0.06120   0.17610   0.24400   0.01267  Uiso   1.00
C152   C     0.10910   0.19630   0.20900   0.01267  Uiso   1.00
C153   C     0.25960   0.14880   0.21590   0.01267  Uiso   1.00
C154   C     0.22170   0.12400   0.25040   0.01267  Uiso   1.00
C155   C     0.15380   0.15720   0.87390   0.01267  Uiso   1.00
C156   C     0.21010   0.19610   0.89320   0.01267  Uiso   1.00
C157   C     0.19510   0.18810   0.93330   0.01267  Uiso   1.00
C158   C     0.12700   0.14620   0.93740   0.01267  Uiso   1.00
C159   C     0.08690   0.12690   0.97190   0.01267  Uiso   1.00
C160   C     0.00640   0.08580   0.97440   0.01267  Uiso   1.00
C161   C     0.95600   0.06820   0.00780   0.01267  Uiso   1.00
C162   C     0.88270   0.03230   0.99510   0.01267  Uiso   1.00
C163   C     0.89910   0.02890   0.95430   0.01267  Uiso   1.00
C164   C     0.11860   0.14700   0.01080   0.01267  Uiso   1.00
C165   C     0.18530   0.11940   0.03750   0.01267  Uiso   1.00
C166   C     0.22670   0.14220   0.07210   0.01267  Uiso   1.00
C167   C     0.13660   0.21420   0.05680   0.01267  Uiso   1.00
C168   C     0.09650   0.19700   0.02170   0.01267  Uiso   1.00
N1     N     0.43680   0.51150   0.63070   0.01267  Uiso   1.00
N2     N     0.64260   0.52680   0.60060   0.01267  Uiso   1.00
N3     N     0.66730   0.29560   0.64440   0.01267  Uiso   1.00
N4     N     0.08220   0.07130   0.83210   0.01267  Uiso   1.00
N5     N     0.90310   0.11210   0.87480   0.01267  Uiso   1.00
N6     N     0.79760   0.18300   0.69450   0.01267  Uiso   1.00
N7     N     0.89640   0.12840   0.40020   0.01267  Uiso   1.00
N8     N     0.02420   0.06090   0.44100   0.01267  Uiso   1.00
N9     N     0.79420   0.18860   0.58180   0.01267  Uiso   1.00
N10    N     0.06320   0.01150   0.36930   0.01267  Uiso   1.00
N11    N     0.85740   0.02680   0.39940   0.01267  Uiso   1.00
N12    N     0.83270   0.79560   0.35560   0.01267  Uiso   1.00
N13    N     0.41780   0.57130   0.16790   0.01267  Uiso   1.00
N14    N     0.59690   0.61210   0.12520   0.01267  Uiso   1.00
N15    N     0.70240   0.68300   0.30550   0.01267  Uiso   1.00
N16    N     0.60360   0.62840   0.59980   0.01267  Uiso   1.00
N17    N     0.47580   0.56090   0.55900   0.01267  Uiso   1.00
N18    N     0.70580   0.68860   0.41820   0.01267  Uiso   1.00
N19    N     0.93680   0.01150   0.86930   0.01267  Uiso   1.00
N20    N     0.14260   0.02680   0.89940   0.01267  Uiso   1.00
N21    N     0.16730   0.79560   0.85560   0.01267  Uiso   1.00
N22    N     0.58220   0.57130   0.66790   0.01267  Uiso   1.00
N23    N     0.40310   0.61210   0.62520   0.01267  Uiso   1.00
N24    N     0.29760   0.68300   0.80550   0.01267  Uiso   1.00
N25    N     0.39640   0.62840   0.09980   0.01267  Uiso   1.00
N26    N     0.52420   0.56090   0.05900   0.01267  Uiso   1.00
N27    N     0.29420   0.68860   0.91820   0.01267  Uiso   1.00
N28    N     0.56320   0.51150   0.13070   0.01267  Uiso   1.00
N29    N     0.35740   0.52680   0.10060   0.01267  Uiso   1.00
N30    N     0.33270   0.29560   0.14440   0.01267  Uiso   1.00
N31    N     0.91780   0.07130   0.33210   0.01267  Uiso   1.00
N32    N     0.09690   0.11210   0.37480   0.01267  Uiso   1.00
N33    N     0.20240   0.18300   0.19450   0.01267  Uiso   1.00
N34    N     0.10360   0.12840   0.90020   0.01267  Uiso   1.00
N35    N     0.97580   0.06090   0.94100   0.01267  Uiso   1.00
N36    N     0.20580   0.18860   0.08180   0.01267  Uiso   1.00
Co5    Co    0.97664   0.93142   0.11367   0.01267  Uiso   1.00
Co6    Co    0.52336   0.43142   0.88633   0.01267  Uiso   1.00
Co7    Co    0.47664   0.43142   0.38633   0.01267  Uiso   1.00
Co8    Co    0.02336   0.93142   0.61367   0.01267  Uiso   1.00
Ag5    Ag    0.76080   0.27881   0.14001   0.01267  Uiso   1.00
Ag6    Ag    0.73920   0.77881   0.85999   0.01267  Uiso   1.00
Ag7    Ag    0.26080   0.77881   0.35999   0.01267  Uiso   1.00
Ag8    Ag    0.23920   0.27881   0.64001   0.01267  Uiso   1.00
H121   H     0.21240   0.96090   0.14310   0.01267  Uiso   1.00
H122   H     0.26390   0.04410   0.16950   0.01267  Uiso   1.00
H123   H     0.10280   0.09810   0.16060   0.01267  Uiso   1.00
H124   H     0.70710   0.07140   0.09760   0.01267  Uiso   1.00
H125   H     0.61590   0.99580   0.07050   0.01267  Uiso   1.00
H126   H     0.74550   0.92640   0.07470   0.01267  Uiso   1.00
H127   H     0.77760   0.09560   0.17620   0.01267  Uiso   1.00
H128   H     0.74080   0.17500   0.18510   0.01267  Uiso   1.00
H129   H     0.95760   0.21830   0.10680   0.01267  Uiso   1.00
H130   H     0.00140   0.13650   0.09230   0.01267  Uiso   1.00
H131   H     0.27820   0.46410   0.33320   0.01267  Uiso   1.00
H132   H     0.27140   0.45720   0.25970   0.01267  Uiso   1.00
H133   H     0.43160   0.40920   0.23640   0.01267  Uiso   1.00
H134   H     0.74940   0.31940   0.32210   0.01267  Uiso   1.00
H135   H     0.79420   0.31820   0.39500   0.01267  Uiso   1.00
H136   H     0.66330   0.37580   0.42890   0.01267  Uiso   1.00
H137   H     0.49160   0.31360   0.25310   0.01267  Uiso   1.00
H138   H     0.57010   0.27850   0.19510   0.01267  Uiso   1.00
H139   H     0.83070   0.35890   0.20680   0.01267  Uiso   1.00
H140   H     0.76150   0.40190   0.26300   0.01267  Uiso   1.00
H141   H     0.65230   0.34770   0.84580   0.01267  Uiso   1.00
H142   H     0.74980   0.27770   0.88100   0.01267  Uiso   1.00
H143   H     0.72500   0.29280   0.95450   0.01267  Uiso   1.00
H144   H     0.46850   0.42150   0.03470   0.01267  Uiso   1.00
H145   H     0.33250   0.48590   0.01100   0.01267  Uiso   1.00
H146   H     0.36070   0.49340   0.93730   0.01267  Uiso   1.00
H147   H     0.70180   0.41440   0.03200   0.01267  Uiso   1.00
H148   H     0.77200   0.37670   0.08930   0.01267  Uiso   1.00
H149   H     0.61540   0.25330   0.06480   0.01267  Uiso   1.00
H150   H     0.55460   0.28210   0.00480   0.01267  Uiso   1.00
H151   H     0.28760   0.46090   0.85690   0.01267  Uiso   1.00
H152   H     0.23610   0.54410   0.83050   0.01267  Uiso   1.00
H153   H     0.39720   0.59810   0.83940   0.01267  Uiso   1.00
H154   H     0.79290   0.57140   0.90240   0.01267  Uiso   1.00
H155   H     0.88410   0.49580   0.92950   0.01267  Uiso   1.00
H156   H     0.75450   0.42640   0.92530   0.01267  Uiso   1.00
H157   H     0.72240   0.59560   0.82380   0.01267  Uiso   1.00
H158   H     0.75920   0.67500   0.81490   0.01267  Uiso   1.00
H159   H     0.54240   0.71830   0.89320   0.01267  Uiso   1.00
H160   H     0.49860   0.63650   0.90770   0.01267  Uiso   1.00
H161   H     0.22180   0.96410   0.66680   0.01267  Uiso   1.00
H162   H     0.22860   0.95720   0.74030   0.01267  Uiso   1.00
H163   H     0.06840   0.90920   0.76360   0.01267  Uiso   1.00
H164   H     0.75060   0.81940   0.67790   0.01267  Uiso   1.00
H165   H     0.70580   0.81820   0.60500   0.01267  Uiso   1.00
H166   H     0.83670   0.87580   0.57110   0.01267  Uiso   1.00
H167   H     0.00840   0.81360   0.74690   0.01267  Uiso   1.00
H168   H     0.92990   0.77850   0.80490   0.01267  Uiso   1.00
H169   H     0.66930   0.85890   0.79320   0.01267  Uiso   1.00
H170   H     0.73850   0.90190   0.73700   0.01267  Uiso   1.00
H171   H     0.84770   0.84770   0.15420   0.01267  Uiso   1.00
H172   H     0.75020   0.77770   0.11900   0.01267  Uiso   1.00
H173   H     0.77500   0.79280   0.04550   0.01267  Uiso   1.00
H174   H     0.03150   0.92150   0.96530   0.01267  Uiso   1.00
H175   H     0.16750   0.98590   0.98900   0.01267  Uiso   1.00
H176   H     0.13930   0.99340   0.06270   0.01267  Uiso   1.00
H177   H     0.79820   0.91440   0.96800   0.01267  Uiso   1.00
H178   H     0.72800   0.87670   0.91070   0.01267  Uiso   1.00
H179   H     0.88460   0.75330   0.93520   0.01267  Uiso   1.00
H180   H     0.94540   0.78210   0.99520   0.01267  Uiso   1.00
H181   H     0.71240   0.46090   0.35690   0.01267  Uiso   1.00
H182   H     0.76390   0.54410   0.33050   0.01267  Uiso   1.00
H183   H     0.60280   0.59810   0.33940   0.01267  Uiso   1.00
H184   H     0.20710   0.57140   0.40240   0.01267  Uiso   1.00
H185   H     0.11590   0.49580   0.42950   0.01267  Uiso   1.00
H186   H     0.24550   0.42640   0.42530   0.01267  Uiso   1.00
H187   H     0.27760   0.59560   0.32380   0.01267  Uiso   1.00
H188   H     0.24080   0.67500   0.31490   0.01267  Uiso   1.00
H189   H     0.45760   0.71830   0.39320   0.01267  Uiso   1.00
H190   H     0.50140   0.63650   0.40770   0.01267  Uiso   1.00
H191   H     0.77820   0.96410   0.16680   0.01267  Uiso   1.00
H192   H     0.77140   0.95720   0.24030   0.01267  Uiso   1.00
H193   H     0.93160   0.90920   0.26360   0.01267  Uiso   1.00
H194   H     0.24940   0.81940   0.17790   0.01267  Uiso   1.00
H195   H     0.29420   0.81820   0.10500   0.01267  Uiso   1.00
H196   H     0.16330   0.87580   0.07110   0.01267  Uiso   1.00
H197   H     0.99160   0.81360   0.24690   0.01267  Uiso   1.00
H198   H     0.07010   0.77850   0.30490   0.01267  Uiso   1.00
H199   H     0.33070   0.85890   0.29320   0.01267  Uiso   1.00
H200   H     0.26150   0.90190   0.23700   0.01267  Uiso   1.00
H201   H     0.15230   0.84770   0.65420   0.01267  Uiso   1.00
H202   H     0.24980   0.77770   0.61900   0.01267  Uiso   1.00
H203   H     0.22500   0.79280   0.54550   0.01267  Uiso   1.00
H204   H     0.96850   0.92150   0.46530   0.01267  Uiso   1.00
H205   H     0.83250   0.98590   0.48900   0.01267  Uiso   1.00
H206   H     0.86070   0.99340   0.56270   0.01267  Uiso   1.00
H207   H     0.20180   0.91440   0.46800   0.01267  Uiso   1.00
H208   H     0.27200   0.87670   0.41070   0.01267  Uiso   1.00
H209   H     0.11540   0.75330   0.43520   0.01267  Uiso   1.00
H210   H     0.05460   0.78210   0.49520   0.01267  Uiso   1.00
H211   H     0.78760   0.96090   0.64310   0.01267  Uiso   1.00
H212   H     0.73610   0.04410   0.66950   0.01267  Uiso   1.00
H213   H     0.89720   0.09810   0.66060   0.01267  Uiso   1.00
H214   H     0.29290   0.07140   0.59760   0.01267  Uiso   1.00
H215   H     0.38410   0.99580   0.57050   0.01267  Uiso   1.00
H216   H     0.25450   0.92640   0.57470   0.01267  Uiso   1.00
H217   H     0.22240   0.09560   0.67620   0.01267  Uiso   1.00
H218   H     0.25920   0.17500   0.68510   0.01267  Uiso   1.00
H219   H     0.04240   0.21830   0.60680   0.01267  Uiso   1.00
H220   H     0.99860   0.13650   0.59230   0.01267  Uiso   1.00
H221   H     0.72180   0.46410   0.83320   0.01267  Uiso   1.00
H222   H     0.72860   0.45720   0.75970   0.01267  Uiso   1.00
H223   H     0.56840   0.40920   0.73640   0.01267  Uiso   1.00
H224   H     0.25060   0.31940   0.82210   0.01267  Uiso   1.00
H225   H     0.20580   0.31820   0.89500   0.01267  Uiso   1.00
H226   H     0.33670   0.37580   0.92890   0.01267  Uiso   1.00
H227   H     0.50840   0.31360   0.75310   0.01267  Uiso   1.00
H228   H     0.42990   0.27850   0.69510   0.01267  Uiso   1.00
H229   H     0.16930   0.35890   0.70680   0.01267  Uiso   1.00
H230   H     0.23850   0.40190   0.76300   0.01267  Uiso   1.00
H231   H     0.34770   0.34770   0.34580   0.01267  Uiso   1.00
H232   H     0.25020   0.27770   0.38100   0.01267  Uiso   1.00
H233   H     0.27500   0.29280   0.45450   0.01267  Uiso   1.00
H234   H     0.53150   0.42150   0.53470   0.01267  Uiso   1.00
H235   H     0.66750   0.48590   0.51100   0.01267  Uiso   1.00
H236   H     0.63930   0.49340   0.43730   0.01267  Uiso   1.00
H237   H     0.29820   0.41440   0.53200   0.01267  Uiso   1.00
H238   H     0.22800   0.37670   0.58930   0.01267  Uiso   1.00
H239   H     0.38460   0.25330   0.56480   0.01267  Uiso   1.00
H240   H     0.44540   0.28210   0.50480   0.01267  Uiso   1.00
C169   C     0.16570   0.98900   0.14380   0.01267  Uiso   1.00
C170   C     0.19580   0.03490   0.15840   0.01267  Uiso   1.00
C171   C     0.10750   0.06390   0.15360   0.01267  Uiso   1.00
C172   C     0.02740   0.03680   0.13730   0.01267  Uiso   1.00
C173   C     0.92190   0.05190   0.12580   0.01267  Uiso   1.00
C174   C     0.84410   0.02390   0.10830   0.01267  Uiso   1.00
C175   C     0.73720   0.03900   0.09580   0.01267  Uiso   1.00
C176   C     0.68760   0.99770   0.08080   0.01267  Uiso   1.00
C177   C     0.76050   0.95920   0.08360   0.01267  Uiso   1.00
C178   C     0.89290   0.10560   0.13330   0.01267  Uiso   1.00
C179   C     0.81460   0.11980   0.16060   0.01267  Uiso   1.00
C180   C     0.79220   0.16690   0.16490   0.01267  Uiso   1.00
C181   C     0.91790   0.19230   0.11920   0.01267  Uiso   1.00
C182   C     0.94700   0.14410   0.11150   0.01267  Uiso   1.00
C183   C     0.33250   0.44830   0.31750   0.01267  Uiso   1.00
C184   C     0.32750   0.44420   0.27620   0.01267  Uiso   1.00
C185   C     0.41560   0.41880   0.26310   0.01267  Uiso   1.00
C186   C     0.48080   0.40920   0.29890   0.01267  Uiso   1.00
C187   C     0.57350   0.38300   0.30180   0.01267  Uiso   1.00
C188   C     0.62540   0.37170   0.33760   0.01267  Uiso   1.00
C189   C     0.71420   0.33780   0.34270   0.01267  Uiso   1.00
C190   C     0.73840   0.33680   0.38240   0.01267  Uiso   1.00
C191   C     0.66450   0.36880   0.40100   0.01267  Uiso   1.00
C192   C     0.62190   0.35980   0.26460   0.01267  Uiso   1.00
C193   C     0.56120   0.32390   0.24400   0.01267  Uiso   1.00
C194   C     0.60910   0.30370   0.20900   0.01267  Uiso   1.00
C195   C     0.75960   0.35120   0.21590   0.01267  Uiso   1.00
C196   C     0.72170   0.37600   0.25040   0.01267  Uiso   1.00
C197   C     0.65380   0.34280   0.87390   0.01267  Uiso   1.00
C198   C     0.71010   0.30390   0.89320   0.01267  Uiso   1.00
C199   C     0.69510   0.31190   0.93330   0.01267  Uiso   1.00
C200   C     0.62700   0.35380   0.93740   0.01267  Uiso   1.00
C201   C     0.58690   0.37310   0.97190   0.01267  Uiso   1.00
C202   C     0.50640   0.41420   0.97440   0.01267  Uiso   1.00
C203   C     0.45600   0.43180   0.00780   0.01267  Uiso   1.00
C204   C     0.38270   0.46770   0.99510   0.01267  Uiso   1.00
C205   C     0.39910   0.47110   0.95430   0.01267  Uiso   1.00
C206   C     0.61860   0.35300   0.01080   0.01267  Uiso   1.00
C207   C     0.68530   0.38060   0.03750   0.01267  Uiso   1.00
C208   C     0.72670   0.35780   0.07210   0.01267  Uiso   1.00
C209   C     0.63660   0.28580   0.05680   0.01267  Uiso   1.00
C210   C     0.59650   0.30300   0.02170   0.01267  Uiso   1.00
C211   C     0.33430   0.48900   0.85620   0.01267  Uiso   1.00
C212   C     0.30420   0.53490   0.84160   0.01267  Uiso   1.00
C213   C     0.39250   0.56390   0.84640   0.01267  Uiso   1.00
C214   C     0.47260   0.53680   0.86270   0.01267  Uiso   1.00
C215   C     0.57810   0.55190   0.87420   0.01267  Uiso   1.00
C216   C     0.65590   0.52390   0.89170   0.01267  Uiso   1.00
C217   C     0.76280   0.53900   0.90420   0.01267  Uiso   1.00
C218   C     0.81240   0.49770   0.91920   0.01267  Uiso   1.00
C219   C     0.73950   0.45920   0.91640   0.01267  Uiso   1.00
C220   C     0.60710   0.60560   0.86670   0.01267  Uiso   1.00
C221   C     0.68540   0.61980   0.83940   0.01267  Uiso   1.00
C222   C     0.70780   0.66690   0.83510   0.01267  Uiso   1.00
C223   C     0.58210   0.69230   0.88080   0.01267  Uiso   1.00
C224   C     0.55300   0.64410   0.88850   0.01267  Uiso   1.00
C225   C     0.16750   0.94830   0.68250   0.01267  Uiso   1.00
C226   C     0.17250   0.94420   0.72380   0.01267  Uiso   1.00
C227   C     0.08440   0.91880   0.73690   0.01267  Uiso   1.00
C228   C     0.01920   0.90920   0.70110   0.01267  Uiso   1.00
C229   C     0.92650   0.88300   0.69820   0.01267  Uiso   1.00
C230   C     0.87460   0.87170   0.66240   0.01267  Uiso   1.00
C231   C     0.78580   0.83780   0.65730   0.01267  Uiso   1.00
C232   C     0.76160   0.83680   0.61760   0.01267  Uiso   1.00
C233   C     0.83550   0.86880   0.59900   0.01267  Uiso   1.00
C234   C     0.87810   0.85980   0.73540   0.01267  Uiso   1.00
C235   C     0.93880   0.82390   0.75600   0.01267  Uiso   1.00
C236   C     0.89090   0.80370   0.79100   0.01267  Uiso   1.00
C237   C     0.74040   0.85120   0.78410   0.01267  Uiso   1.00
C238   C     0.77830   0.87600   0.74960   0.01267  Uiso   1.00
C239   C     0.84620   0.84280   0.12610   0.01267  Uiso   1.00
C240   C     0.78990   0.80390   0.10680   0.01267  Uiso   1.00
C241   C     0.80490   0.81190   0.06670   0.01267  Uiso   1.00
C242   C     0.87300   0.85380   0.06260   0.01267  Uiso   1.00
C243   C     0.91310   0.87310   0.02810   0.01267  Uiso   1.00
C244   C     0.99360   0.91420   0.02560   0.01267  Uiso   1.00
C245   C     0.04400   0.93180   0.99220   0.01267  Uiso   1.00
C246   C     0.11730   0.96770   0.00490   0.01267  Uiso   1.00
C247   C     0.10090   0.97110   0.04570   0.01267  Uiso   1.00
C248   C     0.88140   0.85300   0.98920   0.01267  Uiso   1.00
C249   C     0.81470   0.88060   0.96250   0.01267  Uiso   1.00
C250   C     0.77330   0.85780   0.92790   0.01267  Uiso   1.00
C251   C     0.86340   0.78580   0.94320   0.01267  Uiso   1.00
C252   C     0.90350   0.80300   0.97830   0.01267  Uiso   1.00
C253   C     0.66570   0.48900   0.35620   0.01267  Uiso   1.00
C254   C     0.69580   0.53490   0.34160   0.01267  Uiso   1.00
C255   C     0.60750   0.56390   0.34640   0.01267  Uiso   1.00
C256   C     0.52740   0.53680   0.36270   0.01267  Uiso   1.00
C257   C     0.42190   0.55190   0.37420   0.01267  Uiso   1.00
C258   C     0.34410   0.52390   0.39170   0.01267  Uiso   1.00
C259   C     0.23720   0.53900   0.40420   0.01267  Uiso   1.00
C260   C     0.18760   0.49770   0.41920   0.01267  Uiso   1.00
C261   C     0.26050   0.45920   0.41640   0.01267  Uiso   1.00
C262   C     0.39290   0.60560   0.36670   0.01267  Uiso   1.00
C263   C     0.31460   0.61980   0.33940   0.01267  Uiso   1.00
C264   C     0.29220   0.66690   0.33510   0.01267  Uiso   1.00
C265   C     0.41790   0.69230   0.38080   0.01267  Uiso   1.00
C266   C     0.44700   0.64410   0.38850   0.01267  Uiso   1.00
C267   C     0.83250   0.94830   0.18250   0.01267  Uiso   1.00
C268   C     0.82750   0.94420   0.22380   0.01267  Uiso   1.00
C269   C     0.91560   0.91880   0.23690   0.01267  Uiso   1.00
C270   C     0.98080   0.90920   0.20110   0.01267  Uiso   1.00
C271   C     0.07350   0.88300   0.19820   0.01267  Uiso   1.00
C272   C     0.12540   0.87170   0.16240   0.01267  Uiso   1.00
C273   C     0.21420   0.83780   0.15730   0.01267  Uiso   1.00
C274   C     0.23840   0.83680   0.11760   0.01267  Uiso   1.00
C275   C     0.16450   0.86880   0.09900   0.01267  Uiso   1.00
C276   C     0.12190   0.85980   0.23540   0.01267  Uiso   1.00
C277   C     0.06120   0.82390   0.25600   0.01267  Uiso   1.00
C278   C     0.10910   0.80370   0.29100   0.01267  Uiso   1.00
C279   C     0.25960   0.85120   0.28410   0.01267  Uiso   1.00
C280   C     0.22170   0.87600   0.24960   0.01267  Uiso   1.00
C281   C     0.15380   0.84280   0.62610   0.01267  Uiso   1.00
C282   C     0.21010   0.80390   0.60680   0.01267  Uiso   1.00
C283   C     0.19510   0.81190   0.56670   0.01267  Uiso   1.00
C284   C     0.12700   0.85380   0.56260   0.01267  Uiso   1.00
C285   C     0.08690   0.87310   0.52810   0.01267  Uiso   1.00
C286   C     0.00640   0.91420   0.52560   0.01267  Uiso   1.00
C287   C     0.95600   0.93180   0.49220   0.01267  Uiso   1.00
C288   C     0.88270   0.96770   0.50490   0.01267  Uiso   1.00
C289   C     0.89910   0.97110   0.54570   0.01267  Uiso   1.00
C290   C     0.11860   0.85300   0.48920   0.01267  Uiso   1.00
C291   C     0.18530   0.88060   0.46250   0.01267  Uiso   1.00
C292   C     0.22670   0.85780   0.42790   0.01267  Uiso   1.00
C293   C     0.13660   0.78580   0.44320   0.01267  Uiso   1.00
C294   C     0.09650   0.80300   0.47830   0.01267  Uiso   1.00
C295   C     0.83430   0.98900   0.64380   0.01267  Uiso   1.00
C296   C     0.80420   0.03490   0.65840   0.01267  Uiso   1.00
C297   C     0.89250   0.06390   0.65360   0.01267  Uiso   1.00
C298   C     0.97260   0.03680   0.63730   0.01267  Uiso   1.00
C299   C     0.07810   0.05190   0.62580   0.01267  Uiso   1.00
C300   C     0.15590   0.02390   0.60830   0.01267  Uiso   1.00
C301   C     0.26280   0.03900   0.59580   0.01267  Uiso   1.00
C302   C     0.31240   0.99770   0.58080   0.01267  Uiso   1.00
C303   C     0.23950   0.95920   0.58360   0.01267  Uiso   1.00
C304   C     0.10710   0.10560   0.63330   0.01267  Uiso   1.00
C305   C     0.18540   0.11980   0.66060   0.01267  Uiso   1.00
C306   C     0.20780   0.16690   0.66490   0.01267  Uiso   1.00
C307   C     0.08210   0.19230   0.61920   0.01267  Uiso   1.00
C308   C     0.05300   0.14410   0.61150   0.01267  Uiso   1.00
C309   C     0.66750   0.44830   0.81750   0.01267  Uiso   1.00
C310   C     0.67250   0.44420   0.77620   0.01267  Uiso   1.00
C311   C     0.58440   0.41880   0.76310   0.01267  Uiso   1.00
C312   C     0.51920   0.40920   0.79890   0.01267  Uiso   1.00
C313   C     0.42650   0.38300   0.80180   0.01267  Uiso   1.00
C314   C     0.37460   0.37170   0.83760   0.01267  Uiso   1.00
C315   C     0.28580   0.33780   0.84270   0.01267  Uiso   1.00
C316   C     0.26160   0.33680   0.88240   0.01267  Uiso   1.00
C317   C     0.33550   0.36880   0.90100   0.01267  Uiso   1.00
C318   C     0.37810   0.35980   0.76460   0.01267  Uiso   1.00
C319   C     0.43880   0.32390   0.74400   0.01267  Uiso   1.00
C320   C     0.39090   0.30370   0.70900   0.01267  Uiso   1.00
C321   C     0.24040   0.35120   0.71590   0.01267  Uiso   1.00
C322   C     0.27830   0.37600   0.75040   0.01267  Uiso   1.00
C323   C     0.34620   0.34280   0.37390   0.01267  Uiso   1.00
C324   C     0.28990   0.30390   0.39320   0.01267  Uiso   1.00
C325   C     0.30490   0.31190   0.43330   0.01267  Uiso   1.00
C326   C     0.37300   0.35380   0.43740   0.01267  Uiso   1.00
C327   C     0.41310   0.37310   0.47190   0.01267  Uiso   1.00
C328   C     0.49360   0.41420   0.47440   0.01267  Uiso   1.00
C329   C     0.54400   0.43180   0.50780   0.01267  Uiso   1.00
C330   C     0.61730   0.46770   0.49510   0.01267  Uiso   1.00
C331   C     0.60090   0.47110   0.45430   0.01267  Uiso   1.00
C332   C     0.38140   0.35300   0.51080   0.01267  Uiso   1.00
C333   C     0.31470   0.38060   0.53750   0.01267  Uiso   1.00
C334   C     0.27330   0.35780   0.57210   0.01267  Uiso   1.00
C335   C     0.36340   0.28580   0.55680   0.01267  Uiso   1.00
C336   C     0.40350   0.30300   0.52170   0.01267  Uiso   1.00
N37    N     0.06320   0.98850   0.13070   0.01267  Uiso   1.00
N38    N     0.85740   0.97320   0.10060   0.01267  Uiso   1.00
N39    N     0.83270   0.20440   0.14440   0.01267  Uiso   1.00
N40    N     0.41780   0.42870   0.33210   0.01267  Uiso   1.00
N41    N     0.59690   0.38790   0.37480   0.01267  Uiso   1.00
N42    N     0.70240   0.31700   0.19450   0.01267  Uiso   1.00
N43    N     0.60360   0.37160   0.90020   0.01267  Uiso   1.00
N44    N     0.47580   0.43910   0.94100   0.01267  Uiso   1.00
N45    N     0.70580   0.31140   0.08180   0.01267  Uiso   1.00
N46    N     0.43680   0.48850   0.86930   0.01267  Uiso   1.00
N47    N     0.64260   0.47320   0.89940   0.01267  Uiso   1.00
N48    N     0.66730   0.70440   0.85560   0.01267  Uiso   1.00
N49    N     0.08220   0.92870   0.66790   0.01267  Uiso   1.00
N50    N     0.90310   0.88790   0.62520   0.01267  Uiso   1.00
N51    N     0.79760   0.81700   0.80550   0.01267  Uiso   1.00
N52    N     0.89640   0.87160   0.09980   0.01267  Uiso   1.00
N53    N     0.02420   0.93910   0.05900   0.01267  Uiso   1.00
N54    N     0.79420   0.81140   0.91820   0.01267  Uiso   1.00
N55    N     0.56320   0.48850   0.36930   0.01267  Uiso   1.00
N56    N     0.35740   0.47320   0.39940   0.01267  Uiso   1.00
N57    N     0.33270   0.70440   0.35560   0.01267  Uiso   1.00
N58    N     0.91780   0.92870   0.16790   0.01267  Uiso   1.00
N59    N     0.09690   0.88790   0.12520   0.01267  Uiso   1.00
N60    N     0.20240   0.81700   0.30550   0.01267  Uiso   1.00
N61    N     0.10360   0.87160   0.59980   0.01267  Uiso   1.00
N62    N     0.97580   0.93910   0.55900   0.01267  Uiso   1.00
N63    N     0.20580   0.81140   0.41820   0.01267  Uiso   1.00
N64    N     0.93680   0.98850   0.63070   0.01267  Uiso   1.00
N65    N     0.14260   0.97320   0.60060   0.01267  Uiso   1.00
N66    N     0.16730   0.20440   0.64440   0.01267  Uiso   1.00
N67    N     0.58220   0.42870   0.83210   0.01267  Uiso   1.00
N68    N     0.40310   0.38790   0.87480   0.01267  Uiso   1.00
N69    N     0.29760   0.31700   0.69450   0.01267  Uiso   1.00
N70    N     0.39640   0.37160   0.40020   0.01267  Uiso   1.00
N71    N     0.52420   0.43910   0.44100   0.01267  Uiso   1.00
N72    N     0.29420   0.31140   0.58180   0.01267  Uiso   1.00
B1     B     0.48600   0.16610   0.63020   0.01267  Uiso   1.00
F1     F     0.44690   0.21020   0.64720   0.01267  Uiso   1.00
F2     F     0.58460   0.15200   0.63170   0.01267  Uiso   1.00
F3     F     0.40050   0.15360   0.60640   0.01267  Uiso   1.00
F4     F     0.44980   0.13490   0.66910   0.01267  Uiso   1.00
B2     B     0.01400   0.33390   0.13020   0.01267  Uiso   1.00
F5     F     0.05310   0.28980   0.14720   0.01267  Uiso   1.00
F6     F     0.91540   0.34800   0.13170   0.01267  Uiso   1.00
F7     F     0.09950   0.34640   0.10640   0.01267  Uiso   1.00
F8     F     0.05020   0.36510   0.16910   0.01267  Uiso   1.00
B3     B     0.48600   0.83390   0.86980   0.01267  Uiso   1.00
F9     F     0.44690   0.78980   0.85280   0.01267  Uiso   1.00
F10    F     0.58460   0.84800   0.86830   0.01267  Uiso   1.00
F11    F     0.40050   0.84640   0.89360   0.01267  Uiso   1.00
F12    F     0.44980   0.86510   0.83090   0.01267  Uiso   1.00
B4     B     0.01400   0.66610   0.36980   0.01267  Uiso   1.00
F13    F     0.05310   0.71020   0.35280   0.01267  Uiso   1.00
F14    F     0.91540   0.65200   0.36830   0.01267  Uiso   1.00
F15    F     0.09950   0.65360   0.39360   0.01267  Uiso   1.00
F16    F     0.05020   0.63490   0.33090   0.01267  Uiso   1.00
B5     B     0.51400   0.83390   0.36980   0.01267  Uiso   1.00
F17    F     0.55310   0.78980   0.35280   0.01267  Uiso   1.00
F18    F     0.41540   0.84800   0.36830   0.01267  Uiso   1.00
F19    F     0.59950   0.84640   0.39360   0.01267  Uiso   1.00
F20    F     0.55020   0.86510   0.33090   0.01267  Uiso   1.00
B6     B     0.98600   0.66610   0.86980   0.01267  Uiso   1.00
F21    F     0.94690   0.71020   0.85280   0.01267  Uiso   1.00
F22    F     0.08460   0.65200   0.86830   0.01267  Uiso   1.00
F23    F     0.90050   0.65360   0.89360   0.01267  Uiso   1.00
F24    F     0.94980   0.63490   0.83090   0.01267  Uiso   1.00
B7     B     0.51400   0.16610   0.13020   0.01267  Uiso   1.00
F25    F     0.55310   0.21020   0.14720   0.01267  Uiso   1.00
F26    F     0.41540   0.15200   0.13170   0.01267  Uiso   1.00
F27    F     0.59950   0.15360   0.10640   0.01267  Uiso   1.00
F28    F     0.55020   0.13490   0.16910   0.01267  Uiso   1.00
B8     B     0.98600   0.33390   0.63020   0.01267  Uiso   1.00
F29    F     0.94690   0.28980   0.64720   0.01267  Uiso   1.00
F30    F     0.08460   0.34800   0.63170   0.01267  Uiso   1.00
F31    F     0.90050   0.34640   0.60640   0.01267  Uiso   1.00
F32    F     0.94980   0.36510   0.66910   0.01267  Uiso   1.00
