data_cg5012617_si_002_freeONLY
_audit_creation_date              2015-08-19
_audit_creation_method            'Materials Studio'
_symmetry_space_group_name_H-M    'P1'
_symmetry_Int_Tables_number       1
_symmetry_cell_setting            triclinic
loop_
_symmetry_equiv_pos_as_xyz
  x,y,z
_cell_length_a                    11.2993
_cell_length_b                    32.5574
_cell_length_c                    32.5575
_cell_angle_alpha                 88.2745
_cell_angle_beta                  80.0070
_cell_angle_gamma                 80.0073
loop_
_atom_site_label
_atom_site_type_symbol
_atom_site_fract_x
_atom_site_fract_y
_atom_site_fract_z
_atom_site_U_iso_or_equiv
_atom_site_adp_type
_atom_site_occupancy
Nd1    Nd    0.29032   0.66929   0.03175   0.01267  Uiso   1.00
Nd2    Nd    0.70968   0.33071   0.96825   0.01267  Uiso   1.00
Nd3    Nd    0.17409   0.02763   0.82979   0.01267  Uiso   1.00
Nd4    Nd    0.67793   0.03175   0.83071   0.01267  Uiso   1.00
Nd5    Nd    0.79828   0.67021   0.02763   0.01267  Uiso   1.00
Nd6    Nd    0.50864   0.16929   0.53175   0.01267  Uiso   1.00
Nd7    Nd    0.95961   0.53175   0.33071   0.01267  Uiso   1.00
Nd8    Nd    0.49136   0.83071   0.46825   0.01267  Uiso   1.00
Nd9    Nd    0.20172   0.32979   0.97237   0.01267  Uiso   1.00
Nd10   Nd    0.04039   0.46825   0.66929   0.01267  Uiso   1.00
Nd11   Nd    0.32207   0.96825   0.16929   0.01267  Uiso   1.00
Nd12   Nd    0.46849   0.52763   0.32979   0.01267  Uiso   1.00
Nd13   Nd    0.53151   0.47237   0.67021   0.01267  Uiso   1.00
Nd14   Nd    0.82591   0.97237   0.17021   0.01267  Uiso   1.00
Nd15   Nd    0.00388   0.17021   0.52763   0.01267  Uiso   1.00
Nd16   Nd    0.99612   0.82979   0.47237   0.01267  Uiso   1.00
Cu1    Cu    0.08422   0.46273   0.13039   0.01267  Uiso   1.00
Cu2    Cu    0.54694   0.63040   0.53727   0.01267  Uiso   1.00
Cu3    Cu    0.45306   0.36960   0.46273   0.01267  Uiso   1.00
Cu4    Cu    0.82266   0.96273   0.63039   0.01267  Uiso   1.00
Cu5    Cu    0.78538   0.13040   0.03727   0.01267  Uiso   1.00
Cu6    Cu    0.91578   0.53727   0.86961   0.01267  Uiso   1.00
Cu7    Cu    0.17734   0.03727   0.36961   0.01267  Uiso   1.00
Cu8    Cu    0.21462   0.86960   0.96273   0.01267  Uiso   1.00
H1     H     0.34410   0.51840   0.62760   0.01267  Uiso   1.00
H2     H     0.76340   0.58570   0.81210   0.01267  Uiso   1.00
H3     H     0.36680   0.22010   0.47370   0.01267  Uiso   1.00
H4     H     0.79340   0.71140   0.87680   0.01267  Uiso   1.00
H5     H     0.33490   0.08310   0.85370   0.01267  Uiso   1.00
H6     H     0.19830   0.05390   0.17550   0.01267  Uiso   1.00
H7     H     0.57550   0.18790   0.08570   0.01267  Uiso   1.00
H8     H     0.38460   0.45340   0.78620   0.01267  Uiso   1.00
H9     H     0.83190   0.87570   0.78310   0.01267  Uiso   1.00
H10    H     0.57510   0.70610   0.47810   0.01267  Uiso   1.00
H11    H     0.75220   0.47430   0.46330   0.01267  Uiso   1.00
H12    H     0.10730   0.70700   0.09980   0.01267  Uiso   1.00
H13    H     0.62620   0.17550   0.44610   0.01267  Uiso   1.00
H14    H     0.80170   0.94610   0.82450   0.01267  Uiso   1.00
H15    H     0.00600   0.31980   0.14460   0.01267  Uiso   1.00
H16    H     0.15950   0.47370   0.27990   0.01267  Uiso   1.00
H17    H     0.00990   0.01840   0.12760   0.01267  Uiso   1.00
H18    H     0.10100   0.10620   0.00400   0.01267  Uiso   1.00
H19    H     0.70760   0.28310   0.12430   0.01267  Uiso   1.00
H20    H     0.82370   0.27730   0.64230   0.01267  Uiso   1.00
H21    H     0.72970   0.42560   0.60800   0.01267  Uiso   1.00
H22    H     0.42490   0.29390   0.52190   0.01267  Uiso   1.00
H23    H     0.44890   0.01650   0.06070   0.01267  Uiso   1.00
H24    H     0.16810   0.12430   0.21690   0.01267  Uiso   1.00
H25    H     0.94100   0.61830   0.95930   0.01267  Uiso   1.00
H26    H     0.61990   0.33700   0.05700   0.01267  Uiso   1.00
H27    H     0.31580   0.86290   0.13590   0.01267  Uiso   1.00
H28    H     0.69360   0.18170   0.57970   0.01267  Uiso   1.00
H29    H     0.95690   0.55700   0.66300   0.01267  Uiso   1.00
H30    H     0.78450   0.46330   0.02570   0.01267  Uiso   1.00
H31    H     0.09060   0.86190   0.89030   0.01267  Uiso   1.00
H32    H     0.26330   0.07440   0.89200   0.01267  Uiso   1.00
H33    H     0.24780   0.52570   0.53670   0.01267  Uiso   1.00
H34    H     0.13750   0.87240   0.51840   0.01267  Uiso   1.00
H35    H     0.66120   0.91430   0.68790   0.01267  Uiso   1.00
H36    H     0.62950   0.53940   0.14260   0.01267  Uiso   1.00
H37    H     0.37500   0.16080   0.86640   0.01267  Uiso   1.00
H38    H     0.74070   0.20610   0.97810   0.01267  Uiso   1.00
H39    H     0.65590   0.48160   0.37240   0.01267  Uiso   1.00
H40    H     0.54830   0.13590   0.63710   0.01267  Uiso   1.00
H41    H     0.17070   0.78110   0.08970   0.01267  Uiso   1.00
H42    H     0.52030   0.99820   0.62040   0.01267  Uiso   1.00
H43    H     0.23660   0.41430   0.18790   0.01267  Uiso   1.00
H44    H     0.50960   0.93930   0.51650   0.01267  Uiso   1.00
H45    H     0.26040   0.91030   0.28110   0.01267  Uiso   1.00
H46    H     0.42330   0.25500   0.37240   0.01267  Uiso   1.00
H47    H     0.81140   0.85370   0.41690   0.01267  Uiso   1.00
H48    H     0.11870   0.03090   0.52670   0.01267  Uiso   1.00
H49    H     0.55930   0.45930   0.38170   0.01267  Uiso   1.00
H50    H     0.61500   0.21690   0.37570   0.01267  Uiso   1.00
H51    H     0.53400   0.64230   0.22270   0.01267  Uiso   1.00
H52    H     0.29120   0.22820   0.51520   0.01267  Uiso   1.00
H53    H     0.64540   0.47330   0.53090   0.01267  Uiso   1.00
H54    H     0.08120   0.06230   0.46450   0.01267  Uiso   1.00
H55    H     0.78130   0.75630   0.20870   0.01267  Uiso   1.00
H56    H     0.01000   0.20870   0.74370   0.01267  Uiso   1.00
H57    H     0.57060   0.00680   0.43640   0.01267  Uiso   1.00
H58    H     0.75670   0.77730   0.14230   0.01267  Uiso   1.00
H59    H     0.16200   0.71380   0.45340   0.01267  Uiso   1.00
H60    H     0.97040   0.18020   0.35540   0.01267  Uiso   1.00
H61    H     0.59930   0.95930   0.30990   0.01267  Uiso   1.00
H62    H     0.47970   0.00180   0.37960   0.01267  Uiso   1.00
H63    H     0.33880   0.08570   0.31210   0.01267  Uiso   1.00
H64    H     0.52550   0.66280   0.36980   0.01267  Uiso   1.00
H65    H     0.90030   0.04070   0.11830   0.01267  Uiso   1.00
H66    H     0.10670   0.21310   0.45550   0.01267  Uiso   1.00
H67    H     0.45430   0.46450   0.43770   0.01267  Uiso   1.00
H68    H     0.90220   0.33920   0.63360   0.01267  Uiso   1.00
H69    H     0.43780   0.45550   0.28690   0.01267  Uiso   1.00
H70    H     0.81460   0.63710   0.36410   0.01267  Uiso   1.00
H71    H     0.53460   0.43930   0.01650   0.01267  Uiso   1.00
H72    H     0.18860   0.14630   0.58310   0.01267  Uiso   1.00
H73    H     0.84940   0.14460   0.18020   0.01267  Uiso   1.00
H74    H     0.77170   0.41690   0.64630   0.01267  Uiso   1.00
H75    H     0.66510   0.91690   0.14630   0.01267  Uiso   1.00
H76    H     0.42260   0.06360   0.00680   0.01267  Uiso   1.00
H77    H     0.09780   0.66080   0.36640   0.01267  Uiso   1.00
H78    H     0.77210   0.85740   0.03940   0.01267  Uiso   1.00
H79    H     0.16890   0.64260   0.46060   0.01267  Uiso   1.00
H80    H     0.55110   0.98350   0.93930   0.01267  Uiso   1.00
H81    H     0.98070   0.22030   0.45450   0.01267  Uiso   1.00
H82    H     0.71120   0.39380   0.49600   0.01267  Uiso   1.00
H83    H     0.15060   0.85540   0.81980   0.01267  Uiso   1.00
H84    H     0.95500   0.31830   0.92030   0.01267  Uiso   1.00
H85    H     0.34280   0.63810   0.60970   0.01267  Uiso   1.00
H86    H     0.42450   0.81210   0.91430   0.01267  Uiso   1.00
H87    H     0.74780   0.32450   0.05390   0.01267  Uiso   1.00
H88    H     0.49780   0.07110   0.63090   0.01267  Uiso   1.00
H89    H     0.46600   0.35770   0.77730   0.01267  Uiso   1.00
H90    H     0.57740   0.93640   0.99320   0.01267  Uiso   1.00
H91    H     0.34910   0.31210   0.41430   0.01267  Uiso   1.00
H92    H     0.20660   0.28860   0.12320   0.01267  Uiso   1.00
H93    H     0.09970   0.95930   0.88170   0.01267  Uiso   1.00
H94    H     0.04820   0.41030   0.78110   0.01267  Uiso   1.00
H95    H     0.18540   0.36290   0.63590   0.01267  Uiso   1.00
H96    H     0.22790   0.14260   0.96060   0.01267  Uiso   1.00
H97    H     0.44140   0.19010   0.95930   0.01267  Uiso   1.00
H98    H     0.29240   0.71690   0.87570   0.01267  Uiso   1.00
H99    H     0.55070   0.24500   0.12760   0.01267  Uiso   1.00
H100   H     0.81430   0.59980   0.29300   0.01267  Uiso   1.00
H101   H     0.95250   0.39030   0.13810   0.01267  Uiso   1.00
H102   H     0.14350   0.96450   0.93770   0.01267  Uiso   1.00
H103   H     0.99070   0.62430   0.71690   0.01267  Uiso   1.00
H104   H     0.73670   0.92560   0.10800   0.01267  Uiso   1.00
H105   H     0.51380   0.49320   0.06360   0.01267  Uiso   1.00
H106   H     0.25220   0.67550   0.94610   0.01267  Uiso   1.00
H107   H     0.79900   0.04550   0.22030   0.01267  Uiso   1.00
H108   H     0.28120   0.97810   0.29390   0.01267  Uiso   1.00
H109   H     0.94190   0.16280   0.86980   0.01267  Uiso   1.00
H110   H     0.47450   0.33720   0.63020   0.01267  Uiso   1.00
H111   H     0.15530   0.10800   0.57440   0.01267  Uiso   1.00
H112   H     0.24630   0.74370   0.29130   0.01267  Uiso   1.00
H113   H     0.04500   0.68170   0.07970   0.01267  Uiso   1.00
H114   H     0.45170   0.86410   0.36290   0.01267  Uiso   1.00
H115   H     0.56890   0.13090   0.92890   0.01267  Uiso   1.00
H116   H     0.02830   0.62760   0.98160   0.01267  Uiso   1.00
H117   H     0.05900   0.38170   0.04070   0.01267  Uiso   1.00
H118   H     0.36110   0.49820   0.12040   0.01267  Uiso   1.00
H119   H     0.17630   0.46910   0.97330   0.01267  Uiso   1.00
H120   H     0.02960   0.81980   0.64460   0.01267  Uiso   1.00
H121   H     0.92770   0.44610   0.32450   0.01267  Uiso   1.00
H122   H     0.41410   0.79300   0.40020   0.01267  Uiso   1.00
H123   H     0.45850   0.28110   0.58970   0.01267  Uiso   1.00
H124   H     0.69980   0.42890   0.86910   0.01267  Uiso   1.00
H125   H     0.63150   0.45930   0.80990   0.01267  Uiso   1.00
H126   H     0.32170   0.12760   0.25500   0.01267  Uiso   1.00
H127   H     0.67020   0.12320   0.21140   0.01267  Uiso   1.00
H128   H     0.90940   0.13810   0.10970   0.01267  Uiso   1.00
H129   H     0.41310   0.02630   0.22010   0.01267  Uiso   1.00
H130   H     0.18830   0.86980   0.33720   0.01267  Uiso   1.00
H131   H     0.20720   0.50400   0.89380   0.01267  Uiso   1.00
H132   H     0.91880   0.93770   0.53550   0.01267  Uiso   1.00
H133   H     0.42940   0.99320   0.56360   0.01267  Uiso   1.00
H134   H     0.21870   0.24370   0.79130   0.01267  Uiso   1.00
H135   H     0.05810   0.83720   0.13020   0.01267  Uiso   1.00
H136   H     0.32980   0.87680   0.78860   0.01267  Uiso   1.00
H137   H     0.79570   0.62760   0.75500   0.01267  Uiso   1.00
H138   H     0.20710   0.90020   0.20700   0.01267  Uiso   1.00
H139   H     0.87580   0.95340   0.28620   0.01267  Uiso   1.00
H140   H     0.79290   0.09980   0.79300   0.01267  Uiso   1.00
H141   H     0.83800   0.28620   0.54660   0.01267  Uiso   1.00
H142   H     0.89900   0.85770   0.27730   0.01267  Uiso   1.00
H143   H     0.99300   0.43640   0.49320   0.01267  Uiso   1.00
H144   H     0.82920   0.78620   0.04660   0.01267  Uiso   1.00
H145   H     0.50220   0.92890   0.36910   0.01267  Uiso   1.00
H146   H     0.99010   0.98160   0.87240   0.01267  Uiso   1.00
H147   H     0.66230   0.60800   0.07440   0.01267  Uiso   1.00
H148   H     0.55860   0.80990   0.04070   0.01267  Uiso   1.00
H149   H     0.71880   0.02190   0.70610   0.01267  Uiso   1.00
H150   H     0.17630   0.72270   0.35770   0.01267  Uiso   1.00
H151   H     0.20430   0.37240   0.24500   0.01267  Uiso   1.00
H152   H     0.28880   0.60620   0.50400   0.01267  Uiso   1.00
H153   H     0.10470   0.36980   0.83720   0.01267  Uiso   1.00
H154   H     0.84470   0.89200   0.42560   0.01267  Uiso   1.00
H155   H     0.50480   0.37680   0.28860   0.01267  Uiso   1.00
H156   H     0.86250   0.12760   0.48160   0.01267  Uiso   1.00
H157   H     0.37050   0.46060   0.85740   0.01267  Uiso   1.00
H158   H     0.46420   0.63360   0.16080   0.01267  Uiso   1.00
H159   H     0.49040   0.06070   0.48350   0.01267  Uiso   1.00
H160   H     0.68420   0.13710   0.86410   0.01267  Uiso   1.00
H161   H     0.81150   0.96060   0.35740   0.01267  Uiso   1.00
H162   H     0.98140   0.11830   0.45930   0.01267  Uiso   1.00
H163   H     0.18570   0.40020   0.70700   0.01267  Uiso   1.00
H164   H     0.85650   0.03550   0.06230   0.01267  Uiso   1.00
H165   H     0.72470   0.71310   0.95550   0.01267  Uiso   1.00
H166   H     0.53580   0.36640   0.83920   0.01267  Uiso   1.00
H167   H     0.85040   0.97330   0.03090   0.01267  Uiso   1.00
H168   H     0.30640   0.81830   0.42030   0.01267  Uiso   1.00
H169   H     0.21550   0.53670   0.97430   0.01267  Uiso   1.00
H170   H     0.09080   0.30990   0.54070   0.01267  Uiso   1.00
H171   H     0.44070   0.54070   0.61830   0.01267  Uiso   1.00
H172   H     0.81020   0.97430   0.96330   0.01267  Uiso   1.00
H173   H     0.11840   0.21140   0.37680   0.01267  Uiso   1.00
H174   H     0.84050   0.52630   0.72010   0.01267  Uiso   1.00
H175   H     0.68020   0.04450   0.21310   0.01267  Uiso   1.00
H176   H     0.46540   0.56070   0.98350   0.01267  Uiso   1.00
H177   H     0.48150   0.87960   0.99820   0.01267  Uiso   1.00
H178   H     0.38010   0.66300   0.94300   0.01267  Uiso   1.00
H179   H     0.83110   0.35740   0.53940   0.01267  Uiso   1.00
H180   H     0.14960   0.02670   0.96910   0.01267  Uiso   1.00
H181   H     0.79280   0.49600   0.10620   0.01267  Uiso   1.00
H182   H     0.63890   0.50180   0.87960   0.01267  Uiso   1.00
H183   H     0.99000   0.79130   0.25630   0.01267  Uiso   1.00
H184   H     0.38500   0.78310   0.62430   0.01267  Uiso   1.00
H185   H     0.04750   0.60970   0.86190   0.01267  Uiso   1.00
H186   H     0.01930   0.77970   0.54550   0.01267  Uiso   1.00
H187   H     0.05320   0.52190   0.20610   0.01267  Uiso   1.00
H188   H     0.48060   0.98480   0.22820   0.01267  Uiso   1.00
H189   H     0.00700   0.56360   0.50680   0.01267  Uiso   1.00
H190   H     0.89270   0.29300   0.90020   0.01267  Uiso   1.00
H191   H     0.63320   0.77990   0.52630   0.01267  Uiso   1.00
H192   H     0.81170   0.13020   0.66280   0.01267  Uiso   1.00
H193   H     0.87130   0.63090   0.42890   0.01267  Uiso   1.00
H194   H     0.10500   0.99600   0.60620   0.01267  Uiso   1.00
H195   H     0.15550   0.27970   0.04550   0.01267  Uiso   1.00
H196   H     0.49520   0.62320   0.71140   0.01267  Uiso   1.00
H197   H     0.51940   0.01520   0.77180   0.01267  Uiso   1.00
H198   H     0.89500   0.00400   0.39380   0.01267  Uiso   1.00
H199   H     0.25930   0.79390   0.02190   0.01267  Uiso   1.00
H200   H     0.27030   0.57440   0.39200   0.01267  Uiso   1.00
H201   H     0.58200   0.64630   0.08310   0.01267  Uiso   1.00
H202   H     0.65720   0.36190   0.39030   0.01267  Uiso   1.00
H203   H     0.48620   0.50680   0.93640   0.01267  Uiso   1.00
H204   H     0.10100   0.14230   0.72270   0.01267  Uiso   1.00
H205   H     0.89200   0.56230   0.96450   0.01267  Uiso   1.00
H206   H     0.37380   0.82450   0.55390   0.01267  Uiso   1.00
H207   H     0.54150   0.71890   0.41030   0.01267  Uiso   1.00
H208   H     0.12870   0.36910   0.57110   0.01267  Uiso   1.00
H209   H     0.67830   0.87240   0.74500   0.01267  Uiso   1.00
H210   H     0.17080   0.21380   0.95340   0.01267  Uiso   1.00
H211   H     0.82130   0.36410   0.86290   0.01267  Uiso   1.00
H212   H     0.32580   0.64460   0.68020   0.01267  Uiso   1.00
H213   H     0.77350   0.03670   0.47430   0.01267  Uiso   1.00
H214   H     0.84450   0.72030   0.95450   0.01267  Uiso   1.00
H215   H     0.27330   0.42030   0.68170   0.01267  Uiso   1.00
H216   H     0.61540   0.54660   0.21380   0.01267  Uiso   1.00
H217   H     0.20100   0.95450   0.77970   0.01267  Uiso   1.00
H218   H     0.95180   0.58970   0.21890   0.01267  Uiso   1.00
H219   H     0.89900   0.89380   0.99600   0.01267  Uiso   1.00
H220   H     0.04310   0.44300   0.33700   0.01267  Uiso   1.00
H221   H     0.01860   0.88170   0.54070   0.01267  Uiso   1.00
H222   H     0.32310   0.05700   0.16300   0.01267  Uiso   1.00
H223   H     0.72670   0.57970   0.31830   0.01267  Uiso   1.00
H224   H     0.56480   0.45450   0.27970   0.01267  Uiso   1.00
H225   H     0.67420   0.35540   0.31980   0.01267  Uiso   1.00
H226   H     0.12420   0.04660   0.71380   0.01267  Uiso   1.00
H227   H     0.18980   0.02570   0.03670   0.01267  Uiso   1.00
H228   H     0.43110   0.86910   0.07110   0.01267  Uiso   1.00
H229   H     0.53760   0.70870   0.24370   0.01267  Uiso   1.00
H230   H     0.22830   0.58310   0.35370   0.01267  Uiso   1.00
H231   H     0.00930   0.37570   0.28310   0.01267  Uiso   1.00
H232   H     0.24330   0.22270   0.85770   0.01267  Uiso   1.00
H233   H     0.43520   0.54550   0.72030   0.01267  Uiso   1.00
H234   H     0.82370   0.53090   0.02670   0.01267  Uiso   1.00
H235   H     0.33770   0.39200   0.92560   0.01267  Uiso   1.00
H236   H     0.57670   0.74500   0.62760   0.01267  Uiso   1.00
H237   H     0.99400   0.68020   0.85540   0.01267  Uiso   1.00
H238   H     0.87530   0.07970   0.81830   0.01267  Uiso   1.00
H239   H     0.75860   0.86640   0.33920   0.01267  Uiso   1.00
H240   H     0.88130   0.96910   0.47330   0.01267  Uiso   1.00
H241   H     0.75370   0.25630   0.70870   0.01267  Uiso   1.00
H242   H     0.22650   0.96330   0.52570   0.01267  Uiso   1.00
H243   H     0.14070   0.37960   0.49820   0.01267  Uiso   1.00
H244   H     0.07230   0.55390   0.67550   0.01267  Uiso   1.00
H245   H     0.80640   0.48480   0.72820   0.01267  Uiso   1.00
H246   H     0.24140   0.13360   0.66080   0.01267  Uiso   1.00
H247   H     0.89530   0.63020   0.16280   0.01267  Uiso   1.00
H248   H     0.90920   0.69010   0.45930   0.01267  Uiso   1.00
H249   H     0.88160   0.78860   0.62320   0.01267  Uiso   1.00
H250   H     0.36850   0.54070   0.19010   0.01267  Uiso   1.00
H251   H     0.10800   0.43770   0.03550   0.01267  Uiso   1.00
H252   H     0.41800   0.35370   0.91690   0.01267  Uiso   1.00
H253   H     0.51390   0.16300   0.44300   0.01267  Uiso   1.00
H254   H     0.40070   0.04070   0.69010   0.01267  Uiso   1.00
H255   H     0.97170   0.37240   0.01840   0.01267  Uiso   1.00
H256   H     0.82930   0.21890   0.91030   0.01267  Uiso   1.00
H257   H     0.94680   0.47810   0.79390   0.01267  Uiso   1.00
H258   H     0.12470   0.92030   0.18170   0.01267  Uiso   1.00
H259   H     0.56220   0.54450   0.71310   0.01267  Uiso   1.00
H260   H     0.58590   0.20700   0.59980   0.01267  Uiso   1.00
H261   H     0.19360   0.51520   0.27180   0.01267  Uiso   1.00
H262   H     0.97390   0.51650   0.56070   0.01267  Uiso   1.00
H263   H     0.65090   0.68790   0.58570   0.01267  Uiso   1.00
H264   H     0.48610   0.83700   0.55700   0.01267  Uiso   1.00
H265   H     0.54570   0.53550   0.56230   0.01267  Uiso   1.00
H266   H     0.01910   0.89030   0.63810   0.01267  Uiso   1.00
H267   H     0.27530   0.28690   0.04450   0.01267  Uiso   1.00
H268   H     0.35460   0.52670   0.46910   0.01267  Uiso   1.00
H269   H     0.62500   0.83920   0.13360   0.01267  Uiso   1.00
H270   H     0.31980   0.95550   0.78690   0.01267  Uiso   1.00
H271   H     0.70880   0.77180   0.48480   0.01267  Uiso   1.00
H272   H     0.58690   0.97370   0.77990   0.01267  Uiso   1.00
H273   H     0.18850   0.03940   0.64260   0.01267  Uiso   1.00
H274   H     0.85930   0.62040   0.50180   0.01267  Uiso   1.00
H275   H     0.73960   0.08970   0.71890   0.01267  Uiso   1.00
H276   H     0.30020   0.57110   0.13090   0.01267  Uiso   1.00
H277   H     0.02610   0.48350   0.43930   0.01267  Uiso   1.00
H278   H     0.51850   0.12040   0.00180   0.01267  Uiso   1.00
H279   H     0.98090   0.10970   0.36190   0.01267  Uiso   1.00
H280   H     0.46240   0.29130   0.75630   0.01267  Uiso   1.00
H281   H     0.44930   0.75500   0.87240   0.01267  Uiso   1.00
H282   H     0.89330   0.78690   0.54450   0.01267  Uiso   1.00
H283   H     0.17870   0.63590   0.13710   0.01267  Uiso   1.00
H284   H     0.67690   0.94300   0.83700   0.01267  Uiso   1.00
C1     C     0.72146   0.58843   0.67945   0.01267  Uiso   1.00
C2     C     0.41581   0.75980   0.60738   0.01267  Uiso   1.00
C3     C     0.92694   0.27308   0.07844   0.01267  Uiso   1.00
C4     C     0.61581   0.90978   0.27200   0.01267  Uiso   1.00
C5     C     0.90507   0.11782   0.91184   0.01267  Uiso   1.00
C6     C     0.68305   0.91461   0.58589   0.01267  Uiso   1.00
C7     C     0.19726   0.65644   0.26684   0.01267  Uiso   1.00
C8     C     0.90109   0.15819   0.89643   0.01267  Uiso   1.00
C9     C     0.99462   0.07844   0.22692   0.01267  Uiso   1.00
C10    C     0.84186   0.58452   0.79716   0.01267  Uiso   1.00
C11    C     0.33390   0.89955   0.88425   0.01267  Uiso   1.00
C12    C     0.48557   0.19114   0.93252   0.01267  Uiso   1.00
C13    C     0.68790   0.52412   0.15648   0.01267  Uiso   1.00
C14    C     0.85635   0.47502   0.19528   0.01267  Uiso   1.00
C15    C     0.76530   0.51271   0.26449   0.01267  Uiso   1.00
C16    C     0.88307   0.83487   0.29399   0.01267  Uiso   1.00
C17    C     0.38419   0.09022   0.72800   0.01267  Uiso   1.00
C18    C     0.96651   0.62207   0.87031   0.01267  Uiso   1.00
C19    C     0.79288   0.04859   0.61205   0.01267  Uiso   1.00
C20    C     0.97203   0.57929   0.19185   0.01267  Uiso   1.00
C21    C     0.11219   0.27200   0.59022   0.01267  Uiso   1.00
C22    C     0.84821   0.60253   0.52445   0.01267  Uiso   1.00
C23    C     0.67671   0.43252   0.80886   0.01267  Uiso   1.00
C24    C     0.58419   0.24020   0.39262   0.01267  Uiso   1.00
C25    C     0.68355   0.58539   0.91411   0.01267  Uiso   1.00
C26    C     0.78270   0.80548   0.35632   0.01267  Uiso   1.00
C27    C     0.43736   0.84369   0.08499   0.01267  Uiso   1.00
C28    C     0.94837   0.19528   0.02498   0.01267  Uiso   1.00
C29    C     0.46200   0.41665   0.61295   0.01267  Uiso   1.00
C30    C     0.73106   0.58589   0.58539   0.01267  Uiso   1.00
C31    C     0.48231   0.29505   0.78233   0.01267  Uiso   1.00
C32    C     0.21815   0.11575   0.39955   0.01267  Uiso   1.00
C33    C     0.72354   0.91548   0.70284   0.01267  Uiso   1.00
C34    C     0.44868   0.30815   0.57929   0.01267  Uiso   1.00
C35    C     0.96618   0.83580   0.63344   0.01267  Uiso   1.00
C36    C     0.38871   0.39636   0.34122   0.01267  Uiso   1.00
C37    C     0.81961   0.99879   0.97539   0.01267  Uiso   1.00
C38    C     0.52454   0.55885   0.95947   0.01267  Uiso   1.00
C39    C     0.09415   0.02808   0.69882   0.01267  Uiso   1.00
C40    C     0.58266   0.53536   0.53452   0.01267  Uiso   1.00
C41    C     0.80352   0.02828   0.57128   0.01267  Uiso   1.00
C42    C     0.30049   0.46428   0.54754   0.01267  Uiso   1.00
C43    C     0.11802   0.03452   0.46464   0.01267  Uiso   1.00
C44    C     0.96533   0.46113   0.81621   0.01267  Uiso   1.00
C45    C     0.97335   0.97502   0.69528   0.01267  Uiso   1.00
C46    C     0.37480   0.42872   0.52828   0.01267  Uiso   1.00
C47    C     0.20712   0.95141   0.38795   0.01267  Uiso   1.00
C48    C     0.05928   0.39643   0.84181   0.01267  Uiso   1.00
C49    C     0.51769   0.70495   0.21767   0.01267  Uiso   1.00
C50    C     0.82294   0.29399   0.66513   0.01267  Uiso   1.00
C51    C     0.59980   0.58859   0.95161   0.01267  Uiso   1.00
C52    C     0.54555   0.22925   0.87045   0.01267  Uiso   1.00
C53    C     0.61128   0.31103   0.89421   0.01267  Uiso   1.00
C54    C     0.17561   0.10738   0.24020   0.01267  Uiso   1.00
C55    C     0.92769   0.42007   0.24755   0.01267  Uiso   1.00
C56    C     0.52772   0.34007   0.83109   0.01267  Uiso   1.00
C57    C     0.45445   0.77075   0.12955   0.01267  Uiso   1.00
C58    C     0.92505   0.61295   0.08335   0.01267  Uiso   1.00
C59    C     0.51443   0.80886   0.06748   0.01267  Uiso   1.00
C60    C     0.57354   0.68379   0.46113   0.01267  Uiso   1.00
C61    C     0.78154   0.18379   0.96113   0.01267  Uiso   1.00
C62    C     0.62054   0.84356   0.23316   0.01267  Uiso   1.00
C63    C     0.18039   0.00121   0.02461   0.01267  Uiso   1.00
C64    C     0.44859   0.95161   0.91141   0.01267  Uiso   1.00
C65    C     0.78798   0.34352   0.52412   0.01267  Uiso   1.00
C66    C     0.87830   0.81727   0.62053   0.01267  Uiso   1.00
C67    C     0.18309   0.91184   0.38218   0.01267  Uiso   1.00
C68    C     0.60507   0.28724   0.44482   0.01267  Uiso   1.00
C69    C     0.42646   0.31621   0.53887   0.01267  Uiso   1.00
C70    C     0.58818   0.85632   0.19452   0.01267  Uiso   1.00
C71    C     0.34776   0.74755   0.57993   0.01267  Uiso   1.00
C72    C     0.63091   0.16051   0.87567   0.01267  Uiso   1.00
C73    C     0.09692   0.52828   0.07128   0.01267  Uiso   1.00
C74    C     0.47546   0.44115   0.04053   0.01267  Uiso   1.00
C75    C     0.66610   0.10045   0.11575   0.01267  Uiso   1.00
C76    C     0.31645   0.41461   0.08589   0.01267  Uiso   1.00
C77    C     0.72199   0.23551   0.51271   0.01267  Uiso   1.00
C78    C     0.40091   0.32055   0.08843   0.01267  Uiso   1.00
C79    C     0.16709   0.33949   0.62433   0.01267  Uiso   1.00
C80    C     0.81840   0.47539   0.00121   0.01267  Uiso   1.00
C81    C     0.89077   0.69114   0.43252   0.01267  Uiso   1.00
C82    C     0.87865   0.11295   0.58335   0.01267  Uiso   1.00
C83    C     0.45571   0.34181   0.60357   0.01267  Uiso   1.00
C84    C     0.83180   0.07128   0.97172   0.01267  Uiso   1.00
C85    C     0.16318   0.87031   0.87793   0.01267  Uiso   1.00
C86    C     0.79998   0.42156   0.27308   0.01267  Uiso   1.00
C87    C     0.45714   0.05885   0.45947   0.01267  Uiso   1.00
C88    C     0.14308   0.01615   0.50169   0.01267  Uiso   1.00
C89    C     0.79752   0.10357   0.65819   0.01267  Uiso   1.00
C90    C     0.50414   0.02665   0.43187   0.01267  Uiso   1.00
C91    C     0.37634   0.76292   0.89060   0.01267  Uiso   1.00
C92    C     0.62366   0.23708   0.10940   0.01267  Uiso   1.00
C93    C     0.49586   0.97335   0.56813   0.01267  Uiso   1.00
C94    C     0.51193   0.66513   0.20601   0.01267  Uiso   1.00
C95    C     0.25733   0.96113   0.31621   0.01267  Uiso   1.00
C96    C     0.13902   0.64368   0.30548   0.01267  Uiso   1.00
C97    C     0.91666   0.00280   0.36488   0.01267  Uiso   1.00
C98    C     0.41600   0.12955   0.72925   0.01267  Uiso   1.00
C99    C     0.68348   0.81103   0.39421   0.01267  Uiso   1.00
C100   C     0.76655   0.61575   0.89955   0.01267  Uiso   1.00
C101   C     0.92255   0.76482   0.42828   0.01267  Uiso   1.00
C102   C     0.51066   0.08843   0.17945   0.01267  Uiso   1.00
C103   C     0.61770   0.60045   0.61575   0.01267  Uiso   1.00
C104   C     0.05163   0.80472   0.97502   0.01267  Uiso   1.00
C105   C     0.07306   0.72692   0.92156   0.01267  Uiso   1.00
C106   C     0.36000   0.08859   0.45161   0.01267  Uiso   1.00
C107   C     0.88282   0.53452   0.96464   0.01267  Uiso   1.00
C108   C     0.55141   0.04839   0.08859   0.01267  Uiso   1.00
C109   C     0.73536   0.78233   0.20495   0.01267  Uiso   1.00
C110   C     0.42114   0.98460   0.87892   0.01267  Uiso   1.00
C111   C     0.00538   0.92156   0.77308   0.01267  Uiso   1.00
C112   C     0.72988   0.28078   0.50406   0.01267  Uiso   1.00
C113   C     0.49342   0.87567   0.33949   0.01267  Uiso   1.00
C114   C     0.47014   0.26292   0.39060   0.01267  Uiso   1.00
C115   C     0.31652   0.18897   0.60579   0.01267  Uiso   1.00
C116   C     0.31210   0.47588   0.84352   0.01267  Uiso   1.00
C117   C     0.48934   0.91157   0.82055   0.01267  Uiso   1.00
C118   C     0.20703   0.69882   0.47192   0.01267  Uiso   1.00
C119   C     0.21534   0.48460   0.37892   0.01267  Uiso   1.00
C120   C     0.15254   0.96464   0.96548   0.01267  Uiso   1.00
C121   C     0.09531   0.07993   0.25245   0.01267  Uiso   1.00
C122   C     0.27801   0.76449   0.48729   0.01267  Uiso   1.00
C123   C     0.35881   0.16891   0.84007   0.01267  Uiso   1.00
C124   C     0.72993   0.65878   0.89636   0.01267  Uiso   1.00
C125   C     0.12135   0.88705   0.41665   0.01267  Uiso   1.00
C126   C     0.15197   0.54754   0.03572   0.01267  Uiso   1.00
C127   C     0.15814   0.41548   0.20284   0.01267  Uiso   1.00
C128   C     0.30006   0.12108   0.48460   0.01267  Uiso   1.00
C129   C     0.97681   0.60738   0.74020   0.01267  Uiso   1.00
C130   C     0.41734   0.46464   0.46548   0.01267  Uiso   1.00
C131   C     0.90469   0.92007   0.74755   0.01267  Uiso   1.00
C132   C     0.20002   0.57844   0.72692   0.01267  Uiso   1.00
C133   C     0.15179   0.39747   0.47555   0.01267  Uiso   1.00
C134   C     0.79142   0.37567   0.83949   0.01267  Uiso   1.00
C135   C     0.95750   0.01271   0.76449   0.01267  Uiso   1.00
C136   C     0.13150   0.02412   0.65648   0.01267  Uiso   1.00
C137   C     0.38230   0.39955   0.38425   0.01267  Uiso   1.00
C138   C     0.08339   0.45947   0.44115   0.01267  Uiso   1.00
C139   C     0.91661   0.54053   0.55885   0.01267  Uiso   1.00
C140   C     0.84438   0.84352   0.02412   0.01267  Uiso   1.00
C141   C     0.86098   0.35632   0.69452   0.01267  Uiso   1.00
C142   C     0.16287   0.78724   0.94482   0.01267  Uiso   1.00
C143   C     0.82439   0.89262   0.75980   0.01267  Uiso   1.00
C144   C     0.46266   0.47335   0.06813   0.01267  Uiso   1.00
C145   C     0.55132   0.69185   0.42071   0.01267  Uiso   1.00
C146   C     0.28299   0.74020   0.89262   0.01267  Uiso   1.00
C147   C     0.81691   0.08816   0.61782   0.01267  Uiso   1.00
C148   C     0.21202   0.65648   0.47588   0.01267  Uiso   1.00
C149   C     0.68139   0.08949   0.53733   0.01267  Uiso   1.00
C150   C     0.55550   0.30548   0.85632   0.01267  Uiso   1.00
C151   C     0.54429   0.65819   0.39643   0.01267  Uiso   1.00
C152   C     0.01472   0.21922   0.99594   0.01267  Uiso   1.00
C153   C     0.15853   0.88795   0.04859   0.01267  Uiso   1.00
C154   C     0.78434   0.49720   0.13512   0.01267  Uiso   1.00
C155   C     0.03349   0.37793   0.12969   0.01267  Uiso   1.00
C156   C     0.95011   0.44482   0.21276   0.01267  Uiso   1.00
C157   C     0.40234   0.91411   0.91461   0.01267  Uiso   1.00
C158   C     0.47519   0.89747   0.97555   0.01267  Uiso   1.00
C159   C     0.52559   0.77200   0.09022   0.01267  Uiso   1.00
C160   C     0.10923   0.30886   0.56748   0.01267  Uiso   1.00
C161   C     0.83713   0.21276   0.05518   0.01267  Uiso   1.00
C162   C     0.04989   0.55518   0.78724   0.01267  Uiso   1.00
C163   C     0.26694   0.10940   0.26292   0.01267  Uiso   1.00
C164   C     0.17524   0.75245   0.92007   0.01267  Uiso   1.00
C165   C     0.80274   0.34356   0.73316   0.01267  Uiso   1.00
C166   C     0.31695   0.08539   0.41411   0.01267  Uiso   1.00
C167   C     0.02319   0.39262   0.25980   0.01267  Uiso   1.00
C168   C     0.53079   0.93187   0.97335   0.01267  Uiso   1.00
C169   C     0.87777   0.80118   0.02808   0.01267  Uiso   1.00
C170   C     0.14365   0.52498   0.80472   0.01267  Uiso   1.00
C171   C     0.50658   0.12433   0.66051   0.01267  Uiso   1.00
C172   C     0.50549   0.10579   0.81103   0.01267  Uiso   1.00
C173   C     0.48401   0.04053   0.05885   0.01267  Uiso   1.00
C174   C     0.46921   0.06813   0.02665   0.01267  Uiso   1.00
C175   C     0.71794   0.79399   0.16513   0.01267  Uiso   1.00
C176   C     0.40493   0.38795   0.54859   0.01267  Uiso   1.00
C177   C     0.28154   0.63512   0.50280   0.01267  Uiso   1.00
C178   C     0.23394   0.49594   0.78078   0.01267  Uiso   1.00
C179   C     0.47228   0.65993   0.16891   0.01267  Uiso   1.00
C180   C     0.21493   0.15878   0.39636   0.01267  Uiso   1.00
C181   C     0.71701   0.25980   0.10738   0.01267  Uiso   1.00
C182   C     0.02665   0.02498   0.30472   0.01267  Uiso   1.00
C183   C     0.31263   0.07172   0.76482   0.01267  Uiso   1.00
C184   C     0.02797   0.42071   0.80815   0.01267  Uiso   1.00
C185   C     0.64119   0.83109   0.15993   0.01267  Uiso   1.00
C186   C     0.78185   0.88425   0.60045   0.01267  Uiso   1.00
C187   C     0.19179   0.58949   0.03733   0.01267  Uiso   1.00
C188   C     0.59426   0.62108   0.98460   0.01267  Uiso   1.00
C189   C     0.43473   0.38218   0.58816   0.01267  Uiso   1.00
C190   C     0.98934   0.99594   0.28078   0.01267  Uiso   1.00
C191   C     0.53590   0.26684   0.84356   0.01267  Uiso   1.00
C192   C     0.80198   0.13344   0.16420   0.01267  Uiso   1.00
C193   C     0.79500   0.02461   0.49879   0.01267  Uiso   1.00
C194   C     0.38435   0.26482   0.92828   0.01267  Uiso   1.00
C195   C     0.56527   0.61782   0.41184   0.01267  Uiso   1.00
C196   C     0.23523   0.95246   0.46428   0.01267  Uiso   1.00
C197   C     0.44450   0.69452   0.14368   0.01267  Uiso   1.00
C198   C     0.84746   0.03536   0.03452   0.01267  Uiso   1.00
C199   C     0.77088   0.03733   0.91051   0.01267  Uiso   1.00
C200   C     0.02979   0.73551   0.01271   0.01267  Uiso   1.00
C201   C     0.14630   0.23316   0.65644   0.01267  Uiso   1.00
C202   C     0.37946   0.15644   0.76684   0.01267  Uiso   1.00
C203   C     0.93601   0.56813   0.52665   0.01267  Uiso   1.00
C204   C     0.29379   0.50121   0.52461   0.01267  Uiso   1.00
C205   C     0.20858   0.62433   0.16051   0.01267  Uiso   1.00
C206   C     0.75683   0.07929   0.69185   0.01267  Uiso   1.00
C207   C     0.21872   0.46267   0.58949   0.01267  Uiso   1.00
C208   C     0.11718   0.46548   0.03536   0.01267  Uiso   1.00
C209   C     0.54286   0.94115   0.54053   0.01267  Uiso   1.00
C210   C     0.59507   0.61205   0.45141   0.01267  Uiso   1.00
C211   C     0.84077   0.99831   0.01615   0.01267  Uiso   1.00
C212   C     0.69951   0.53572   0.45246   0.01267  Uiso   1.00
C213   C     0.21730   0.19452   0.64368   0.01267  Uiso   1.00
C214   C     0.69994   0.87892   0.51540   0.01267  Uiso   1.00
C215   C     0.24317   0.92071   0.30815   0.01267  Uiso   1.00
C216   C     0.06399   0.43187   0.47335   0.01267  Uiso   1.00
C217   C     0.13221   0.66891   0.34007   0.01267  Uiso   1.00
C218   C     0.81610   0.68273   0.87947   0.01267  Uiso   1.00
C219   C     0.66863   0.30472   0.47502   0.01267  Uiso   1.00
C220   C     0.45074   0.02445   0.39747   0.01267  Uiso   1.00
C221   C     0.27012   0.71922   0.49594   0.01267  Uiso   1.00
C222   C     0.20248   0.89643   0.34181   0.01267  Uiso   1.00
C223   C     0.38872   0.68897   0.10579   0.01267  Uiso   1.00
C224   C     0.81231   0.03572   0.95246   0.01267  Uiso   1.00
C225   C     0.47441   0.22800   0.90978   0.01267  Uiso   1.00
C226   C     0.40038   0.63344   0.66420   0.01267  Uiso   1.00
C227   C     0.88781   0.72800   0.40978   0.01267  Uiso   1.00
C228   C     0.64000   0.91141   0.54839   0.01267  Uiso   1.00
C229   C     0.18390   0.31727   0.12053   0.01267  Uiso   1.00
C230   C     0.37371   0.89636   0.84122   0.01267  Uiso   1.00
C231   C     0.71895   0.41501   0.84369   0.01267  Uiso   1.00
C232   C     0.61129   0.60364   0.65878   0.01267  Uiso   1.00
C233   C     0.86604   0.65631   0.41501   0.01267  Uiso   1.00
C234   C     0.91946   0.86488   0.99720   0.01267  Uiso   1.00
C235   C     0.07231   0.57993   0.75245   0.01267  Uiso   1.00
C236   C     0.12170   0.18273   0.37947   0.01267  Uiso   1.00
C237   C     0.86850   0.97588   0.34352   0.01267  Uiso   1.00
C238   C     0.94031   0.79505   0.28233   0.01267  Uiso   1.00
C239   C     0.41142   0.62969   0.62207   0.01267  Uiso   1.00
C240   C     0.29759   0.59022   0.22800   0.01267  Uiso   1.00
C241   C     0.86074   0.60940   0.76292   0.01267  Uiso   1.00
C242   C     0.95352   0.45141   0.88795   0.01267  Uiso   1.00
C243   C     0.27854   0.41157   0.32055   0.01267  Uiso   1.00
C244   C     0.37266   0.47555   0.10253   0.01267  Uiso   1.00
C245   C     0.26894   0.41411   0.41461   0.01267  Uiso   1.00
C246   C     0.77480   0.37045   0.77075   0.01267  Uiso   1.00
C247   C     0.76477   0.04754   0.53572   0.01267  Uiso   1.00
C248   C     0.56264   0.15631   0.91501   0.01267  Uiso   1.00
C249   C     0.09891   0.84181   0.10357   0.01267  Uiso   1.00
C250   C     0.51599   0.95947   0.94115   0.01267  Uiso   1.00
C251   C     0.89231   0.94482   0.71276   0.01267  Uiso   1.00
C252   C     0.08054   0.13512   0.00280   0.01267  Uiso   1.00
C253   C     0.16820   0.92872   0.02828   0.01267  Uiso   1.00
C254   C     0.95889   0.87793   0.62969   0.01267  Uiso   1.00
C255   C     0.13926   0.39060   0.23708   0.01267  Uiso   1.00
C256   C     0.73306   0.89060   0.73708   0.01267  Uiso   1.00
C257   C     0.26464   0.21767   0.79505   0.01267  Uiso   1.00
C258   C     0.83908   0.51615   0.00169   0.01267  Uiso   1.00
C259   C     0.07745   0.23518   0.57172   0.01267  Uiso   1.00
C260   C     0.01066   0.00406   0.71922   0.01267  Uiso   1.00
C261   C     0.49883   0.37947   0.31727   0.01267  Uiso   1.00
C262   C     0.80112   0.84007   0.33109   0.01267  Uiso   1.00
C263   C     0.30989   0.17945   0.41157   0.01267  Uiso   1.00
C264   C     0.23345   0.38425   0.10045   0.01267  Uiso   1.00
C265   C     0.36098   0.79716   0.91548   0.01267  Uiso   1.00
C266   C     0.19648   0.97172   0.42872   0.01267  Uiso   1.00
C267   C     0.28206   0.20601   0.83487   0.01267  Uiso   1.00
C268   C     0.19888   0.15993   0.66891   0.01267  Uiso   1.00
C269   C     0.62520   0.57128   0.47172   0.01267  Uiso   1.00
C270   C     0.50117   0.62053   0.68273   0.01267  Uiso   1.00
C271   C     0.13396   0.34369   0.58499   0.01267  Uiso   1.00
C272   C     0.35083   0.57172   0.26482   0.01267  Uiso   1.00
C273   C     0.46410   0.73316   0.15644   0.01267  Uiso   1.00
C274   C     0.07495   0.38705   0.91665   0.01267  Uiso   1.00
C275   C     0.15923   0.00169   0.98385   0.01267  Uiso   1.00
C276   C     0.02289   0.41184   0.88218   0.01267  Uiso   1.00
C277   C     0.12223   0.19882   0.97192   0.01267  Uiso   1.00
C278   C     0.40020   0.41141   0.04839   0.01267  Uiso   1.00
C279   C     0.41809   0.06748   0.69114   0.01267  Uiso   1.00
C280   C     0.83682   0.12969   0.12207   0.01267  Uiso   1.00
C281   C     0.47765   0.08499   0.65631   0.01267  Uiso   1.00
C282   C     0.92231   0.39421   0.68897   0.01267  Uiso   1.00
C283   C     0.40574   0.37892   0.01540   0.01267  Uiso   1.00
C284   C     0.69557   0.12053   0.18273   0.01267  Uiso   1.00
C285   C     0.84147   0.11205   0.95141   0.01267  Uiso   1.00
C286   C     0.39493   0.71276   0.55518   0.01267  Uiso   1.00
C287   C     0.77736   0.28233   0.70495   0.01267  Uiso   1.00
C288   C     0.64477   0.49831   0.51615   0.01267  Uiso   1.00
C289   C     0.68737   0.92828   0.23518   0.01267  Uiso   1.00
C290   C     0.58400   0.87045   0.27075   0.01267  Uiso   1.00
C291   C     0.78507   0.84122   0.60364   0.01267  Uiso   1.00
C292   C     0.17706   0.70601   0.33487   0.01267  Uiso   1.00
C293   C     0.53734   0.52665   0.93187   0.01267  Uiso   1.00
C294   C     0.79297   0.30118   0.52808   0.01267  Uiso   1.00
C295   C     0.15562   0.15648   0.97588   0.01267  Uiso   1.00
C296   C     0.81161   0.54839   0.58859   0.01267  Uiso   1.00
C297   C     0.32105   0.47192   0.80118   0.01267  Uiso   1.00
C298   C     0.84803   0.45246   0.96428   0.01267  Uiso   1.00
C299   C     0.78128   0.53733   0.41051   0.01267  Uiso   1.00
C300   C     0.18160   0.52461   0.99879   0.01267  Uiso   1.00
C301   C     0.03467   0.53887   0.18379   0.01267  Uiso   1.00
C302   C     0.22912   0.96267   0.08949   0.01267  Uiso   1.00
C303   C     0.27007   0.34122   0.10364   0.01267  Uiso   1.00
C304   C     0.78466   0.51540   0.62108   0.01267  Uiso   1.00
C305   C     0.05969   0.20495   0.71767   0.01267  Uiso   1.00
C306   C     0.90308   0.47172   0.92872   0.01267  Uiso   1.00
C307   C     0.06458   0.33580   0.13344   0.01267  Uiso   1.00
C308   C     0.21846   0.81621   0.03887   0.01267  Uiso   1.00
C309   C     0.36909   0.83949   0.12433   0.01267  Uiso   1.00
C310   C     0.97711   0.58816   0.11782   0.01267  Uiso   1.00
C311   C     0.35523   0.50169   0.48385   0.01267  Uiso   1.00
C312   C     0.76606   0.50406   0.21922   0.01267  Uiso   1.00
C313   C     0.19802   0.86656   0.83580   0.01267  Uiso   1.00
C314   C     0.21566   0.50280   0.86488   0.01267  Uiso   1.00
C315   C     0.52986   0.73708   0.60940   0.01267  Uiso   1.00
C316   C     0.74267   0.03887   0.68379   0.01267  Uiso   1.00
C317   C     0.59962   0.36656   0.33580   0.01267  Uiso   1.00
C318   C     0.85370   0.76684   0.34356   0.01267  Uiso   1.00
C319   C     0.31861   0.91051   0.46267   0.01267  Uiso   1.00
C320   C     0.98528   0.78078   0.00406   0.01267  Uiso   1.00
C321   C     0.62629   0.10364   0.15878   0.01267  Uiso   1.00
C322   C     0.27646   0.08452   0.29716   0.01267  Uiso   1.00
C323   C     0.49451   0.89421   0.18897   0.01267  Uiso   1.00
C324   C     0.85692   0.98385   0.49831   0.01267  Uiso   1.00
C325   C     0.04111   0.12207   0.37031   0.01267  Uiso   1.00
C326   C     0.28105   0.58499   0.15631   0.01267  Uiso   1.00
C327   C     0.54926   0.97555   0.60253   0.01267  Uiso   1.00
C328   C     0.62734   0.52445   0.89747   0.01267  Uiso   1.00
C329   C     0.70241   0.40978   0.77200   0.01267  Uiso   1.00
C330   C     0.52235   0.91501   0.34369   0.01267  Uiso   1.00
C331   C     0.94072   0.60357   0.15819   0.01267  Uiso   1.00
C332   C     0.00840   0.91665   0.11295   0.01267  Uiso   1.00
C333   C     0.20500   0.97539   0.50121   0.01267  Uiso   1.00
C334   C     0.23470   0.48729   0.73551   0.01267  Uiso   1.00
C335   C     0.48807   0.33487   0.79399   0.01267  Uiso   1.00
C336   C     0.85475   0.72925   0.37045   0.01267  Uiso   1.00
C337   C     0.58858   0.37031   0.37793   0.01267  Uiso   1.00
C338   C     0.58191   0.93252   0.30886   0.01267  Uiso   1.00
C339   C     0.30443   0.87947   0.81727   0.01267  Uiso   1.00
C340   C     0.63902   0.20284   0.08452   0.01267  Uiso   1.00
C341   C     0.71846   0.36488   0.49720   0.01267  Uiso   1.00
C342   C     0.08334   0.99720   0.63512   0.01267  Uiso   1.00
C343   C     0.90585   0.97192   0.30118   0.01267  Uiso   1.00
C344   C     0.09493   0.88218   0.08816   0.01267  Uiso   1.00
C345   C     0.83291   0.66051   0.37567   0.01267  Uiso   1.00
C346   C     0.18839   0.45161   0.41141   0.01267  Uiso   1.00
C347   C     0.11693   0.16513   0.70601   0.01267  Uiso   1.00
C348   C     0.67895   0.52808   0.19882   0.01267  Uiso   1.00
C349   C     0.61565   0.73518   0.07172   0.01267  Uiso   1.00
C350   C     0.10769   0.05518   0.28724   0.01267  Uiso   1.00
C351   C     0.69011   0.82055   0.58843   0.01267  Uiso   1.00
C352   C     0.14525   0.27075   0.62955   0.01267  Uiso   1.00
C353   C     0.16388   0.80815   0.07929   0.01267  Uiso   1.00
C354   C     0.86779   0.33109   0.65993   0.01267  Uiso   1.00
C355   C     0.33137   0.69528   0.52498   0.01267  Uiso   1.00
C356   C     0.32329   0.56748   0.19114   0.01267  Uiso   1.00
C357   C     0.03382   0.16420   0.36656   0.01267  Uiso   1.00
C358   C     0.83612   0.19185   0.92071   0.01267  Uiso   1.00
C359   C     0.07769   0.60579   0.31103   0.01267  Uiso   1.00
C360   C     0.64917   0.42828   0.73518   0.01267  Uiso   1.00
C361   C     0.57886   0.01540   0.12108   0.01267  Uiso   1.00
C362   C     0.04648   0.54859   0.11205   0.01267  Uiso   1.00
C363   C     0.16092   0.48385   0.99831   0.01267  Uiso   1.00
C364   C     0.04250   0.98729   0.23551   0.01267  Uiso   1.00
C365   C     0.97021   0.26449   0.98729   0.01267  Uiso   1.00
C366   C     0.22264   0.71767   0.29505   0.01267  Uiso   1.00
C367   C     0.70621   0.49879   0.47539   0.01267  Uiso   1.00
C368   C     0.80821   0.41051   0.96267   0.01267  Uiso   1.00
C369   C     0.88198   0.96548   0.53536   0.01267  Uiso   1.00
C370   C     0.57362   0.70284   0.58452   0.01267  Uiso   1.00
C371   C     0.65224   0.25245   0.42007   0.01267  Uiso   1.00
C372   C     0.22520   0.62955   0.22925   0.01267  Uiso   1.00
C373   C     0.99160   0.08335   0.88705   0.01267  Uiso   1.00
C374   C     0.82476   0.24755   0.07993   0.01267  Uiso   1.00
C375   C     0.59766   0.08589   0.08539   0.01267  Uiso   1.00
C376   C     0.18769   0.96428   0.04754   0.01267  Uiso   1.00
C377   C     0.59909   0.67945   0.91157   0.01267  Uiso   1.00
C378   C     0.52481   0.10253   0.02445   0.01267  Uiso   1.00
C379   C     0.53800   0.58335   0.38705   0.01267  Uiso   1.00
C380   C     0.93542   0.66420   0.86656   0.01267  Uiso   1.00
C381   C     0.42638   0.29716   0.41548   0.01267  Uiso   1.00
C382   C     0.41182   0.14368   0.80548   0.01267  Uiso   1.00
N1     N     0.50357   0.26166   0.80620   0.01267  Uiso   1.00
N2     N     0.66037   0.34624   0.47242   0.01267  Uiso   1.00
N3     N     0.99339   0.02758   0.34624   0.01267  Uiso   1.00
N4     N     0.58784   0.11170   0.05322   0.01267  Uiso   1.00
N5     N     0.93530   0.55809   0.80971   0.01267  Uiso   1.00
N6     N     0.76523   0.30620   0.73834   0.01267  Uiso   1.00
N7     N     0.06470   0.44191   0.19029   0.01267  Uiso   1.00
N8     N     0.30977   0.19380   0.76166   0.01267  Uiso   1.00
N9     N     0.30046   0.44678   0.11170   0.01267  Uiso   1.00
N10    N     0.47877   0.14653   0.69573   0.01267  Uiso   1.00
N11    N     0.13276   0.09768   0.38580   0.01267  Uiso   1.00
N12    N     0.84128   0.07108   0.01296   0.01267  Uiso   1.00
N13    N     0.25276   0.38830   0.44678   0.01267  Uiso   1.00
N14    N     0.64106   0.94678   0.61170   0.01267  Uiso   1.00
N15    N     0.80310   0.94191   0.69029   0.01267  Uiso   1.00
N16    N     0.57468   0.57108   0.51296   0.01267  Uiso   1.00
N17    N     0.76956   0.11420   0.09768   0.01267  Uiso   1.00
N18    N     0.11624   0.40232   0.11420   0.01267  Uiso   1.00
N19    N     0.52123   0.85347   0.30427   0.01267  Uiso   1.00
N20    N     0.40697   0.35521   0.52345   0.01267  Uiso   1.00
N21    N     0.86721   0.47242   0.15376   0.01267  Uiso   1.00
N22    N     0.59303   0.64479   0.47655   0.01267  Uiso   1.00
N23    N     0.74501   0.19029   0.05809   0.01267  Uiso   1.00
N24    N     0.76218   0.02345   0.64479   0.01267  Uiso   1.00
N25    N     0.50661   0.69029   0.55809   0.01267  Uiso   1.00
N26    N     0.78563   0.14479   0.97655   0.01267  Uiso   1.00
N27    N     0.23044   0.88580   0.90232   0.01267  Uiso   1.00
N28    N     0.69023   0.80620   0.23834   0.01267  Uiso   1.00
N29    N     0.19690   0.05809   0.30971   0.01267  Uiso   1.00
N30    N     0.41216   0.88830   0.94678   0.01267  Uiso   1.00
N31    N     0.42532   0.42892   0.48704   0.01267  Uiso   1.00
N32    N     0.35894   0.05322   0.38830   0.01267  Uiso   1.00
N33    N     0.00661   0.97242   0.65376   0.01267  Uiso   1.00
N34    N     0.08764   0.48704   0.07108   0.01267  Uiso   1.00
N35    N     0.17450   0.30427   0.64653   0.01267  Uiso   1.00
N36    N     0.69954   0.55322   0.88830   0.01267  Uiso   1.00
N37    N     0.23477   0.69380   0.26166   0.01267  Uiso   1.00
N38    N     0.86724   0.90232   0.61420   0.01267  Uiso   1.00
N39    N     0.93042   0.47655   0.85521   0.01267  Uiso   1.00
N40    N     0.23782   0.97655   0.35521   0.01267  Uiso   1.00
N41    N     0.02097   0.84624   0.97242   0.01267  Uiso   1.00
N42    N     0.25499   0.80971   0.94191   0.01267  Uiso   1.00
N43    N     0.97903   0.15376   0.02758   0.01267  Uiso   1.00
N44    N     0.48144   0.38580   0.40232   0.01267  Uiso   1.00
N45    N     0.85424   0.98704   0.57108   0.01267  Uiso   1.00
N46    N     0.74724   0.61170   0.55322   0.01267  Uiso   1.00
N47    N     0.49339   0.30971   0.44191   0.01267  Uiso   1.00
N48    N     0.06958   0.52345   0.14479   0.01267  Uiso   1.00
N49    N     0.91236   0.51296   0.92892   0.01267  Uiso   1.00
N50    N     0.07143   0.23834   0.69380   0.01267  Uiso   1.00
N51    N     0.14576   0.01296   0.42892   0.01267  Uiso   1.00
N52    N     0.21437   0.85521   0.02345   0.01267  Uiso   1.00
N53    N     0.62530   0.19573   0.85347   0.01267  Uiso   1.00
N54    N     0.51856   0.61420   0.59768   0.01267  Uiso   1.00
N55    N     0.15872   0.92892   0.98704   0.01267  Uiso   1.00
N56    N     0.82103   0.35347   0.80427   0.01267  Uiso   1.00
N57    N     0.13279   0.52758   0.84624   0.01267  Uiso   1.00
N58    N     0.37470   0.80427   0.14653   0.01267  Uiso   1.00
N59    N     0.49643   0.73834   0.19380   0.01267  Uiso   1.00
N60    N     0.33963   0.65376   0.52758   0.01267  Uiso   1.00
N61    N     0.17897   0.64653   0.19573   0.01267  Uiso   1.00
N62    N     0.82550   0.69573   0.35347   0.01267  Uiso   1.00
N63    N     0.92857   0.76166   0.30620   0.01267  Uiso   1.00
N64    N     0.88376   0.59768   0.88580   0.01267  Uiso   1.00
O1     O     0.14410   0.72486   0.00914   0.01267  Uiso   1.00
O2     O     0.27083   0.21209   0.43245   0.01267  Uiso   1.00
O3     O     0.06412   0.97122   0.86214   0.01267  Uiso   1.00
O4     O     0.36637   0.04161   0.78365   0.01267  Uiso   1.00
O5     O     0.04757   0.28746   0.97580   0.01267  Uiso   1.00
O6     O     0.69163   0.45839   0.71635   0.01267  Uiso   1.00
O7     O     0.42367   0.84156   0.54390   0.01267  Uiso   1.00
O8     O     0.26523   0.04390   0.15844   0.01267  Uiso   1.00
O9     O     0.41763   0.09890   0.16284   0.01267  Uiso   1.00
O10    O     0.29672   0.43245   0.28791   0.01267  Uiso   1.00
O11    O     0.59202   0.71635   0.04161   0.01267  Uiso   1.00
O12    O     0.49982   0.44740   0.59596   0.01267  Uiso   1.00
O13    O     0.59546   0.00122   0.77506   0.01267  Uiso   1.00
O14    O     0.32156   0.71832   0.09156   0.01267  Uiso   1.00
O15    O     0.71635   0.11892   0.51578   0.01267  Uiso   1.00
O16    O     0.15002   0.21635   0.54161   0.01267  Uiso   1.00
O17    O     0.31956   0.98774   0.86774   0.01267  Uiso   1.00
O18    O     0.38385   0.81749   0.41101   0.01267  Uiso   1.00
O19    O     0.12524   0.50733   0.36759   0.01267  Uiso   1.00
O20    O     0.71346   0.72501   0.08547   0.01267  Uiso   1.00
O21    O     0.32496   0.48774   0.36774   0.01267  Uiso   1.00
O22    O     0.30730   0.36774   0.01226   0.01267  Uiso   1.00
O23    O     0.96466   0.63786   0.97122   0.01267  Uiso   1.00
O24    O     0.30837   0.54161   0.28365   0.01267  Uiso   1.00
O25    O     0.41312   0.90844   0.21832   0.01267  Uiso   1.00
O26    O     0.72917   0.78791   0.56755   0.01267  Uiso   1.00
O27    O     0.62190   0.22486   0.50914   0.01267  Uiso   1.00
O28    O     0.87174   0.49878   0.72494   0.01267  Uiso   1.00
O29    O     0.12826   0.50122   0.27506   0.01267  Uiso   1.00
O30    O     0.04318   0.05260   0.90404   0.01267  Uiso   1.00
O31    O     0.07374   0.86214   0.52878   0.01267  Uiso   1.00
O32    O     0.20134   0.91101   0.18251   0.01267  Uiso   1.00
O33    O     0.03988   0.59156   0.28168   0.01267  Uiso   1.00
O34    O     0.36856   0.21832   0.59156   0.01267  Uiso   1.00
O35    O     0.97216   0.92412   0.81196   0.01267  Uiso   1.00
O36    O     0.37052   0.22494   0.50122   0.01267  Uiso   1.00
O37    O     0.18730   0.13226   0.48774   0.01267  Uiso   1.00
O38    O     0.03534   0.36214   0.02878   0.01267  Uiso   1.00
O39    O     0.48347   0.33716   0.09890   0.01267  Uiso   1.00
O40    O     0.37810   0.77514   0.49086   0.01267  Uiso   1.00
O41    O     0.10372   0.68804   0.92412   0.01267  Uiso   1.00
O42    O     0.40798   0.28365   0.95839   0.01267  Uiso   1.00
O43    O     0.60252   0.47122   0.36214   0.01267  Uiso   1.00
O44    O     0.42280   0.90781   0.44159   0.01267  Uiso   1.00
O45    O     0.13940   0.84757   0.41063   0.01267  Uiso   1.00
O46    O     0.71407   0.42099   0.25347   0.01267  Uiso   1.00
O47    O     0.49283   0.63241   0.00733   0.01267  Uiso   1.00
O48    O     0.61615   0.18251   0.58899   0.01267  Uiso   1.00
O49    O     0.69087   0.34156   0.04390   0.01267  Uiso   1.00
O50    O     0.34753   0.15244   0.59050   0.01267  Uiso   1.00
O51    O     0.63144   0.78168   0.40844   0.01267  Uiso   1.00
O52    O     0.12716   0.13399   0.58149   0.01267  Uiso   1.00
O53    O     0.39748   0.52878   0.63786   0.01267  Uiso   1.00
O54    O     0.79893   0.91453   0.22501   0.01267  Uiso   1.00
O55    O     0.66497   0.52420   0.28746   0.01267  Uiso   1.00
O56    O     0.68044   0.01226   0.13226   0.01267  Uiso   1.00
O57    O     0.03490   0.21997   0.47043   0.01267  Uiso   1.00
O58    O     0.96510   0.78003   0.52957   0.01267  Uiso   1.00
O59    O     0.67844   0.28168   0.90844   0.01267  Uiso   1.00
O60    O     0.26115   0.08149   0.86601   0.01267  Uiso   1.00
O61    O     0.41953   0.16284   0.40110   0.01267  Uiso   1.00
O62    O     0.77470   0.71997   0.97043   0.01267  Uiso   1.00
O63    O     0.85105   0.38108   0.98422   0.01267  Uiso   1.00
O64    O     0.92626   0.13786   0.47122   0.01267  Uiso   1.00
O65    O     0.79486   0.58899   0.31749   0.01267  Uiso   1.00
O66    O     0.96754   0.74653   0.92099   0.01267  Uiso   1.00
O67    O     0.25487   0.97043   0.78003   0.01267  Uiso   1.00
O68    O     0.50003   0.90950   0.15244   0.01267  Uiso   1.00
O69    O     0.33503   0.47580   0.71254   0.01267  Uiso   1.00
O70    O     0.30913   0.65844   0.95610   0.01267  Uiso   1.00
O71    O     0.28593   0.57901   0.74653   0.01267  Uiso   1.00
O72    O     0.09578   0.40404   0.94740   0.01267  Uiso   1.00
O73    O     0.02394   0.77499   0.41453   0.01267  Uiso   1.00
O74    O     0.10240   0.34757   0.91063   0.01267  Uiso   1.00
O75    O     0.13561   0.44159   0.59219   0.01267  Uiso   1.00
O76    O     0.59047   0.34756   0.90950   0.01267  Uiso   1.00
O77    O     0.27220   0.59219   0.05841   0.01267  Uiso   1.00
O78    O     0.90422   0.59596   0.05260   0.01267  Uiso   1.00
O79    O     0.48292   0.93245   0.78791   0.01267  Uiso   1.00
O80    O     0.89760   0.65243   0.08937   0.01267  Uiso   1.00
O81    O     0.23213   0.48422   0.61892   0.01267  Uiso   1.00
O82    O     0.63257   0.86759   0.49267   0.01267  Uiso   1.00
O83    O     0.50533   0.52957   0.71997   0.01267  Uiso   1.00
O84    O     0.33061   0.94159   0.09219   0.01267  Uiso   1.00
O85    O     0.73885   0.91851   0.13399   0.01267  Uiso   1.00
O86    O     0.83527   0.01578   0.88108   0.01267  Uiso   1.00
O87    O     0.81083   0.21254   0.52420   0.01267  Uiso   1.00
O88    O     0.40953   0.65244   0.09050   0.01267  Uiso   1.00
O89    O     0.76787   0.51578   0.38108   0.01267  Uiso   1.00
O90    O     0.58047   0.83716   0.59890   0.01267  Uiso   1.00
O91    O     0.34264   0.36601   0.91851   0.01267  Uiso   1.00
O92    O     0.05278   0.90404   0.44740   0.01267  Uiso   1.00
O93    O     0.66939   0.05841   0.90781   0.01267  Uiso   1.00
O94    O     0.97606   0.22501   0.58547   0.01267  Uiso   1.00
O95    O     0.06197   0.59050   0.34756   0.01267  Uiso   1.00
O96    O     0.94722   0.09596   0.55260   0.01267  Uiso   1.00
O97    O     0.93588   0.02878   0.13786   0.01267  Uiso   1.00
O98    O     0.20107   0.08547   0.77499   0.01267  Uiso   1.00
O99    O     0.65736   0.63399   0.08149   0.01267  Uiso   1.00
O100   O     0.49984   0.00733   0.86759   0.01267  Uiso   1.00
O101   O     0.02337   0.02420   0.78746   0.01267  Uiso   1.00
O102   O     0.55003   0.58937   0.34757   0.01267  Uiso   1.00
O103   O     0.88765   0.31749   0.91101   0.01267  Uiso   1.00
O104   O     0.84676   0.00914   0.77514   0.01267  Uiso   1.00
O105   O     0.15324   0.99086   0.22486   0.01267  Uiso   1.00
O106   O     0.02784   0.07588   0.18804   0.01267  Uiso   1.00
O107   O     0.79176   0.42412   0.31196   0.01267  Uiso   1.00
O108   O     0.11147   0.92099   0.75347   0.01267  Uiso   1.00
O109   O     0.65247   0.84756   0.40950   0.01267  Uiso   1.00
O110   O     0.97663   0.97580   0.21254   0.01267  Uiso   1.00
O111   O     0.86060   0.15243   0.58937   0.01267  Uiso   1.00
O112   O     0.41537   0.28791   0.06755   0.01267  Uiso   1.00
O113   O     0.50018   0.55260   0.40404   0.01267  Uiso   1.00
O114   O     0.57633   0.15844   0.45610   0.01267  Uiso   1.00
O115   O     0.44997   0.41063   0.65243   0.01267  Uiso   1.00
O116   O     0.86439   0.55841   0.40781   0.01267  Uiso   1.00
O117   O     0.69270   0.63226   0.98774   0.01267  Uiso   1.00
O118   O     0.16473   0.98422   0.11892   0.01267  Uiso   1.00
O119   O     0.14895   0.61892   0.01578   0.01267  Uiso   1.00
O120   O     0.40454   0.99878   0.22494   0.01267  Uiso   1.00
O121   O     0.20824   0.57588   0.68804   0.01267  Uiso   1.00
O122   O     0.63363   0.95839   0.21635   0.01267  Uiso   1.00
O123   O     0.93803   0.40950   0.65244   0.01267  Uiso   1.00
O124   O     0.79866   0.08899   0.81749   0.01267  Uiso   1.00
O125   O     0.29135   0.58149   0.36601   0.01267  Uiso   1.00
O126   O     0.70328   0.56755   0.71209   0.01267  Uiso   1.00
O127   O     0.28365   0.88108   0.48422   0.01267  Uiso   1.00
O128   O     0.58463   0.71209   0.93245   0.01267  Uiso   1.00
O129   O     0.57720   0.09219   0.55841   0.01267  Uiso   1.00
O130   O     0.22530   0.28003   0.02957   0.01267  Uiso   1.00
O131   O     0.89628   0.31196   0.07588   0.01267  Uiso   1.00
O132   O     0.67504   0.51226   0.63226   0.01267  Uiso   1.00
O133   O     0.58237   0.90110   0.83716   0.01267  Uiso   1.00
O134   O     0.56153   0.41453   0.72501   0.01267  Uiso   1.00
O135   O     0.20514   0.41101   0.68251   0.01267  Uiso   1.00
O136   O     0.03243   0.54390   0.65844   0.01267  Uiso   1.00
O137   O     0.51708   0.06755   0.21209   0.01267  Uiso   1.00
O138   O     0.96012   0.40844   0.71832   0.01267  Uiso   1.00
O139   O     0.50016   0.99267   0.13241   0.01267  Uiso   1.00
O140   O     0.58688   0.09156   0.78168   0.01267  Uiso   1.00
O141   O     0.74513   0.02957   0.21997   0.01267  Uiso   1.00
O142   O     0.49467   0.47043   0.28003   0.01267  Uiso   1.00
O143   O     0.73477   0.95610   0.84156   0.01267  Uiso   1.00
O144   O     0.95682   0.94740   0.09596   0.01267  Uiso   1.00
O145   O     0.86896   0.50914   0.27514   0.01267  Uiso   1.00
O146   O     0.49997   0.09050   0.84756   0.01267  Uiso   1.00
O147   O     0.87284   0.86601   0.41851   0.01267  Uiso   1.00
O148   O     0.01303   0.08937   0.84757   0.01267  Uiso   1.00
O149   O     0.11235   0.68251   0.08899   0.01267  Uiso   1.00
O150   O     0.03246   0.25347   0.07901   0.01267  Uiso   1.00
O151   O     0.70865   0.41851   0.63399   0.01267  Uiso   1.00
O152   O     0.81270   0.86774   0.51226   0.01267  Uiso   1.00
O153   O     0.51653   0.66284   0.90110   0.01267  Uiso   1.00
O154   O     0.87476   0.49267   0.63241   0.01267  Uiso   1.00
O155   O     0.72780   0.40781   0.94159   0.01267  Uiso   1.00
O156   O     0.36743   0.13241   0.50733   0.01267  Uiso   1.00
O157   O     0.13104   0.49086   0.72486   0.01267  Uiso   1.00
O158   O     0.98697   0.91063   0.15243   0.01267  Uiso   1.00
O159   O     0.84998   0.78365   0.45839   0.01267  Uiso   1.00
O160   O     0.18917   0.78746   0.47580   0.01267  Uiso   1.00
O161   O     0.50717   0.36759   0.99267   0.01267  Uiso   1.00
O162   O     0.85590   0.27514   0.99086   0.01267  Uiso   1.00
O163   O     0.96757   0.45610   0.34156   0.01267  Uiso   1.00
O164   O     0.28654   0.27499   0.91453   0.01267  Uiso   1.00
O165   O     0.43847   0.58547   0.27499   0.01267  Uiso   1.00
O166   O     0.95243   0.71254   0.02420   0.01267  Uiso   1.00
O167   O     0.62948   0.77506   0.49878   0.01267  Uiso   1.00
O168   O     0.88853   0.07901   0.24653   0.01267  Uiso   1.00
