data_cg500175k_si_001_auto
_audit_creation_date              2018-09-04
_audit_creation_method            'Materials Studio'
_symmetry_space_group_name_H-M    'P1'
_symmetry_Int_Tables_number       1
_symmetry_cell_setting            triclinic
loop_
_symmetry_equiv_pos_as_xyz
  x,y,z
_cell_length_a                    36.4789
_cell_length_b                    36.4789
_cell_length_c                    36.4789
_cell_angle_alpha                 90.0000
_cell_angle_beta                  90.0000
_cell_angle_gamma                 90.0000
loop_
_atom_site_label
_atom_site_type_symbol
_atom_site_fract_x
_atom_site_fract_y
_atom_site_fract_z
_atom_site_U_iso_or_equiv
_atom_site_adp_type
_atom_site_occupancy
C1     C     0.37095   0.31683   0.33871   0.00000  Uiso   1.00
C2     C     0.36771   0.34532   0.31352   0.00000  Uiso   1.00
C3     C     0.40023   0.29390   0.33064   0.00000  Uiso   1.00
C4     C     0.41894   0.30537   0.29931   0.00000  Uiso   1.00
S5     S     0.40049   0.34450   0.27980   0.00000  Uiso   1.00
H6     H     0.40730   0.26971   0.34630   0.00000  Uiso   1.00
O7     O     0.24747   0.03598   0.29816   0.00000  Uiso   1.00
O8     O     0.29526   0.03722   0.24450   0.00000  Uiso   1.00
C9     C     0.21811   0.04968   0.28540   0.00000  Uiso   1.00
C10    C     0.37095   0.81683   0.83871   0.00000  Uiso   1.00
C11    C     0.36771   0.84532   0.81352   0.00000  Uiso   1.00
C12    C     0.40023   0.79390   0.83064   0.00000  Uiso   1.00
C13    C     0.41894   0.80537   0.79931   0.00000  Uiso   1.00
S14    S     0.40049   0.84450   0.77980   0.00000  Uiso   1.00
H15    H     0.40730   0.76971   0.84630   0.00000  Uiso   1.00
O16    O     0.24747   0.53598   0.79816   0.00000  Uiso   1.00
O17    O     0.29526   0.53722   0.74450   0.00000  Uiso   1.00
C18    C     0.21811   0.54968   0.78540   0.00000  Uiso   1.00
C19    C     0.87095   0.31683   0.83871   0.00000  Uiso   1.00
C20    C     0.86771   0.34532   0.81352   0.00000  Uiso   1.00
C21    C     0.90023   0.29390   0.83064   0.00000  Uiso   1.00
C22    C     0.91894   0.30537   0.79931   0.00000  Uiso   1.00
S23    S     0.90049   0.34450   0.77980   0.00000  Uiso   1.00
H24    H     0.90730   0.26971   0.84630   0.00000  Uiso   1.00
O25    O     0.74747   0.03598   0.79816   0.00000  Uiso   1.00
O26    O     0.79526   0.03722   0.74450   0.00000  Uiso   1.00
C27    C     0.71811   0.04968   0.78540   0.00000  Uiso   1.00
C28    C     0.87095   0.81683   0.33871   0.00000  Uiso   1.00
C29    C     0.86771   0.84532   0.31352   0.00000  Uiso   1.00
C30    C     0.90023   0.79390   0.33064   0.00000  Uiso   1.00
C31    C     0.91894   0.80537   0.29931   0.00000  Uiso   1.00
S32    S     0.90049   0.84450   0.27980   0.00000  Uiso   1.00
H33    H     0.90730   0.76971   0.34630   0.00000  Uiso   1.00
O34    O     0.74747   0.53598   0.29816   0.00000  Uiso   1.00
O35    O     0.79526   0.53722   0.24450   0.00000  Uiso   1.00
C36    C     0.71811   0.54968   0.28540   0.00000  Uiso   1.00
C37    C     0.62905   0.68317   0.33871   0.00000  Uiso   1.00
C38    C     0.63229   0.65468   0.31352   0.00000  Uiso   1.00
C39    C     0.59977   0.70610   0.33064   0.00000  Uiso   1.00
C40    C     0.58106   0.69463   0.29931   0.00000  Uiso   1.00
S41    S     0.59951   0.65550   0.27980   0.00000  Uiso   1.00
H42    H     0.59270   0.73029   0.34630   0.00000  Uiso   1.00
O43    O     0.75253   0.96402   0.29816   0.00000  Uiso   1.00
O44    O     0.70474   0.96278   0.24450   0.00000  Uiso   1.00
C45    C     0.78189   0.95032   0.28540   0.00000  Uiso   1.00
C46    C     0.62905   0.18317   0.83871   0.00000  Uiso   1.00
C47    C     0.63229   0.15468   0.81352   0.00000  Uiso   1.00
C48    C     0.59977   0.20610   0.83064   0.00000  Uiso   1.00
C49    C     0.58106   0.19463   0.79931   0.00000  Uiso   1.00
S50    S     0.59951   0.15550   0.77980   0.00000  Uiso   1.00
H51    H     0.59270   0.23029   0.84630   0.00000  Uiso   1.00
O52    O     0.75253   0.46402   0.79816   0.00000  Uiso   1.00
O53    O     0.70474   0.46278   0.74450   0.00000  Uiso   1.00
C54    C     0.78189   0.45032   0.78540   0.00000  Uiso   1.00
C55    C     0.12905   0.68317   0.83871   0.00000  Uiso   1.00
C56    C     0.13229   0.65468   0.81352   0.00000  Uiso   1.00
C57    C     0.09977   0.70610   0.83064   0.00000  Uiso   1.00
C58    C     0.08106   0.69463   0.79931   0.00000  Uiso   1.00
S59    S     0.09951   0.65550   0.77980   0.00000  Uiso   1.00
H60    H     0.09270   0.73029   0.84630   0.00000  Uiso   1.00
O61    O     0.25253   0.96402   0.79816   0.00000  Uiso   1.00
O62    O     0.20474   0.96278   0.74450   0.00000  Uiso   1.00
C63    C     0.28189   0.95032   0.78540   0.00000  Uiso   1.00
C64    C     0.12905   0.18317   0.33871   0.00000  Uiso   1.00
C65    C     0.13229   0.15468   0.31352   0.00000  Uiso   1.00
C66    C     0.09977   0.20610   0.33064   0.00000  Uiso   1.00
C67    C     0.08106   0.19463   0.29931   0.00000  Uiso   1.00
S68    S     0.09951   0.15550   0.27980   0.00000  Uiso   1.00
H69    H     0.09270   0.23029   0.34630   0.00000  Uiso   1.00
O70    O     0.25253   0.46402   0.29816   0.00000  Uiso   1.00
O71    O     0.20474   0.46278   0.24450   0.00000  Uiso   1.00
C72    C     0.28189   0.45032   0.28540   0.00000  Uiso   1.00
C73    C     0.62905   0.31683   0.66129   0.00000  Uiso   1.00
C74    C     0.63229   0.34532   0.68648   0.00000  Uiso   1.00
C75    C     0.59977   0.29390   0.66936   0.00000  Uiso   1.00
C76    C     0.58106   0.30537   0.70069   0.00000  Uiso   1.00
S77    S     0.59951   0.34450   0.72020   0.00000  Uiso   1.00
H78    H     0.59270   0.26971   0.65370   0.00000  Uiso   1.00
O79    O     0.75253   0.03598   0.70184   0.00000  Uiso   1.00
O80    O     0.70474   0.03722   0.75550   0.00000  Uiso   1.00
C81    C     0.78189   0.04968   0.71460   0.00000  Uiso   1.00
C82    C     0.62905   0.81683   0.16129   0.00000  Uiso   1.00
C83    C     0.63229   0.84532   0.18648   0.00000  Uiso   1.00
C84    C     0.59977   0.79390   0.16936   0.00000  Uiso   1.00
C85    C     0.58106   0.80537   0.20069   0.00000  Uiso   1.00
S86    S     0.59951   0.84450   0.22020   0.00000  Uiso   1.00
H87    H     0.59270   0.76971   0.15370   0.00000  Uiso   1.00
O88    O     0.75253   0.53598   0.20184   0.00000  Uiso   1.00
O89    O     0.70474   0.53722   0.25550   0.00000  Uiso   1.00
C90    C     0.78189   0.54968   0.21460   0.00000  Uiso   1.00
C91    C     0.12905   0.31683   0.16129   0.00000  Uiso   1.00
C92    C     0.13229   0.34532   0.18648   0.00000  Uiso   1.00
C93    C     0.09977   0.29390   0.16936   0.00000  Uiso   1.00
C94    C     0.08106   0.30537   0.20069   0.00000  Uiso   1.00
S95    S     0.09951   0.34450   0.22020   0.00000  Uiso   1.00
H96    H     0.09270   0.26971   0.15370   0.00000  Uiso   1.00
O97    O     0.25253   0.03598   0.20184   0.00000  Uiso   1.00
O98    O     0.20474   0.03722   0.25550   0.00000  Uiso   1.00
C99    C     0.28189   0.04968   0.21460   0.00000  Uiso   1.00
C100   C     0.12905   0.81683   0.66129   0.00000  Uiso   1.00
C101   C     0.13229   0.84532   0.68648   0.00000  Uiso   1.00
C102   C     0.09977   0.79390   0.66936   0.00000  Uiso   1.00
C103   C     0.08106   0.80537   0.70069   0.00000  Uiso   1.00
S104   S     0.09951   0.84450   0.72020   0.00000  Uiso   1.00
H105   H     0.09270   0.76971   0.65370   0.00000  Uiso   1.00
O106   O     0.25253   0.53598   0.70184   0.00000  Uiso   1.00
O107   O     0.20474   0.53722   0.75550   0.00000  Uiso   1.00
C108   C     0.28189   0.54968   0.71460   0.00000  Uiso   1.00
C109   C     0.37095   0.68317   0.66129   0.00000  Uiso   1.00
C110   C     0.36771   0.65468   0.68648   0.00000  Uiso   1.00
C111   C     0.40023   0.70610   0.66936   0.00000  Uiso   1.00
C112   C     0.41894   0.69463   0.70069   0.00000  Uiso   1.00
S113   S     0.40049   0.65550   0.72020   0.00000  Uiso   1.00
H114   H     0.40730   0.73029   0.65370   0.00000  Uiso   1.00
O115   O     0.24747   0.96402   0.70184   0.00000  Uiso   1.00
O116   O     0.29526   0.96278   0.75550   0.00000  Uiso   1.00
C117   C     0.21811   0.95032   0.71460   0.00000  Uiso   1.00
C118   C     0.37095   0.18317   0.16129   0.00000  Uiso   1.00
C119   C     0.36771   0.15468   0.18648   0.00000  Uiso   1.00
C120   C     0.40023   0.20610   0.16936   0.00000  Uiso   1.00
C121   C     0.41894   0.19463   0.20069   0.00000  Uiso   1.00
S122   S     0.40049   0.15550   0.22020   0.00000  Uiso   1.00
H123   H     0.40730   0.23029   0.15370   0.00000  Uiso   1.00
O124   O     0.24747   0.46402   0.20184   0.00000  Uiso   1.00
O125   O     0.29526   0.46278   0.25550   0.00000  Uiso   1.00
C126   C     0.21811   0.45032   0.21460   0.00000  Uiso   1.00
C127   C     0.87095   0.68317   0.16129   0.00000  Uiso   1.00
C128   C     0.86771   0.65468   0.18648   0.00000  Uiso   1.00
C129   C     0.90023   0.70610   0.16936   0.00000  Uiso   1.00
C130   C     0.91894   0.69463   0.20069   0.00000  Uiso   1.00
S131   S     0.90049   0.65550   0.22020   0.00000  Uiso   1.00
H132   H     0.90730   0.73029   0.15370   0.00000  Uiso   1.00
O133   O     0.74747   0.96402   0.20184   0.00000  Uiso   1.00
O134   O     0.79526   0.96278   0.25550   0.00000  Uiso   1.00
C135   C     0.71811   0.95032   0.21460   0.00000  Uiso   1.00
C136   C     0.87095   0.18317   0.66129   0.00000  Uiso   1.00
C137   C     0.86771   0.15468   0.68648   0.00000  Uiso   1.00
C138   C     0.90023   0.20610   0.66936   0.00000  Uiso   1.00
C139   C     0.91894   0.19463   0.70069   0.00000  Uiso   1.00
S140   S     0.90049   0.15550   0.72020   0.00000  Uiso   1.00
H141   H     0.90730   0.23029   0.65370   0.00000  Uiso   1.00
O142   O     0.74747   0.46402   0.70184   0.00000  Uiso   1.00
O143   O     0.79526   0.46278   0.75550   0.00000  Uiso   1.00
C144   C     0.71811   0.45032   0.71460   0.00000  Uiso   1.00
C145   C     0.33871   0.37095   0.31683   0.00000  Uiso   1.00
C146   C     0.31352   0.36771   0.34532   0.00000  Uiso   1.00
C147   C     0.33064   0.40023   0.29390   0.00000  Uiso   1.00
C148   C     0.29931   0.41894   0.30537   0.00000  Uiso   1.00
S149   S     0.27980   0.40049   0.34450   0.00000  Uiso   1.00
H150   H     0.34630   0.40730   0.26971   0.00000  Uiso   1.00
O151   O     0.29816   0.24747   0.03598   0.00000  Uiso   1.00
O152   O     0.24450   0.29526   0.03722   0.00000  Uiso   1.00
C153   C     0.28540   0.21811   0.04968   0.00000  Uiso   1.00
C154   C     0.33871   0.87095   0.81683   0.00000  Uiso   1.00
C155   C     0.31352   0.86771   0.84532   0.00000  Uiso   1.00
C156   C     0.33064   0.90023   0.79390   0.00000  Uiso   1.00
C157   C     0.29931   0.91894   0.80537   0.00000  Uiso   1.00
S158   S     0.27980   0.90049   0.84450   0.00000  Uiso   1.00
H159   H     0.34630   0.90730   0.76971   0.00000  Uiso   1.00
O160   O     0.29816   0.74747   0.53598   0.00000  Uiso   1.00
O161   O     0.24450   0.79526   0.53722   0.00000  Uiso   1.00
C162   C     0.28540   0.71811   0.54968   0.00000  Uiso   1.00
C163   C     0.83871   0.37095   0.81683   0.00000  Uiso   1.00
C164   C     0.81352   0.36771   0.84532   0.00000  Uiso   1.00
C165   C     0.83064   0.40023   0.79390   0.00000  Uiso   1.00
C166   C     0.79931   0.41894   0.80537   0.00000  Uiso   1.00
S167   S     0.77980   0.40049   0.84450   0.00000  Uiso   1.00
H168   H     0.84630   0.40730   0.76971   0.00000  Uiso   1.00
O169   O     0.79816   0.24747   0.53598   0.00000  Uiso   1.00
O170   O     0.74450   0.29526   0.53722   0.00000  Uiso   1.00
C171   C     0.78540   0.21811   0.54968   0.00000  Uiso   1.00
C172   C     0.83871   0.87095   0.31683   0.00000  Uiso   1.00
C173   C     0.81352   0.86771   0.34532   0.00000  Uiso   1.00
C174   C     0.83064   0.90023   0.29390   0.00000  Uiso   1.00
C175   C     0.79931   0.91894   0.30537   0.00000  Uiso   1.00
S176   S     0.77980   0.90049   0.34450   0.00000  Uiso   1.00
H177   H     0.84630   0.90730   0.26971   0.00000  Uiso   1.00
O178   O     0.79816   0.74747   0.03598   0.00000  Uiso   1.00
O179   O     0.74450   0.79526   0.03722   0.00000  Uiso   1.00
C180   C     0.78540   0.71811   0.04968   0.00000  Uiso   1.00
C181   C     0.33871   0.62905   0.68317   0.00000  Uiso   1.00
C182   C     0.31352   0.63229   0.65468   0.00000  Uiso   1.00
C183   C     0.33064   0.59977   0.70610   0.00000  Uiso   1.00
C184   C     0.29931   0.58106   0.69463   0.00000  Uiso   1.00
S185   S     0.27980   0.59951   0.65550   0.00000  Uiso   1.00
H186   H     0.34630   0.59270   0.73029   0.00000  Uiso   1.00
O187   O     0.29816   0.75253   0.96402   0.00000  Uiso   1.00
O188   O     0.24450   0.70474   0.96278   0.00000  Uiso   1.00
C189   C     0.28540   0.78189   0.95032   0.00000  Uiso   1.00
C190   C     0.33871   0.12905   0.18317   0.00000  Uiso   1.00
C191   C     0.31352   0.13229   0.15468   0.00000  Uiso   1.00
C192   C     0.33064   0.09977   0.20610   0.00000  Uiso   1.00
C193   C     0.29931   0.08106   0.19463   0.00000  Uiso   1.00
S194   S     0.27980   0.09951   0.15550   0.00000  Uiso   1.00
H195   H     0.34630   0.09270   0.23029   0.00000  Uiso   1.00
O196   O     0.29816   0.25253   0.46402   0.00000  Uiso   1.00
O197   O     0.24450   0.20474   0.46278   0.00000  Uiso   1.00
C198   C     0.28540   0.28189   0.45032   0.00000  Uiso   1.00
C199   C     0.83871   0.62905   0.18317   0.00000  Uiso   1.00
C200   C     0.81352   0.63229   0.15468   0.00000  Uiso   1.00
C201   C     0.83064   0.59977   0.20610   0.00000  Uiso   1.00
C202   C     0.79931   0.58106   0.19463   0.00000  Uiso   1.00
S203   S     0.77980   0.59951   0.15550   0.00000  Uiso   1.00
H204   H     0.84630   0.59270   0.23029   0.00000  Uiso   1.00
O205   O     0.79816   0.75253   0.46402   0.00000  Uiso   1.00
O206   O     0.74450   0.70474   0.46278   0.00000  Uiso   1.00
C207   C     0.78540   0.78189   0.45032   0.00000  Uiso   1.00
C208   C     0.83871   0.12905   0.68317   0.00000  Uiso   1.00
C209   C     0.81352   0.13229   0.65468   0.00000  Uiso   1.00
C210   C     0.83064   0.09977   0.70610   0.00000  Uiso   1.00
C211   C     0.79931   0.08106   0.69463   0.00000  Uiso   1.00
S212   S     0.77980   0.09951   0.65550   0.00000  Uiso   1.00
H213   H     0.84630   0.09270   0.73029   0.00000  Uiso   1.00
O214   O     0.79816   0.25253   0.96402   0.00000  Uiso   1.00
O215   O     0.74450   0.20474   0.96278   0.00000  Uiso   1.00
C216   C     0.78540   0.28189   0.95032   0.00000  Uiso   1.00
C217   C     0.66129   0.62905   0.31683   0.00000  Uiso   1.00
C218   C     0.68648   0.63229   0.34532   0.00000  Uiso   1.00
C219   C     0.66936   0.59977   0.29390   0.00000  Uiso   1.00
C220   C     0.70069   0.58106   0.30537   0.00000  Uiso   1.00
S221   S     0.72020   0.59951   0.34450   0.00000  Uiso   1.00
H222   H     0.65370   0.59270   0.26971   0.00000  Uiso   1.00
O223   O     0.70184   0.75253   0.03598   0.00000  Uiso   1.00
O224   O     0.75550   0.70474   0.03722   0.00000  Uiso   1.00
C225   C     0.71460   0.78189   0.04968   0.00000  Uiso   1.00
C226   C     0.66129   0.12905   0.81683   0.00000  Uiso   1.00
C227   C     0.68648   0.13229   0.84532   0.00000  Uiso   1.00
C228   C     0.66936   0.09977   0.79390   0.00000  Uiso   1.00
C229   C     0.70069   0.08106   0.80537   0.00000  Uiso   1.00
S230   S     0.72020   0.09951   0.84450   0.00000  Uiso   1.00
H231   H     0.65370   0.09270   0.76971   0.00000  Uiso   1.00
O232   O     0.70184   0.25253   0.53598   0.00000  Uiso   1.00
O233   O     0.75550   0.20474   0.53722   0.00000  Uiso   1.00
C234   C     0.71460   0.28189   0.54968   0.00000  Uiso   1.00
C235   C     0.16129   0.62905   0.81683   0.00000  Uiso   1.00
C236   C     0.18648   0.63229   0.84532   0.00000  Uiso   1.00
C237   C     0.16936   0.59977   0.79390   0.00000  Uiso   1.00
C238   C     0.20069   0.58106   0.80537   0.00000  Uiso   1.00
S239   S     0.22020   0.59951   0.84450   0.00000  Uiso   1.00
H240   H     0.15370   0.59270   0.76971   0.00000  Uiso   1.00
O241   O     0.20184   0.75253   0.53598   0.00000  Uiso   1.00
O242   O     0.25550   0.70474   0.53722   0.00000  Uiso   1.00
C243   C     0.21460   0.78189   0.54968   0.00000  Uiso   1.00
C244   C     0.16129   0.12905   0.31683   0.00000  Uiso   1.00
C245   C     0.18648   0.13229   0.34532   0.00000  Uiso   1.00
C246   C     0.16936   0.09977   0.29390   0.00000  Uiso   1.00
C247   C     0.20069   0.08106   0.30537   0.00000  Uiso   1.00
S248   S     0.22020   0.09951   0.34450   0.00000  Uiso   1.00
H249   H     0.15370   0.09270   0.26971   0.00000  Uiso   1.00
O250   O     0.20184   0.25253   0.03598   0.00000  Uiso   1.00
O251   O     0.25550   0.20474   0.03722   0.00000  Uiso   1.00
C252   C     0.21460   0.28189   0.04968   0.00000  Uiso   1.00
C253   C     0.66129   0.37095   0.68317   0.00000  Uiso   1.00
C254   C     0.68648   0.36771   0.65468   0.00000  Uiso   1.00
C255   C     0.66936   0.40023   0.70610   0.00000  Uiso   1.00
C256   C     0.70069   0.41894   0.69463   0.00000  Uiso   1.00
S257   S     0.72020   0.40049   0.65550   0.00000  Uiso   1.00
H258   H     0.65370   0.40730   0.73029   0.00000  Uiso   1.00
O259   O     0.70184   0.24747   0.96402   0.00000  Uiso   1.00
O260   O     0.75550   0.29526   0.96278   0.00000  Uiso   1.00
C261   C     0.71460   0.21811   0.95032   0.00000  Uiso   1.00
C262   C     0.66129   0.87095   0.18317   0.00000  Uiso   1.00
C263   C     0.68648   0.86771   0.15468   0.00000  Uiso   1.00
C264   C     0.66936   0.90023   0.20610   0.00000  Uiso   1.00
C265   C     0.70069   0.91894   0.19463   0.00000  Uiso   1.00
S266   S     0.72020   0.90049   0.15550   0.00000  Uiso   1.00
H267   H     0.65370   0.90730   0.23029   0.00000  Uiso   1.00
O268   O     0.70184   0.74747   0.46402   0.00000  Uiso   1.00
O269   O     0.75550   0.79526   0.46278   0.00000  Uiso   1.00
C270   C     0.71460   0.71811   0.45032   0.00000  Uiso   1.00
C271   C     0.16129   0.37095   0.18317   0.00000  Uiso   1.00
C272   C     0.18648   0.36771   0.15468   0.00000  Uiso   1.00
C273   C     0.16936   0.40023   0.20610   0.00000  Uiso   1.00
C274   C     0.20069   0.41894   0.19463   0.00000  Uiso   1.00
S275   S     0.22020   0.40049   0.15550   0.00000  Uiso   1.00
H276   H     0.15370   0.40730   0.23029   0.00000  Uiso   1.00
O277   O     0.20184   0.24747   0.46402   0.00000  Uiso   1.00
O278   O     0.25550   0.29526   0.46278   0.00000  Uiso   1.00
C279   C     0.21460   0.21811   0.45032   0.00000  Uiso   1.00
C280   C     0.16129   0.87095   0.68317   0.00000  Uiso   1.00
C281   C     0.18648   0.86771   0.65468   0.00000  Uiso   1.00
C282   C     0.16936   0.90023   0.70610   0.00000  Uiso   1.00
C283   C     0.20069   0.91894   0.69463   0.00000  Uiso   1.00
S284   S     0.22020   0.90049   0.65550   0.00000  Uiso   1.00
H285   H     0.15370   0.90730   0.73029   0.00000  Uiso   1.00
O286   O     0.20184   0.74747   0.96402   0.00000  Uiso   1.00
O287   O     0.25550   0.79526   0.96278   0.00000  Uiso   1.00
C288   C     0.21460   0.71811   0.95032   0.00000  Uiso   1.00
C289   C     0.31683   0.33871   0.37095   0.00000  Uiso   1.00
C290   C     0.34532   0.31352   0.36771   0.00000  Uiso   1.00
C291   C     0.29390   0.33064   0.40023   0.00000  Uiso   1.00
C292   C     0.30537   0.29931   0.41894   0.00000  Uiso   1.00
S293   S     0.34450   0.27980   0.40049   0.00000  Uiso   1.00
H294   H     0.26971   0.34630   0.40730   0.00000  Uiso   1.00
O295   O     0.03598   0.29816   0.24747   0.00000  Uiso   1.00
O296   O     0.03722   0.24450   0.29526   0.00000  Uiso   1.00
C297   C     0.04968   0.28540   0.21811   0.00000  Uiso   1.00
C298   C     0.31683   0.83871   0.87095   0.00000  Uiso   1.00
C299   C     0.34532   0.81352   0.86771   0.00000  Uiso   1.00
C300   C     0.29390   0.83064   0.90023   0.00000  Uiso   1.00
C301   C     0.30537   0.79931   0.91894   0.00000  Uiso   1.00
S302   S     0.34450   0.77980   0.90049   0.00000  Uiso   1.00
H303   H     0.26971   0.84630   0.90730   0.00000  Uiso   1.00
O304   O     0.03598   0.79816   0.74747   0.00000  Uiso   1.00
O305   O     0.03722   0.74450   0.79526   0.00000  Uiso   1.00
C306   C     0.04968   0.78540   0.71811   0.00000  Uiso   1.00
C307   C     0.81683   0.33871   0.87095   0.00000  Uiso   1.00
C308   C     0.84532   0.31352   0.86771   0.00000  Uiso   1.00
C309   C     0.79390   0.33064   0.90023   0.00000  Uiso   1.00
C310   C     0.80537   0.29931   0.91894   0.00000  Uiso   1.00
S311   S     0.84450   0.27980   0.90049   0.00000  Uiso   1.00
H312   H     0.76971   0.34630   0.90730   0.00000  Uiso   1.00
O313   O     0.53598   0.29816   0.74747   0.00000  Uiso   1.00
O314   O     0.53722   0.24450   0.79526   0.00000  Uiso   1.00
C315   C     0.54968   0.28540   0.71811   0.00000  Uiso   1.00
C316   C     0.81683   0.83871   0.37095   0.00000  Uiso   1.00
C317   C     0.84532   0.81352   0.36771   0.00000  Uiso   1.00
C318   C     0.79390   0.83064   0.40023   0.00000  Uiso   1.00
C319   C     0.80537   0.79931   0.41894   0.00000  Uiso   1.00
S320   S     0.84450   0.77980   0.40049   0.00000  Uiso   1.00
H321   H     0.76971   0.84630   0.40730   0.00000  Uiso   1.00
O322   O     0.53598   0.79816   0.24747   0.00000  Uiso   1.00
O323   O     0.53722   0.74450   0.29526   0.00000  Uiso   1.00
C324   C     0.54968   0.78540   0.21811   0.00000  Uiso   1.00
C325   C     0.68317   0.33871   0.62905   0.00000  Uiso   1.00
C326   C     0.65468   0.31352   0.63229   0.00000  Uiso   1.00
C327   C     0.70610   0.33064   0.59977   0.00000  Uiso   1.00
C328   C     0.69463   0.29931   0.58106   0.00000  Uiso   1.00
S329   S     0.65550   0.27980   0.59951   0.00000  Uiso   1.00
H330   H     0.73029   0.34630   0.59270   0.00000  Uiso   1.00
O331   O     0.96402   0.29816   0.75253   0.00000  Uiso   1.00
O332   O     0.96278   0.24450   0.70474   0.00000  Uiso   1.00
C333   C     0.95032   0.28540   0.78189   0.00000  Uiso   1.00
C334   C     0.68317   0.83871   0.12905   0.00000  Uiso   1.00
C335   C     0.65468   0.81352   0.13229   0.00000  Uiso   1.00
C336   C     0.70610   0.83064   0.09977   0.00000  Uiso   1.00
C337   C     0.69463   0.79931   0.08106   0.00000  Uiso   1.00
S338   S     0.65550   0.77980   0.09951   0.00000  Uiso   1.00
H339   H     0.73029   0.84630   0.09270   0.00000  Uiso   1.00
O340   O     0.96402   0.79816   0.25253   0.00000  Uiso   1.00
O341   O     0.96278   0.74450   0.20474   0.00000  Uiso   1.00
C342   C     0.95032   0.78540   0.28189   0.00000  Uiso   1.00
C343   C     0.18317   0.33871   0.12905   0.00000  Uiso   1.00
C344   C     0.15468   0.31352   0.13229   0.00000  Uiso   1.00
C345   C     0.20610   0.33064   0.09977   0.00000  Uiso   1.00
C346   C     0.19463   0.29931   0.08106   0.00000  Uiso   1.00
S347   S     0.15550   0.27980   0.09951   0.00000  Uiso   1.00
H348   H     0.23029   0.34630   0.09270   0.00000  Uiso   1.00
O349   O     0.46402   0.29816   0.25253   0.00000  Uiso   1.00
O350   O     0.46278   0.24450   0.20474   0.00000  Uiso   1.00
C351   C     0.45032   0.28540   0.28189   0.00000  Uiso   1.00
C352   C     0.18317   0.83871   0.62905   0.00000  Uiso   1.00
C353   C     0.15468   0.81352   0.63229   0.00000  Uiso   1.00
C354   C     0.20610   0.83064   0.59977   0.00000  Uiso   1.00
C355   C     0.19463   0.79931   0.58106   0.00000  Uiso   1.00
S356   S     0.15550   0.77980   0.59951   0.00000  Uiso   1.00
H357   H     0.23029   0.84630   0.59270   0.00000  Uiso   1.00
O358   O     0.46402   0.79816   0.75253   0.00000  Uiso   1.00
O359   O     0.46278   0.74450   0.70474   0.00000  Uiso   1.00
C360   C     0.45032   0.78540   0.78189   0.00000  Uiso   1.00
C361   C     0.31683   0.66129   0.62905   0.00000  Uiso   1.00
C362   C     0.34532   0.68648   0.63229   0.00000  Uiso   1.00
C363   C     0.29390   0.66936   0.59977   0.00000  Uiso   1.00
C364   C     0.30537   0.70069   0.58106   0.00000  Uiso   1.00
S365   S     0.34450   0.72020   0.59951   0.00000  Uiso   1.00
H366   H     0.26971   0.65370   0.59270   0.00000  Uiso   1.00
O367   O     0.03598   0.70184   0.75253   0.00000  Uiso   1.00
O368   O     0.03722   0.75550   0.70474   0.00000  Uiso   1.00
C369   C     0.04968   0.71460   0.78189   0.00000  Uiso   1.00
C370   C     0.31683   0.16129   0.12905   0.00000  Uiso   1.00
C371   C     0.34532   0.18648   0.13229   0.00000  Uiso   1.00
C372   C     0.29390   0.16936   0.09977   0.00000  Uiso   1.00
C373   C     0.30537   0.20069   0.08106   0.00000  Uiso   1.00
S374   S     0.34450   0.22020   0.09951   0.00000  Uiso   1.00
H375   H     0.26971   0.15370   0.09270   0.00000  Uiso   1.00
O376   O     0.03598   0.20184   0.25253   0.00000  Uiso   1.00
O377   O     0.03722   0.25550   0.20474   0.00000  Uiso   1.00
C378   C     0.04968   0.21460   0.28189   0.00000  Uiso   1.00
C379   C     0.81683   0.66129   0.12905   0.00000  Uiso   1.00
C380   C     0.84532   0.68648   0.13229   0.00000  Uiso   1.00
C381   C     0.79390   0.66936   0.09977   0.00000  Uiso   1.00
C382   C     0.80537   0.70069   0.08106   0.00000  Uiso   1.00
S383   S     0.84450   0.72020   0.09951   0.00000  Uiso   1.00
H384   H     0.76971   0.65370   0.09270   0.00000  Uiso   1.00
O385   O     0.53598   0.70184   0.25253   0.00000  Uiso   1.00
O386   O     0.53722   0.75550   0.20474   0.00000  Uiso   1.00
C387   C     0.54968   0.71460   0.28189   0.00000  Uiso   1.00
C388   C     0.81683   0.16129   0.62905   0.00000  Uiso   1.00
C389   C     0.84532   0.18648   0.63229   0.00000  Uiso   1.00
C390   C     0.79390   0.16936   0.59977   0.00000  Uiso   1.00
C391   C     0.80537   0.20069   0.58106   0.00000  Uiso   1.00
S392   S     0.84450   0.22020   0.59951   0.00000  Uiso   1.00
H393   H     0.76971   0.15370   0.59270   0.00000  Uiso   1.00
O394   O     0.53598   0.20184   0.75253   0.00000  Uiso   1.00
O395   O     0.53722   0.25550   0.70474   0.00000  Uiso   1.00
C396   C     0.54968   0.21460   0.78189   0.00000  Uiso   1.00
C397   C     0.68317   0.66129   0.37095   0.00000  Uiso   1.00
C398   C     0.65468   0.68648   0.36771   0.00000  Uiso   1.00
C399   C     0.70610   0.66936   0.40023   0.00000  Uiso   1.00
C400   C     0.69463   0.70069   0.41894   0.00000  Uiso   1.00
S401   S     0.65550   0.72020   0.40049   0.00000  Uiso   1.00
H402   H     0.73029   0.65370   0.40730   0.00000  Uiso   1.00
O403   O     0.96402   0.70184   0.24747   0.00000  Uiso   1.00
O404   O     0.96278   0.75550   0.29526   0.00000  Uiso   1.00
C405   C     0.95032   0.71460   0.21811   0.00000  Uiso   1.00
C406   C     0.68317   0.16129   0.87095   0.00000  Uiso   1.00
C407   C     0.65468   0.18648   0.86771   0.00000  Uiso   1.00
C408   C     0.70610   0.16936   0.90023   0.00000  Uiso   1.00
C409   C     0.69463   0.20069   0.91894   0.00000  Uiso   1.00
S410   S     0.65550   0.22020   0.90049   0.00000  Uiso   1.00
H411   H     0.73029   0.15370   0.90730   0.00000  Uiso   1.00
O412   O     0.96402   0.20184   0.74747   0.00000  Uiso   1.00
O413   O     0.96278   0.25550   0.79526   0.00000  Uiso   1.00
C414   C     0.95032   0.21460   0.71811   0.00000  Uiso   1.00
C415   C     0.18317   0.66129   0.87095   0.00000  Uiso   1.00
C416   C     0.15468   0.68648   0.86771   0.00000  Uiso   1.00
C417   C     0.20610   0.66936   0.90023   0.00000  Uiso   1.00
C418   C     0.19463   0.70069   0.91894   0.00000  Uiso   1.00
S419   S     0.15550   0.72020   0.90049   0.00000  Uiso   1.00
H420   H     0.23029   0.65370   0.90730   0.00000  Uiso   1.00
O421   O     0.46402   0.70184   0.74747   0.00000  Uiso   1.00
O422   O     0.46278   0.75550   0.79526   0.00000  Uiso   1.00
C423   C     0.45032   0.71460   0.71811   0.00000  Uiso   1.00
C424   C     0.18317   0.16129   0.37095   0.00000  Uiso   1.00
C425   C     0.15468   0.18648   0.36771   0.00000  Uiso   1.00
C426   C     0.20610   0.16936   0.40023   0.00000  Uiso   1.00
C427   C     0.19463   0.20069   0.41894   0.00000  Uiso   1.00
S428   S     0.15550   0.22020   0.40049   0.00000  Uiso   1.00
H429   H     0.23029   0.15370   0.40730   0.00000  Uiso   1.00
O430   O     0.46402   0.20184   0.24747   0.00000  Uiso   1.00
O431   O     0.46278   0.25550   0.29526   0.00000  Uiso   1.00
C432   C     0.45032   0.21460   0.21811   0.00000  Uiso   1.00
C433   C     0.31683   0.37095   0.66129   0.00000  Uiso   1.00
C434   C     0.34532   0.36771   0.68648   0.00000  Uiso   1.00
C435   C     0.29390   0.40023   0.66936   0.00000  Uiso   1.00
C436   C     0.30537   0.41894   0.70069   0.00000  Uiso   1.00
S437   S     0.34450   0.40049   0.72020   0.00000  Uiso   1.00
H438   H     0.26971   0.40730   0.65370   0.00000  Uiso   1.00
O439   O     0.03598   0.24747   0.70184   0.00000  Uiso   1.00
O440   O     0.03722   0.29526   0.75550   0.00000  Uiso   1.00
C441   C     0.04968   0.21811   0.71460   0.00000  Uiso   1.00
C442   C     0.31683   0.87095   0.16129   0.00000  Uiso   1.00
C443   C     0.34532   0.86771   0.18648   0.00000  Uiso   1.00
C444   C     0.29390   0.90023   0.16936   0.00000  Uiso   1.00
C445   C     0.30537   0.91894   0.20069   0.00000  Uiso   1.00
S446   S     0.34450   0.90049   0.22020   0.00000  Uiso   1.00
H447   H     0.26971   0.90730   0.15370   0.00000  Uiso   1.00
O448   O     0.03598   0.74747   0.20184   0.00000  Uiso   1.00
O449   O     0.03722   0.79526   0.25550   0.00000  Uiso   1.00
C450   C     0.04968   0.71811   0.21460   0.00000  Uiso   1.00
C451   C     0.81683   0.37095   0.16129   0.00000  Uiso   1.00
C452   C     0.84532   0.36771   0.18648   0.00000  Uiso   1.00
C453   C     0.79390   0.40023   0.16936   0.00000  Uiso   1.00
C454   C     0.80537   0.41894   0.20069   0.00000  Uiso   1.00
S455   S     0.84450   0.40049   0.22020   0.00000  Uiso   1.00
H456   H     0.76971   0.40730   0.15370   0.00000  Uiso   1.00
O457   O     0.53598   0.24747   0.20184   0.00000  Uiso   1.00
O458   O     0.53722   0.29526   0.25550   0.00000  Uiso   1.00
C459   C     0.54968   0.21811   0.21460   0.00000  Uiso   1.00
C460   C     0.81683   0.87095   0.66129   0.00000  Uiso   1.00
C461   C     0.84532   0.86771   0.68648   0.00000  Uiso   1.00
C462   C     0.79390   0.90023   0.66936   0.00000  Uiso   1.00
C463   C     0.80537   0.91894   0.70069   0.00000  Uiso   1.00
S464   S     0.84450   0.90049   0.72020   0.00000  Uiso   1.00
H465   H     0.76971   0.90730   0.65370   0.00000  Uiso   1.00
O466   O     0.53598   0.74747   0.70184   0.00000  Uiso   1.00
O467   O     0.53722   0.79526   0.75550   0.00000  Uiso   1.00
C468   C     0.54968   0.71811   0.71460   0.00000  Uiso   1.00
C469   C     0.68317   0.62905   0.66129   0.00000  Uiso   1.00
C470   C     0.65468   0.63229   0.68648   0.00000  Uiso   1.00
C471   C     0.70610   0.59977   0.66936   0.00000  Uiso   1.00
C472   C     0.69463   0.58106   0.70069   0.00000  Uiso   1.00
S473   S     0.65550   0.59951   0.72020   0.00000  Uiso   1.00
H474   H     0.73029   0.59270   0.65370   0.00000  Uiso   1.00
O475   O     0.96402   0.75253   0.70184   0.00000  Uiso   1.00
O476   O     0.96278   0.70474   0.75550   0.00000  Uiso   1.00
C477   C     0.95032   0.78189   0.71460   0.00000  Uiso   1.00
C478   C     0.68317   0.12905   0.16129   0.00000  Uiso   1.00
C479   C     0.65468   0.13229   0.18648   0.00000  Uiso   1.00
C480   C     0.70610   0.09977   0.16936   0.00000  Uiso   1.00
C481   C     0.69463   0.08106   0.20069   0.00000  Uiso   1.00
S482   S     0.65550   0.09951   0.22020   0.00000  Uiso   1.00
H483   H     0.73029   0.09270   0.15370   0.00000  Uiso   1.00
O484   O     0.96402   0.25253   0.20184   0.00000  Uiso   1.00
O485   O     0.96278   0.20474   0.25550   0.00000  Uiso   1.00
C486   C     0.95032   0.28189   0.21460   0.00000  Uiso   1.00
C487   C     0.18317   0.62905   0.16129   0.00000  Uiso   1.00
C488   C     0.15468   0.63229   0.18648   0.00000  Uiso   1.00
C489   C     0.20610   0.59977   0.16936   0.00000  Uiso   1.00
C490   C     0.19463   0.58106   0.20069   0.00000  Uiso   1.00
S491   S     0.15550   0.59951   0.22020   0.00000  Uiso   1.00
H492   H     0.23029   0.59270   0.15370   0.00000  Uiso   1.00
O493   O     0.46402   0.75253   0.20184   0.00000  Uiso   1.00
O494   O     0.46278   0.70474   0.25550   0.00000  Uiso   1.00
C495   C     0.45032   0.78189   0.21460   0.00000  Uiso   1.00
C496   C     0.18317   0.12905   0.66129   0.00000  Uiso   1.00
C497   C     0.15468   0.13229   0.68648   0.00000  Uiso   1.00
C498   C     0.20610   0.09977   0.66936   0.00000  Uiso   1.00
C499   C     0.19463   0.08106   0.70069   0.00000  Uiso   1.00
S500   S     0.15550   0.09951   0.72020   0.00000  Uiso   1.00
H501   H     0.23029   0.09270   0.65370   0.00000  Uiso   1.00
O502   O     0.46402   0.25253   0.70184   0.00000  Uiso   1.00
O503   O     0.46278   0.20474   0.75550   0.00000  Uiso   1.00
C504   C     0.45032   0.28189   0.71460   0.00000  Uiso   1.00
C505   C     0.31683   0.62905   0.33871   0.00000  Uiso   1.00
C506   C     0.34532   0.63229   0.31352   0.00000  Uiso   1.00
C507   C     0.29390   0.59977   0.33064   0.00000  Uiso   1.00
C508   C     0.30537   0.58106   0.29931   0.00000  Uiso   1.00
S509   S     0.34450   0.59951   0.27980   0.00000  Uiso   1.00
H510   H     0.26971   0.59270   0.34630   0.00000  Uiso   1.00
O511   O     0.03598   0.75253   0.29816   0.00000  Uiso   1.00
O512   O     0.03722   0.70474   0.24450   0.00000  Uiso   1.00
C513   C     0.04968   0.78189   0.28540   0.00000  Uiso   1.00
C514   C     0.31683   0.12905   0.83871   0.00000  Uiso   1.00
C515   C     0.34532   0.13229   0.81352   0.00000  Uiso   1.00
C516   C     0.29390   0.09977   0.83064   0.00000  Uiso   1.00
C517   C     0.30537   0.08106   0.79931   0.00000  Uiso   1.00
S518   S     0.34450   0.09951   0.77980   0.00000  Uiso   1.00
H519   H     0.26971   0.09270   0.84630   0.00000  Uiso   1.00
O520   O     0.03598   0.25253   0.79816   0.00000  Uiso   1.00
O521   O     0.03722   0.20474   0.74450   0.00000  Uiso   1.00
C522   C     0.04968   0.28189   0.78540   0.00000  Uiso   1.00
C523   C     0.81683   0.62905   0.83871   0.00000  Uiso   1.00
C524   C     0.84532   0.63229   0.81352   0.00000  Uiso   1.00
C525   C     0.79390   0.59977   0.83064   0.00000  Uiso   1.00
C526   C     0.80537   0.58106   0.79931   0.00000  Uiso   1.00
S527   S     0.84450   0.59951   0.77980   0.00000  Uiso   1.00
H528   H     0.76971   0.59270   0.84630   0.00000  Uiso   1.00
O529   O     0.53598   0.75253   0.79816   0.00000  Uiso   1.00
O530   O     0.53722   0.70474   0.74450   0.00000  Uiso   1.00
C531   C     0.54968   0.78189   0.78540   0.00000  Uiso   1.00
C532   C     0.81683   0.12905   0.33871   0.00000  Uiso   1.00
C533   C     0.84532   0.13229   0.31352   0.00000  Uiso   1.00
C534   C     0.79390   0.09977   0.33064   0.00000  Uiso   1.00
C535   C     0.80537   0.08106   0.29931   0.00000  Uiso   1.00
S536   S     0.84450   0.09951   0.27980   0.00000  Uiso   1.00
H537   H     0.76971   0.09270   0.34630   0.00000  Uiso   1.00
O538   O     0.53598   0.25253   0.29816   0.00000  Uiso   1.00
O539   O     0.53722   0.20474   0.24450   0.00000  Uiso   1.00
C540   C     0.54968   0.28189   0.28540   0.00000  Uiso   1.00
C541   C     0.68317   0.37095   0.33871   0.00000  Uiso   1.00
C542   C     0.65468   0.36771   0.31352   0.00000  Uiso   1.00
C543   C     0.70610   0.40023   0.33064   0.00000  Uiso   1.00
C544   C     0.69463   0.41894   0.29931   0.00000  Uiso   1.00
S545   S     0.65550   0.40049   0.27980   0.00000  Uiso   1.00
H546   H     0.73029   0.40730   0.34630   0.00000  Uiso   1.00
O547   O     0.96402   0.24747   0.29816   0.00000  Uiso   1.00
O548   O     0.96278   0.29526   0.24450   0.00000  Uiso   1.00
C549   C     0.95032   0.21811   0.28540   0.00000  Uiso   1.00
C550   C     0.68317   0.87095   0.83871   0.00000  Uiso   1.00
C551   C     0.65468   0.86771   0.81352   0.00000  Uiso   1.00
C552   C     0.70610   0.90023   0.83064   0.00000  Uiso   1.00
C553   C     0.69463   0.91894   0.79931   0.00000  Uiso   1.00
S554   S     0.65550   0.90049   0.77980   0.00000  Uiso   1.00
H555   H     0.73029   0.90730   0.84630   0.00000  Uiso   1.00
O556   O     0.96402   0.74747   0.79816   0.00000  Uiso   1.00
O557   O     0.96278   0.79526   0.74450   0.00000  Uiso   1.00
C558   C     0.95032   0.71811   0.78540   0.00000  Uiso   1.00
C559   C     0.18317   0.37095   0.83871   0.00000  Uiso   1.00
C560   C     0.15468   0.36771   0.81352   0.00000  Uiso   1.00
C561   C     0.20610   0.40023   0.83064   0.00000  Uiso   1.00
C562   C     0.19463   0.41894   0.79931   0.00000  Uiso   1.00
S563   S     0.15550   0.40049   0.77980   0.00000  Uiso   1.00
H564   H     0.23029   0.40730   0.84630   0.00000  Uiso   1.00
O565   O     0.46402   0.24747   0.79816   0.00000  Uiso   1.00
O566   O     0.46278   0.29526   0.74450   0.00000  Uiso   1.00
C567   C     0.45032   0.21811   0.78540   0.00000  Uiso   1.00
C568   C     0.18317   0.87095   0.33871   0.00000  Uiso   1.00
C569   C     0.15468   0.86771   0.31352   0.00000  Uiso   1.00
C570   C     0.20610   0.90023   0.33064   0.00000  Uiso   1.00
C571   C     0.19463   0.91894   0.29931   0.00000  Uiso   1.00
S572   S     0.15550   0.90049   0.27980   0.00000  Uiso   1.00
H573   H     0.23029   0.90730   0.34630   0.00000  Uiso   1.00
O574   O     0.46402   0.74747   0.29816   0.00000  Uiso   1.00
O575   O     0.46278   0.79526   0.24450   0.00000  Uiso   1.00
C576   C     0.45032   0.71811   0.28540   0.00000  Uiso   1.00
C577   C     0.37095   0.33871   0.68317   0.00000  Uiso   1.00
C578   C     0.36771   0.31352   0.65468   0.00000  Uiso   1.00
C579   C     0.40023   0.33064   0.70610   0.00000  Uiso   1.00
C580   C     0.41894   0.29931   0.69463   0.00000  Uiso   1.00
S581   S     0.40049   0.27980   0.65550   0.00000  Uiso   1.00
H582   H     0.40730   0.34630   0.73029   0.00000  Uiso   1.00
O583   O     0.24747   0.29816   0.96402   0.00000  Uiso   1.00
O584   O     0.29526   0.24450   0.96278   0.00000  Uiso   1.00
C585   C     0.21811   0.28540   0.95032   0.00000  Uiso   1.00
C586   C     0.37095   0.83871   0.18317   0.00000  Uiso   1.00
C587   C     0.36771   0.81352   0.15468   0.00000  Uiso   1.00
C588   C     0.40023   0.83064   0.20610   0.00000  Uiso   1.00
C589   C     0.41894   0.79931   0.19463   0.00000  Uiso   1.00
S590   S     0.40049   0.77980   0.15550   0.00000  Uiso   1.00
H591   H     0.40730   0.84630   0.23029   0.00000  Uiso   1.00
O592   O     0.24747   0.79816   0.46402   0.00000  Uiso   1.00
O593   O     0.29526   0.74450   0.46278   0.00000  Uiso   1.00
C594   C     0.21811   0.78540   0.45032   0.00000  Uiso   1.00
C595   C     0.87095   0.33871   0.18317   0.00000  Uiso   1.00
C596   C     0.86771   0.31352   0.15468   0.00000  Uiso   1.00
C597   C     0.90023   0.33064   0.20610   0.00000  Uiso   1.00
C598   C     0.91894   0.29931   0.19463   0.00000  Uiso   1.00
S599   S     0.90049   0.27980   0.15550   0.00000  Uiso   1.00
H600   H     0.90730   0.34630   0.23029   0.00000  Uiso   1.00
O601   O     0.74747   0.29816   0.46402   0.00000  Uiso   1.00
O602   O     0.79526   0.24450   0.46278   0.00000  Uiso   1.00
C603   C     0.71811   0.28540   0.45032   0.00000  Uiso   1.00
C604   C     0.87095   0.83871   0.68317   0.00000  Uiso   1.00
C605   C     0.86771   0.81352   0.65468   0.00000  Uiso   1.00
C606   C     0.90023   0.83064   0.70610   0.00000  Uiso   1.00
C607   C     0.91894   0.79931   0.69463   0.00000  Uiso   1.00
S608   S     0.90049   0.77980   0.65550   0.00000  Uiso   1.00
H609   H     0.90730   0.84630   0.73029   0.00000  Uiso   1.00
O610   O     0.74747   0.79816   0.96402   0.00000  Uiso   1.00
O611   O     0.79526   0.74450   0.96278   0.00000  Uiso   1.00
C612   C     0.71811   0.78540   0.95032   0.00000  Uiso   1.00
C613   C     0.62905   0.33871   0.31683   0.00000  Uiso   1.00
C614   C     0.63229   0.31352   0.34532   0.00000  Uiso   1.00
C615   C     0.59977   0.33064   0.29390   0.00000  Uiso   1.00
C616   C     0.58106   0.29931   0.30537   0.00000  Uiso   1.00
S617   S     0.59951   0.27980   0.34450   0.00000  Uiso   1.00
H618   H     0.59270   0.34630   0.26971   0.00000  Uiso   1.00
O619   O     0.75253   0.29816   0.03598   0.00000  Uiso   1.00
O620   O     0.70474   0.24450   0.03722   0.00000  Uiso   1.00
C621   C     0.78189   0.28540   0.04968   0.00000  Uiso   1.00
C622   C     0.62905   0.83871   0.81683   0.00000  Uiso   1.00
C623   C     0.63229   0.81352   0.84532   0.00000  Uiso   1.00
C624   C     0.59977   0.83064   0.79390   0.00000  Uiso   1.00
C625   C     0.58106   0.79931   0.80537   0.00000  Uiso   1.00
S626   S     0.59951   0.77980   0.84450   0.00000  Uiso   1.00
H627   H     0.59270   0.84630   0.76971   0.00000  Uiso   1.00
O628   O     0.75253   0.79816   0.53598   0.00000  Uiso   1.00
O629   O     0.70474   0.74450   0.53722   0.00000  Uiso   1.00
C630   C     0.78189   0.78540   0.54968   0.00000  Uiso   1.00
C631   C     0.12905   0.33871   0.81683   0.00000  Uiso   1.00
C632   C     0.13229   0.31352   0.84532   0.00000  Uiso   1.00
C633   C     0.09977   0.33064   0.79390   0.00000  Uiso   1.00
C634   C     0.08106   0.29931   0.80537   0.00000  Uiso   1.00
S635   S     0.09951   0.27980   0.84450   0.00000  Uiso   1.00
H636   H     0.09270   0.34630   0.76971   0.00000  Uiso   1.00
O637   O     0.25253   0.29816   0.53598   0.00000  Uiso   1.00
O638   O     0.20474   0.24450   0.53722   0.00000  Uiso   1.00
C639   C     0.28189   0.28540   0.54968   0.00000  Uiso   1.00
C640   C     0.12905   0.83871   0.31683   0.00000  Uiso   1.00
C641   C     0.13229   0.81352   0.34532   0.00000  Uiso   1.00
C642   C     0.09977   0.83064   0.29390   0.00000  Uiso   1.00
C643   C     0.08106   0.79931   0.30537   0.00000  Uiso   1.00
S644   S     0.09951   0.77980   0.34450   0.00000  Uiso   1.00
H645   H     0.09270   0.84630   0.26971   0.00000  Uiso   1.00
O646   O     0.25253   0.79816   0.03598   0.00000  Uiso   1.00
O647   O     0.20474   0.74450   0.03722   0.00000  Uiso   1.00
C648   C     0.28189   0.78540   0.04968   0.00000  Uiso   1.00
C649   C     0.62905   0.66129   0.68317   0.00000  Uiso   1.00
C650   C     0.63229   0.68648   0.65468   0.00000  Uiso   1.00
C651   C     0.59977   0.66936   0.70610   0.00000  Uiso   1.00
C652   C     0.58106   0.70069   0.69463   0.00000  Uiso   1.00
S653   S     0.59951   0.72020   0.65550   0.00000  Uiso   1.00
H654   H     0.59270   0.65370   0.73029   0.00000  Uiso   1.00
O655   O     0.75253   0.70184   0.96402   0.00000  Uiso   1.00
O656   O     0.70474   0.75550   0.96278   0.00000  Uiso   1.00
C657   C     0.78189   0.71460   0.95032   0.00000  Uiso   1.00
C658   C     0.62905   0.16129   0.18317   0.00000  Uiso   1.00
C659   C     0.63229   0.18648   0.15468   0.00000  Uiso   1.00
C660   C     0.59977   0.16936   0.20610   0.00000  Uiso   1.00
C661   C     0.58106   0.20069   0.19463   0.00000  Uiso   1.00
S662   S     0.59951   0.22020   0.15550   0.00000  Uiso   1.00
H663   H     0.59270   0.15370   0.23029   0.00000  Uiso   1.00
O664   O     0.75253   0.20184   0.46402   0.00000  Uiso   1.00
O665   O     0.70474   0.25550   0.46278   0.00000  Uiso   1.00
C666   C     0.78189   0.21460   0.45032   0.00000  Uiso   1.00
C667   C     0.12905   0.66129   0.18317   0.00000  Uiso   1.00
C668   C     0.13229   0.68648   0.15468   0.00000  Uiso   1.00
C669   C     0.09977   0.66936   0.20610   0.00000  Uiso   1.00
C670   C     0.08106   0.70069   0.19463   0.00000  Uiso   1.00
S671   S     0.09951   0.72020   0.15550   0.00000  Uiso   1.00
H672   H     0.09270   0.65370   0.23029   0.00000  Uiso   1.00
O673   O     0.25253   0.70184   0.46402   0.00000  Uiso   1.00
O674   O     0.20474   0.75550   0.46278   0.00000  Uiso   1.00
C675   C     0.28189   0.71460   0.45032   0.00000  Uiso   1.00
C676   C     0.12905   0.16129   0.68317   0.00000  Uiso   1.00
C677   C     0.13229   0.18648   0.65468   0.00000  Uiso   1.00
C678   C     0.09977   0.16936   0.70610   0.00000  Uiso   1.00
C679   C     0.08106   0.20069   0.69463   0.00000  Uiso   1.00
S680   S     0.09951   0.22020   0.65550   0.00000  Uiso   1.00
H681   H     0.09270   0.15370   0.73029   0.00000  Uiso   1.00
O682   O     0.25253   0.20184   0.96402   0.00000  Uiso   1.00
O683   O     0.20474   0.25550   0.96278   0.00000  Uiso   1.00
C684   C     0.28189   0.21460   0.95032   0.00000  Uiso   1.00
C685   C     0.37095   0.66129   0.31683   0.00000  Uiso   1.00
C686   C     0.36771   0.68648   0.34532   0.00000  Uiso   1.00
C687   C     0.40023   0.66936   0.29390   0.00000  Uiso   1.00
C688   C     0.41894   0.70069   0.30537   0.00000  Uiso   1.00
S689   S     0.40049   0.72020   0.34450   0.00000  Uiso   1.00
H690   H     0.40730   0.65370   0.26971   0.00000  Uiso   1.00
O691   O     0.24747   0.70184   0.03598   0.00000  Uiso   1.00
O692   O     0.29526   0.75550   0.03722   0.00000  Uiso   1.00
C693   C     0.21811   0.71460   0.04968   0.00000  Uiso   1.00
C694   C     0.37095   0.16129   0.81683   0.00000  Uiso   1.00
C695   C     0.36771   0.18648   0.84532   0.00000  Uiso   1.00
C696   C     0.40023   0.16936   0.79390   0.00000  Uiso   1.00
C697   C     0.41894   0.20069   0.80537   0.00000  Uiso   1.00
S698   S     0.40049   0.22020   0.84450   0.00000  Uiso   1.00
H699   H     0.40730   0.15370   0.76971   0.00000  Uiso   1.00
O700   O     0.24747   0.20184   0.53598   0.00000  Uiso   1.00
O701   O     0.29526   0.25550   0.53722   0.00000  Uiso   1.00
C702   C     0.21811   0.21460   0.54968   0.00000  Uiso   1.00
C703   C     0.87095   0.66129   0.81683   0.00000  Uiso   1.00
C704   C     0.86771   0.68648   0.84532   0.00000  Uiso   1.00
C705   C     0.90023   0.66936   0.79390   0.00000  Uiso   1.00
C706   C     0.91894   0.70069   0.80537   0.00000  Uiso   1.00
S707   S     0.90049   0.72020   0.84450   0.00000  Uiso   1.00
H708   H     0.90730   0.65370   0.76971   0.00000  Uiso   1.00
O709   O     0.74747   0.70184   0.53598   0.00000  Uiso   1.00
O710   O     0.79526   0.75550   0.53722   0.00000  Uiso   1.00
C711   C     0.71811   0.71460   0.54968   0.00000  Uiso   1.00
C712   C     0.87095   0.16129   0.31683   0.00000  Uiso   1.00
C713   C     0.86771   0.18648   0.34532   0.00000  Uiso   1.00
C714   C     0.90023   0.16936   0.29390   0.00000  Uiso   1.00
C715   C     0.91894   0.20069   0.30537   0.00000  Uiso   1.00
S716   S     0.90049   0.22020   0.34450   0.00000  Uiso   1.00
H717   H     0.90730   0.15370   0.26971   0.00000  Uiso   1.00
O718   O     0.74747   0.20184   0.03598   0.00000  Uiso   1.00
O719   O     0.79526   0.25550   0.03722   0.00000  Uiso   1.00
C720   C     0.71811   0.21460   0.04968   0.00000  Uiso   1.00
C721   C     0.33871   0.31683   0.62905   0.00000  Uiso   1.00
C722   C     0.31352   0.34532   0.63229   0.00000  Uiso   1.00
C723   C     0.33064   0.29390   0.59977   0.00000  Uiso   1.00
C724   C     0.29931   0.30537   0.58106   0.00000  Uiso   1.00
S725   S     0.27980   0.34450   0.59951   0.00000  Uiso   1.00
H726   H     0.34630   0.26971   0.59270   0.00000  Uiso   1.00
O727   O     0.29816   0.03598   0.75253   0.00000  Uiso   1.00
O728   O     0.24450   0.03722   0.70474   0.00000  Uiso   1.00
C729   C     0.28540   0.04968   0.78189   0.00000  Uiso   1.00
C730   C     0.33871   0.81683   0.12905   0.00000  Uiso   1.00
C731   C     0.31352   0.84532   0.13229   0.00000  Uiso   1.00
C732   C     0.33064   0.79390   0.09977   0.00000  Uiso   1.00
C733   C     0.29931   0.80537   0.08106   0.00000  Uiso   1.00
S734   S     0.27980   0.84450   0.09951   0.00000  Uiso   1.00
H735   H     0.34630   0.76971   0.09270   0.00000  Uiso   1.00
O736   O     0.29816   0.53598   0.25253   0.00000  Uiso   1.00
O737   O     0.24450   0.53722   0.20474   0.00000  Uiso   1.00
C738   C     0.28540   0.54968   0.28189   0.00000  Uiso   1.00
C739   C     0.83871   0.31683   0.12905   0.00000  Uiso   1.00
C740   C     0.81352   0.34532   0.13229   0.00000  Uiso   1.00
C741   C     0.83064   0.29390   0.09977   0.00000  Uiso   1.00
C742   C     0.79931   0.30537   0.08106   0.00000  Uiso   1.00
S743   S     0.77980   0.34450   0.09951   0.00000  Uiso   1.00
H744   H     0.84630   0.26971   0.09270   0.00000  Uiso   1.00
O745   O     0.79816   0.03598   0.25253   0.00000  Uiso   1.00
O746   O     0.74450   0.03722   0.20474   0.00000  Uiso   1.00
C747   C     0.78540   0.04968   0.28189   0.00000  Uiso   1.00
C748   C     0.83871   0.81683   0.62905   0.00000  Uiso   1.00
C749   C     0.81352   0.84532   0.63229   0.00000  Uiso   1.00
C750   C     0.83064   0.79390   0.59977   0.00000  Uiso   1.00
C751   C     0.79931   0.80537   0.58106   0.00000  Uiso   1.00
S752   S     0.77980   0.84450   0.59951   0.00000  Uiso   1.00
H753   H     0.84630   0.76971   0.59270   0.00000  Uiso   1.00
O754   O     0.79816   0.53598   0.75253   0.00000  Uiso   1.00
O755   O     0.74450   0.53722   0.70474   0.00000  Uiso   1.00
C756   C     0.78540   0.54968   0.78189   0.00000  Uiso   1.00
C757   C     0.33871   0.68317   0.37095   0.00000  Uiso   1.00
C758   C     0.31352   0.65468   0.36771   0.00000  Uiso   1.00
C759   C     0.33064   0.70610   0.40023   0.00000  Uiso   1.00
C760   C     0.29931   0.69463   0.41894   0.00000  Uiso   1.00
S761   S     0.27980   0.65550   0.40049   0.00000  Uiso   1.00
H762   H     0.34630   0.73029   0.40730   0.00000  Uiso   1.00
O763   O     0.29816   0.96402   0.24747   0.00000  Uiso   1.00
O764   O     0.24450   0.96278   0.29526   0.00000  Uiso   1.00
C765   C     0.28540   0.95032   0.21811   0.00000  Uiso   1.00
C766   C     0.33871   0.18317   0.87095   0.00000  Uiso   1.00
C767   C     0.31352   0.15468   0.86771   0.00000  Uiso   1.00
C768   C     0.33064   0.20610   0.90023   0.00000  Uiso   1.00
C769   C     0.29931   0.19463   0.91894   0.00000  Uiso   1.00
S770   S     0.27980   0.15550   0.90049   0.00000  Uiso   1.00
H771   H     0.34630   0.23029   0.90730   0.00000  Uiso   1.00
O772   O     0.29816   0.46402   0.74747   0.00000  Uiso   1.00
O773   O     0.24450   0.46278   0.79526   0.00000  Uiso   1.00
C774   C     0.28540   0.45032   0.71811   0.00000  Uiso   1.00
C775   C     0.83871   0.68317   0.87095   0.00000  Uiso   1.00
C776   C     0.81352   0.65468   0.86771   0.00000  Uiso   1.00
C777   C     0.83064   0.70610   0.90023   0.00000  Uiso   1.00
C778   C     0.79931   0.69463   0.91894   0.00000  Uiso   1.00
S779   S     0.77980   0.65550   0.90049   0.00000  Uiso   1.00
H780   H     0.84630   0.73029   0.90730   0.00000  Uiso   1.00
O781   O     0.79816   0.96402   0.74747   0.00000  Uiso   1.00
O782   O     0.74450   0.96278   0.79526   0.00000  Uiso   1.00
C783   C     0.78540   0.95032   0.71811   0.00000  Uiso   1.00
C784   C     0.83871   0.18317   0.37095   0.00000  Uiso   1.00
C785   C     0.81352   0.15468   0.36771   0.00000  Uiso   1.00
C786   C     0.83064   0.20610   0.40023   0.00000  Uiso   1.00
C787   C     0.79931   0.19463   0.41894   0.00000  Uiso   1.00
S788   S     0.77980   0.15550   0.40049   0.00000  Uiso   1.00
H789   H     0.84630   0.23029   0.40730   0.00000  Uiso   1.00
O790   O     0.79816   0.46402   0.24747   0.00000  Uiso   1.00
O791   O     0.74450   0.46278   0.29526   0.00000  Uiso   1.00
C792   C     0.78540   0.45032   0.21811   0.00000  Uiso   1.00
C793   C     0.66129   0.31683   0.37095   0.00000  Uiso   1.00
C794   C     0.68648   0.34532   0.36771   0.00000  Uiso   1.00
C795   C     0.66936   0.29390   0.40023   0.00000  Uiso   1.00
C796   C     0.70069   0.30537   0.41894   0.00000  Uiso   1.00
S797   S     0.72020   0.34450   0.40049   0.00000  Uiso   1.00
H798   H     0.65370   0.26971   0.40730   0.00000  Uiso   1.00
O799   O     0.70184   0.03598   0.24747   0.00000  Uiso   1.00
O800   O     0.75550   0.03722   0.29526   0.00000  Uiso   1.00
C801   C     0.71460   0.04968   0.21811   0.00000  Uiso   1.00
C802   C     0.66129   0.81683   0.87095   0.00000  Uiso   1.00
C803   C     0.68648   0.84532   0.86771   0.00000  Uiso   1.00
C804   C     0.66936   0.79390   0.90023   0.00000  Uiso   1.00
C805   C     0.70069   0.80537   0.91894   0.00000  Uiso   1.00
S806   S     0.72020   0.84450   0.90049   0.00000  Uiso   1.00
H807   H     0.65370   0.76971   0.90730   0.00000  Uiso   1.00
O808   O     0.70184   0.53598   0.74747   0.00000  Uiso   1.00
O809   O     0.75550   0.53722   0.79526   0.00000  Uiso   1.00
C810   C     0.71460   0.54968   0.71811   0.00000  Uiso   1.00
C811   C     0.16129   0.31683   0.87095   0.00000  Uiso   1.00
C812   C     0.18648   0.34532   0.86771   0.00000  Uiso   1.00
C813   C     0.16936   0.29390   0.90023   0.00000  Uiso   1.00
C814   C     0.20069   0.30537   0.91894   0.00000  Uiso   1.00
S815   S     0.22020   0.34450   0.90049   0.00000  Uiso   1.00
H816   H     0.15370   0.26971   0.90730   0.00000  Uiso   1.00
O817   O     0.20184   0.03598   0.74747   0.00000  Uiso   1.00
O818   O     0.25550   0.03722   0.79526   0.00000  Uiso   1.00
C819   C     0.21460   0.04968   0.71811   0.00000  Uiso   1.00
C820   C     0.16129   0.81683   0.37095   0.00000  Uiso   1.00
C821   C     0.18648   0.84532   0.36771   0.00000  Uiso   1.00
C822   C     0.16936   0.79390   0.40023   0.00000  Uiso   1.00
C823   C     0.20069   0.80537   0.41894   0.00000  Uiso   1.00
S824   S     0.22020   0.84450   0.40049   0.00000  Uiso   1.00
H825   H     0.15370   0.76971   0.40730   0.00000  Uiso   1.00
O826   O     0.20184   0.53598   0.24747   0.00000  Uiso   1.00
O827   O     0.25550   0.53722   0.29526   0.00000  Uiso   1.00
C828   C     0.21460   0.54968   0.21811   0.00000  Uiso   1.00
C829   C     0.66129   0.68317   0.62905   0.00000  Uiso   1.00
C830   C     0.68648   0.65468   0.63229   0.00000  Uiso   1.00
C831   C     0.66936   0.70610   0.59977   0.00000  Uiso   1.00
C832   C     0.70069   0.69463   0.58106   0.00000  Uiso   1.00
S833   S     0.72020   0.65550   0.59951   0.00000  Uiso   1.00
H834   H     0.65370   0.73029   0.59270   0.00000  Uiso   1.00
O835   O     0.70184   0.96402   0.75253   0.00000  Uiso   1.00
O836   O     0.75550   0.96278   0.70474   0.00000  Uiso   1.00
C837   C     0.71460   0.95032   0.78189   0.00000  Uiso   1.00
C838   C     0.66129   0.18317   0.12905   0.00000  Uiso   1.00
C839   C     0.68648   0.15468   0.13229   0.00000  Uiso   1.00
C840   C     0.66936   0.20610   0.09977   0.00000  Uiso   1.00
C841   C     0.70069   0.19463   0.08106   0.00000  Uiso   1.00
S842   S     0.72020   0.15550   0.09951   0.00000  Uiso   1.00
H843   H     0.65370   0.23029   0.09270   0.00000  Uiso   1.00
O844   O     0.70184   0.46402   0.25253   0.00000  Uiso   1.00
O845   O     0.75550   0.46278   0.20474   0.00000  Uiso   1.00
C846   C     0.71460   0.45032   0.28189   0.00000  Uiso   1.00
C847   C     0.16129   0.68317   0.12905   0.00000  Uiso   1.00
C848   C     0.18648   0.65468   0.13229   0.00000  Uiso   1.00
C849   C     0.16936   0.70610   0.09977   0.00000  Uiso   1.00
C850   C     0.20069   0.69463   0.08106   0.00000  Uiso   1.00
S851   S     0.22020   0.65550   0.09951   0.00000  Uiso   1.00
H852   H     0.15370   0.73029   0.09270   0.00000  Uiso   1.00
O853   O     0.20184   0.96402   0.25253   0.00000  Uiso   1.00
O854   O     0.25550   0.96278   0.20474   0.00000  Uiso   1.00
C855   C     0.21460   0.95032   0.28189   0.00000  Uiso   1.00
C856   C     0.16129   0.18317   0.62905   0.00000  Uiso   1.00
C857   C     0.18648   0.15468   0.63229   0.00000  Uiso   1.00
C858   C     0.16936   0.20610   0.59977   0.00000  Uiso   1.00
C859   C     0.20069   0.19463   0.58106   0.00000  Uiso   1.00
S860   S     0.22020   0.15550   0.59951   0.00000  Uiso   1.00
H861   H     0.15370   0.23029   0.59270   0.00000  Uiso   1.00
O862   O     0.20184   0.46402   0.75253   0.00000  Uiso   1.00
O863   O     0.25550   0.46278   0.70474   0.00000  Uiso   1.00
C864   C     0.21460   0.45032   0.78189   0.00000  Uiso   1.00
Cu865  Cu    0.27537   0.00000   0.27537   0.00000  Uiso   1.00
Cu866  Cu    0.27537   0.50000   0.77537   0.00000  Uiso   1.00
Cu867  Cu    0.77537   0.00000   0.77537   0.00000  Uiso   1.00
Cu868  Cu    0.77537   0.50000   0.27537   0.00000  Uiso   1.00
Cu869  Cu    0.72463   0.00000   0.27537   0.00000  Uiso   1.00
Cu870  Cu    0.72463   0.50000   0.77537   0.00000  Uiso   1.00
Cu871  Cu    0.22463   0.00000   0.77537   0.00000  Uiso   1.00
Cu872  Cu    0.22463   0.50000   0.27537   0.00000  Uiso   1.00
Cu873  Cu    0.72463   0.00000   0.72463   0.00000  Uiso   1.00
Cu874  Cu    0.72463   0.50000   0.22463   0.00000  Uiso   1.00
Cu875  Cu    0.22463   0.00000   0.22463   0.00000  Uiso   1.00
Cu876  Cu    0.22463   0.50000   0.72463   0.00000  Uiso   1.00
Cu877  Cu    0.27537   0.00000   0.72463   0.00000  Uiso   1.00
Cu878  Cu    0.27537   0.50000   0.22463   0.00000  Uiso   1.00
Cu879  Cu    0.77537   0.00000   0.22463   0.00000  Uiso   1.00
Cu880  Cu    0.77537   0.50000   0.72463   0.00000  Uiso   1.00
Cu881  Cu    0.27537   0.27537   0.00000   0.00000  Uiso   1.00
Cu882  Cu    0.27537   0.77537   0.50000   0.00000  Uiso   1.00
Cu883  Cu    0.77537   0.27537   0.50000   0.00000  Uiso   1.00
Cu884  Cu    0.77537   0.77537   0.00000   0.00000  Uiso   1.00
Cu885  Cu    0.27537   0.72463   0.00000   0.00000  Uiso   1.00
Cu886  Cu    0.27537   0.22463   0.50000   0.00000  Uiso   1.00
Cu887  Cu    0.77537   0.72463   0.50000   0.00000  Uiso   1.00
Cu888  Cu    0.77537   0.22463   0.00000   0.00000  Uiso   1.00
Cu889  Cu    0.72463   0.72463   0.00000   0.00000  Uiso   1.00
Cu890  Cu    0.72463   0.22463   0.50000   0.00000  Uiso   1.00
Cu891  Cu    0.22463   0.72463   0.50000   0.00000  Uiso   1.00
Cu892  Cu    0.22463   0.22463   0.00000   0.00000  Uiso   1.00
Cu893  Cu    0.72463   0.27537   0.00000   0.00000  Uiso   1.00
Cu894  Cu    0.72463   0.77537   0.50000   0.00000  Uiso   1.00
Cu895  Cu    0.22463   0.27537   0.50000   0.00000  Uiso   1.00
Cu896  Cu    0.22463   0.77537   0.00000   0.00000  Uiso   1.00
Cu897  Cu    0.00000   0.27537   0.27537   0.00000  Uiso   1.00
Cu898  Cu    0.00000   0.77537   0.77537   0.00000  Uiso   1.00
Cu899  Cu    0.50000   0.27537   0.77537   0.00000  Uiso   1.00
Cu900  Cu    0.50000   0.77537   0.27537   0.00000  Uiso   1.00
Cu901  Cu    0.00000   0.27537   0.72463   0.00000  Uiso   1.00
Cu902  Cu    0.00000   0.77537   0.22463   0.00000  Uiso   1.00
Cu903  Cu    0.50000   0.27537   0.22463   0.00000  Uiso   1.00
Cu904  Cu    0.50000   0.77537   0.72463   0.00000  Uiso   1.00
Cu905  Cu    0.00000   0.72463   0.72463   0.00000  Uiso   1.00
Cu906  Cu    0.00000   0.22463   0.22463   0.00000  Uiso   1.00
Cu907  Cu    0.50000   0.72463   0.22463   0.00000  Uiso   1.00
Cu908  Cu    0.50000   0.22463   0.72463   0.00000  Uiso   1.00
Cu909  Cu    0.00000   0.72463   0.27537   0.00000  Uiso   1.00
Cu910  Cu    0.00000   0.22463   0.77537   0.00000  Uiso   1.00
Cu911  Cu    0.50000   0.72463   0.77537   0.00000  Uiso   1.00
Cu912  Cu    0.50000   0.22463   0.27537   0.00000  Uiso   1.00
loop_
_geom_bond_atom_site_label_1
_geom_bond_atom_site_label_2
_geom_bond_distance
_geom_bond_site_symmetry_2
_ccdc_geom_bond_type
C1     C2      1.392   .     A
C1     C290    1.417   .     A
C1     C3      1.388   .     A
C2     C145    1.417   .     A
C2     S5      1.716   .     A
C3     C4      1.395   .     A
C3     H6      1.082   .     S
C4     S5      1.731   .     A
C4     C351    1.498   .     S
O7     Cu865   1.857   .     S
O7     C9      1.270   .     A
O8     Cu865   1.907   .     S
O8     C99     1.278   .     A
C9     O98     1.278   .     A
C9     C247    1.498   .     S
C10    C11     1.392   .     A
C10    C299    1.417   .     A
C10    C12     1.388   .     A
C11    C154    1.417   .     A
C11    S14     1.716   .     A
C12    C13     1.395   .     A
C12    H15     1.082   .     S
C13    S14     1.731   .     A
C13    C360    1.498   .     S
O16    Cu866   1.857   .     S
O16    C18     1.270   .     A
O17    Cu866   1.907   .     S
O17    C108    1.278   .     A
C18    O107    1.278   .     A
C18    C238    1.498   .     S
C19    C20     1.392   .     A
C19    C308    1.417   .     A
C19    C21     1.388   .     A
C20    C163    1.417   .     A
C20    S23     1.716   .     A
C21    C22     1.395   .     A
C21    H24     1.082   .     S
C22    S23     1.731   .     A
C22    C333    1.498   .     S
O25    Cu867   1.857   .     S
O25    C27     1.270   .     A
O26    Cu867   1.907   .     S
O26    C81     1.278   .     A
C27    O80     1.278   .     A
C27    C229    1.498   .     S
C28    C29     1.392   .     A
C28    C317    1.417   .     A
C28    C30     1.388   .     A
C29    C172    1.417   .     A
C29    S32     1.716   .     A
C30    C31     1.395   .     A
C30    H33     1.082   .     S
C31    S32     1.731   .     A
C31    C342    1.498   .     S
O34    Cu868   1.857   .     S
O34    C36     1.270   .     A
O35    Cu868   1.907   .     S
O35    C90     1.278   .     A
C36    O89     1.278   .     A
C36    C220    1.498   .     S
C37    C38     1.392   .     A
C37    C398    1.417   .     A
C37    C39     1.388   .     A
C38    C217    1.417   .     A
C38    S41     1.716   .     A
C39    C40     1.395   .     A
C39    H42     1.082   .     S
C40    S41     1.731   .     A
C40    C387    1.498   .     S
O43    C45     1.270   .     A
O43    Cu869   1.857   1_565 A
O44    C135    1.278   .     A
O44    Cu869   1.907   1_565 A
C45    O134    1.278   .     A
C45    C175    1.498   .     S
C46    C47     1.392   .     A
C46    C407    1.417   .     A
C46    C48     1.388   .     A
C47    C226    1.417   .     A
C47    S50     1.716   .     A
C48    C49     1.395   .     A
C48    H51     1.082   .     S
C49    S50     1.731   .     A
C49    C396    1.498   .     S
O52    Cu870   1.857   .     S
O52    C54     1.270   .     A
O53    Cu870   1.907   .     S
O53    C144    1.278   .     A
C54    O143    1.278   .     A
C54    C166    1.498   .     S
C55    C56     1.392   .     A
C55    C416    1.417   .     A
C55    C57     1.388   .     A
C56    C235    1.417   .     A
C56    S59     1.716   .     A
C57    C58     1.395   .     A
C57    H60     1.082   .     S
C58    S59     1.731   .     A
C58    C369    1.498   .     S
O61    C63     1.270   .     A
O61    Cu871   1.857   1_565 A
O62    C117    1.278   .     A
O62    Cu871   1.907   1_565 A
C63    O116    1.278   .     A
C63    C157    1.498   .     S
C64    C65     1.392   .     A
C64    C425    1.417   .     A
C64    C66     1.388   .     A
C65    C244    1.417   .     A
C65    S68     1.716   .     A
C66    C67     1.395   .     A
C66    H69     1.082   .     S
C67    S68     1.731   .     A
C67    C378    1.498   .     S
O70    Cu872   1.857   .     S
O70    C72     1.270   .     A
O71    Cu872   1.907   .     S
O71    C126    1.278   .     A
C72    O125    1.278   .     A
C72    C148    1.498   .     S
C73    C74     1.392   .     A
C73    C326    1.417   .     A
C73    C75     1.388   .     A
C74    C253    1.417   .     A
C74    S77     1.716   .     A
C75    C76     1.395   .     A
C75    H78     1.082   .     S
C76    S77     1.731   .     A
C76    C315    1.498   .     S
O79    Cu873   1.857   .     S
O79    C81     1.270   .     A
O80    Cu873   1.907   .     S
C81    C211    1.498   .     S
C82    C83     1.392   .     A
C82    C335    1.417   .     A
C82    C84     1.388   .     A
C83    C262    1.417   .     A
C83    S86     1.716   .     A
C84    C85     1.395   .     A
C84    H87     1.082   .     S
C85    S86     1.731   .     A
C85    C324    1.498   .     S
O88    Cu874   1.857   .     S
O88    C90     1.270   .     A
O89    Cu874   1.907   .     S
C90    C202    1.498   .     S
C91    C92     1.392   .     A
C91    C344    1.417   .     A
C91    C93     1.388   .     A
C92    C271    1.417   .     A
C92    S95     1.716   .     A
C93    C94     1.395   .     A
C93    H96     1.082   .     S
C94    S95     1.731   .     A
C94    C297    1.498   .     S
O97    Cu875   1.857   .     S
O97    C99     1.270   .     A
O98    Cu875   1.907   .     S
C99    C193    1.498   .     S
C100   C101    1.392   .     A
C100   C353    1.417   .     A
C100   C102    1.388   .     A
C101   C280    1.417   .     A
C101   S104    1.716   .     A
C102   C103    1.395   .     A
C102   H105    1.082   .     S
C103   S104    1.731   .     A
C103   C306    1.498   .     S
O106   Cu876   1.857   .     S
O106   C108    1.270   .     A
O107   Cu876   1.907   .     S
C108   C184    1.498   .     S
C109   C110    1.392   .     A
C109   C362    1.417   .     A
C109   C111    1.388   .     A
C110   C181    1.417   .     A
C110   S113    1.716   .     A
C111   C112    1.395   .     A
C111   H114    1.082   .     S
C112   S113    1.731   .     A
C112   C423    1.498   .     S
O115   C117    1.270   .     A
O115   Cu877   1.857   1_565 A
O116   Cu877   1.907   1_565 A
C117   C283    1.498   .     S
C118   C119    1.392   .     A
C118   C371    1.417   .     A
C118   C120    1.388   .     A
C119   C190    1.417   .     A
C119   S122    1.716   .     A
C120   C121    1.395   .     A
C120   H123    1.082   .     S
C121   S122    1.731   .     A
C121   C432    1.498   .     S
O124   Cu878   1.857   .     S
O124   C126    1.270   .     A
O125   Cu878   1.907   .     S
C126   C274    1.498   .     S
C127   C128    1.392   .     A
C127   C380    1.417   .     A
C127   C129    1.388   .     A
C128   C199    1.417   .     A
C128   S131    1.716   .     A
C129   C130    1.395   .     A
C129   H132    1.082   .     S
C130   S131    1.731   .     A
C130   C405    1.498   .     S
O133   C135    1.270   .     A
O133   Cu879   1.857   1_565 S
O134   Cu879   1.907   1_565 A
C135   C265    1.498   .     S
C136   C137    1.392   .     A
C136   C389    1.417   .     A
C136   C138    1.388   .     A
C137   C208    1.417   .     A
C137   S140    1.716   .     A
C138   C139    1.395   .     A
C138   H141    1.082   .     S
C139   S140    1.731   .     A
C139   C414    1.498   .     S
O142   Cu880   1.857   .     S
O142   C144    1.270   .     A
O143   Cu880   1.907   .     S
C144   C256    1.498   .     S
C145   C146    1.392   .     A
C145   C147    1.388   .     A
C146   C289    1.417   .     A
C146   S149    1.716   .     A
C147   C148    1.395   .     A
C147   H150    1.082   .     S
C148   S149    1.731   .     A
O151   Cu881   1.857   .     S
O151   C153    1.270   .     A
O152   Cu881   1.907   .     S
O152   C252    1.278   .     A
C153   O251    1.278   .     A
C153   C373    1.498   .     S
C154   C155    1.392   .     A
C154   C156    1.388   .     A
C155   C298    1.417   .     A
C155   S158    1.716   .     A
C156   C157    1.395   .     A
C156   H159    1.082   .     S
C157   S158    1.731   .     A
O160   Cu882   1.857   .     S
O160   C162    1.270   .     A
O161   Cu882   1.907   .     S
O161   C243    1.278   .     A
C162   O242    1.278   .     A
C162   C364    1.498   .     S
C163   C164    1.392   .     A
C163   C165    1.388   .     A
C164   C307    1.417   .     A
C164   S167    1.716   .     A
C165   C166    1.395   .     A
C165   H168    1.082   .     S
C166   S167    1.731   .     A
O169   Cu883   1.857   .     S
O169   C171    1.270   .     A
O170   Cu883   1.907   .     S
O170   C234    1.278   .     A
C171   O233    1.278   .     A
C171   C391    1.498   .     S
C172   C173    1.392   .     A
C172   C174    1.388   .     A
C173   C316    1.417   .     A
C173   S176    1.716   .     A
C174   C175    1.395   .     A
C174   H177    1.082   .     S
C175   S176    1.731   .     A
O178   Cu884   1.857   .     S
O178   C180    1.270   .     A
O179   Cu884   1.907   .     S
O179   C225    1.278   .     A
C180   O224    1.278   .     A
C180   C382    1.498   .     S
C181   C182    1.392   .     A
C181   C183    1.388   .     A
C182   C361    1.417   .     A
C182   S185    1.716   .     A
C183   C184    1.395   .     A
C183   H186    1.082   .     S
C184   S185    1.731   .     A
O187   C189    1.270   .     A
O187   Cu885   1.857   1_556 S
O188   C288    1.278   .     A
O188   Cu885   1.907   1_556 S
C189   O287    1.278   .     A
C189   C301    1.498   .     S
C190   C191    1.392   .     A
C190   C192    1.388   .     A
C191   C370    1.417   .     A
C191   S194    1.716   .     A
C192   C193    1.395   .     A
C192   H195    1.082   .     S
C193   S194    1.731   .     A
O196   Cu886   1.857   .     S
O196   C198    1.270   .     A
O197   Cu886   1.907   .     S
O197   C279    1.278   .     A
C198   O278    1.278   .     A
C198   C292    1.498   .     S
C199   C200    1.392   .     A
C199   C201    1.388   .     A
C200   C379    1.417   .     A
C200   S203    1.716   .     A
C201   C202    1.395   .     A
C201   H204    1.082   .     S
C202   S203    1.731   .     A
O205   Cu887   1.857   .     S
O205   C207    1.270   .     A
O206   Cu887   1.907   .     S
O206   C270    1.278   .     A
C207   O269    1.278   .     A
C207   C319    1.498   .     S
C208   C209    1.392   .     A
C208   C210    1.388   .     A
C209   C388    1.417   .     A
C209   S212    1.716   .     A
C210   C211    1.395   .     A
C210   H213    1.082   .     S
C211   S212    1.731   .     A
O214   C216    1.270   .     A
O214   Cu888   1.857   1_556 A
O215   C261    1.278   .     A
O215   Cu888   1.907   1_556 S
C216   O260    1.278   .     A
C216   C310    1.498   .     S
C217   C218    1.392   .     A
C217   C219    1.388   .     A
C218   C397    1.417   .     A
C218   S221    1.716   .     A
C219   C220    1.395   .     A
C219   H222    1.082   .     S
C220   S221    1.731   .     A
O223   Cu889   1.857   .     S
O223   C225    1.270   .     A
O224   Cu889   1.907   .     S
C225   C337    1.498   .     S
C226   C227    1.392   .     A
C226   C228    1.388   .     A
C227   C406    1.417   .     A
C227   S230    1.716   .     A
C228   C229    1.395   .     A
C228   H231    1.082   .     S
C229   S230    1.731   .     A
O232   Cu890   1.857   .     S
O232   C234    1.270   .     A
O233   Cu890   1.907   .     S
C234   C328    1.498   .     S
C235   C236    1.392   .     A
C235   C237    1.388   .     A
C236   C415    1.417   .     A
C236   S239    1.716   .     A
C237   C238    1.395   .     A
C237   H240    1.082   .     S
C238   S239    1.731   .     A
O241   Cu891   1.857   .     S
O241   C243    1.270   .     A
O242   Cu891   1.907   .     S
C243   C355    1.498   .     S
C244   C245    1.392   .     A
C244   C246    1.388   .     A
C245   C424    1.417   .     A
C245   S248    1.716   .     A
C246   C247    1.395   .     A
C246   H249    1.082   .     S
C247   S248    1.731   .     A
O250   Cu892   1.857   .     S
O250   C252    1.270   .     A
O251   Cu892   1.907   .     S
C252   C346    1.498   .     S
C253   C254    1.392   .     A
C253   C255    1.388   .     A
C254   C325    1.417   .     A
C254   S257    1.716   .     A
C255   C256    1.395   .     A
C255   H258    1.082   .     S
C256   S257    1.731   .     A
O259   C261    1.270   .     A
O259   Cu893   1.857   1_556 A
O260   Cu893   1.907   1_556 A
C261   C409    1.498   .     S
C262   C263    1.392   .     A
C262   C264    1.388   .     A
C263   C334    1.417   .     A
C263   S266    1.716   .     A
C264   C265    1.395   .     A
C264   H267    1.082   .     S
C265   S266    1.731   .     A
O268   Cu894   1.857   .     S
O268   C270    1.270   .     A
O269   Cu894   1.907   .     S
C270   C400    1.498   .     S
C271   C272    1.392   .     A
C271   C273    1.388   .     A
C272   C343    1.417   .     A
C272   S275    1.716   .     A
C273   C274    1.395   .     A
C273   H276    1.082   .     S
C274   S275    1.731   .     A
O277   Cu895   1.857   .     S
O277   C279    1.270   .     A
O278   Cu895   1.907   .     S
C279   C427    1.498   .     S
C280   C281    1.392   .     A
C280   C282    1.388   .     A
C281   C352    1.417   .     A
C281   S284    1.716   .     A
C282   C283    1.395   .     A
C282   H285    1.082   .     S
C283   S284    1.731   .     A
O286   C288    1.270   .     A
O286   Cu896   1.857   1_556 S
O287   Cu896   1.907   1_556 A
C288   C418    1.498   .     S
C289   C290    1.392   .     A
C289   C291    1.388   .     A
C290   S293    1.716   .     A
C291   C292    1.395   .     A
C291   H294    1.082   .     S
C292   S293    1.731   .     A
O295   Cu897   1.857   .     S
O295   C297    1.270   .     A
O296   Cu897   1.907   .     S
O296   C378    1.278   .     A
C297   O377    1.278   .     A
C298   C299    1.392   .     A
C298   C300    1.388   .     A
C299   S302    1.716   .     A
C300   C301    1.395   .     A
C300   H303    1.082   .     S
C301   S302    1.731   .     A
O304   Cu898   1.857   .     S
O304   C306    1.270   .     A
O305   Cu898   1.907   .     S
O305   C369    1.278   .     A
C306   O368    1.278   .     A
C307   C308    1.392   .     A
C307   C309    1.388   .     A
C308   S311    1.716   .     A
C309   C310    1.395   .     A
C309   H312    1.082   .     S
C310   S311    1.731   .     A
O313   Cu899   1.857   .     S
O313   C315    1.270   .     A
O314   Cu899   1.907   .     S
O314   C396    1.278   .     A
C315   O395    1.278   .     A
C316   C317    1.392   .     A
C316   C318    1.388   .     A
C317   S320    1.716   .     A
C318   C319    1.395   .     A
C318   H321    1.082   .     S
C319   S320    1.731   .     A
O322   Cu900   1.857   .     S
O322   C324    1.270   .     A
O323   Cu900   1.907   .     S
O323   C387    1.278   .     A
C324   O386    1.278   .     A
C325   C326    1.392   .     A
C325   C327    1.388   .     A
C326   S329    1.716   .     A
C327   C328    1.395   .     A
C327   H330    1.082   .     S
C328   S329    1.731   .     A
O331   C333    1.270   .     A
O331   Cu901   1.857   1_655 A
O332   C414    1.278   .     A
O332   Cu901   1.907   1_655 A
C333   O413    1.278   .     A
C334   C335    1.392   .     A
C334   C336    1.388   .     A
C335   S338    1.716   .     A
C336   C337    1.395   .     A
C336   H339    1.082   .     S
C337   S338    1.731   .     A
O340   C342    1.270   .     A
O340   Cu902   1.857   1_655 A
O341   C405    1.278   .     A
O341   Cu902   1.907   1_655 A
C342   O404    1.278   .     A
C343   C344    1.392   .     A
C343   C345    1.388   .     A
C344   S347    1.716   .     A
C345   C346    1.395   .     A
C345   H348    1.082   .     S
C346   S347    1.731   .     A
O349   Cu903   1.857   .     S
O349   C351    1.270   .     A
O350   Cu903   1.907   .     S
O350   C432    1.278   .     A
C351   O431    1.278   .     A
C352   C353    1.392   .     A
C352   C354    1.388   .     A
C353   S356    1.716   .     A
C354   C355    1.395   .     A
C354   H357    1.082   .     S
C355   S356    1.731   .     A
O358   Cu904   1.857   .     S
O358   C360    1.270   .     A
O359   Cu904   1.907   .     S
O359   C423    1.278   .     A
C360   O422    1.278   .     A
C361   C362    1.392   .     A
C361   C363    1.388   .     A
C362   S365    1.716   .     A
C363   C364    1.395   .     A
C363   H366    1.082   .     S
C364   S365    1.731   .     A
O367   Cu905   1.857   .     S
O367   C369    1.270   .     A
O368   Cu905   1.907   .     S
C370   C371    1.392   .     A
C370   C372    1.388   .     A
C371   S374    1.716   .     A
C372   C373    1.395   .     A
C372   H375    1.082   .     S
C373   S374    1.731   .     A
O376   Cu906   1.857   .     S
O376   C378    1.270   .     A
O377   Cu906   1.907   .     S
C379   C380    1.392   .     A
C379   C381    1.388   .     A
C380   S383    1.716   .     A
C381   C382    1.395   .     A
C381   H384    1.082   .     S
C382   S383    1.731   .     A
O385   Cu907   1.857   .     S
O385   C387    1.270   .     A
O386   Cu907   1.907   .     S
C388   C389    1.392   .     A
C388   C390    1.388   .     A
C389   S392    1.716   .     A
C390   C391    1.395   .     A
C390   H393    1.082   .     S
C391   S392    1.731   .     A
O394   Cu908   1.857   .     S
O394   C396    1.270   .     A
O395   Cu908   1.907   .     S
C397   C398    1.392   .     A
C397   C399    1.388   .     A
C398   S401    1.716   .     A
C399   C400    1.395   .     A
C399   H402    1.082   .     S
C400   S401    1.731   .     A
O403   C405    1.270   .     A
O403   Cu909   1.857   1_655 A
O404   Cu909   1.907   1_655 S
C406   C407    1.392   .     A
C406   C408    1.388   .     A
C407   S410    1.716   .     A
C408   C409    1.395   .     A
C408   H411    1.082   .     S
C409   S410    1.731   .     A
O412   C414    1.270   .     A
O412   Cu910   1.857   1_655 A
O413   Cu910   1.907   1_655 S
C415   C416    1.392   .     A
C415   C417    1.388   .     A
C416   S419    1.716   .     A
C417   C418    1.395   .     A
C417   H420    1.082   .     S
C418   S419    1.731   .     A
O421   Cu911   1.857   .     S
O421   C423    1.270   .     A
O422   Cu911   1.907   .     S
C424   C425    1.392   .     A
C424   C426    1.388   .     A
C425   S428    1.716   .     A
C426   C427    1.395   .     A
C426   H429    1.082   .     S
C427   S428    1.731   .     A
O430   Cu912   1.857   .     S
O430   C432    1.270   .     A
O431   Cu912   1.907   .     S
C433   C434    1.392   .     A
C433   C722    1.417   .     A
C433   C435    1.388   .     A
C434   C577    1.417   .     A
C434   S437    1.716   .     A
C435   C436    1.395   .     A
C435   H438    1.082   .     S
C436   S437    1.731   .     A
C436   C774    1.498   .     S
O439   Cu901   1.857   .     S
O439   C441    1.270   .     A
O440   Cu901   1.907   .     S
O440   C522    1.278   .     A
C441   O521    1.278   .     A
C441   C679    1.498   .     S
C442   C443    1.392   .     A
C442   C731    1.417   .     A
C442   C444    1.388   .     A
C443   C586    1.417   .     A
C443   S446    1.716   .     A
C444   C445    1.395   .     A
C444   H447    1.082   .     S
C445   S446    1.731   .     A
C445   C765    1.498   .     S
O448   Cu902   1.857   .     S
O448   C450    1.270   .     A
O449   Cu902   1.907   .     S
O449   C513    1.278   .     A
C450   O512    1.278   .     A
C450   C670    1.498   .     S
C451   C452    1.392   .     A
C451   C740    1.417   .     A
C451   C453    1.388   .     A
C452   C595    1.417   .     A
C452   S455    1.716   .     A
C453   C454    1.395   .     A
C453   H456    1.082   .     S
C454   S455    1.731   .     A
C454   C792    1.498   .     S
O457   Cu903   1.857   .     S
O457   C459    1.270   .     A
O458   Cu903   1.907   .     S
O458   C540    1.278   .     A
C459   O539    1.278   .     A
C459   C661    1.498   .     S
C460   C461    1.392   .     A
C460   C749    1.417   .     A
C460   C462    1.388   .     A
C461   C604    1.417   .     A
C461   S464    1.716   .     A
C462   C463    1.395   .     A
C462   H465    1.082   .     S
C463   S464    1.731   .     A
C463   C783    1.498   .     S
O466   Cu904   1.857   .     S
O466   C468    1.270   .     A
O467   Cu904   1.907   .     S
O467   C531    1.278   .     A
C468   O530    1.278   .     A
C468   C652    1.498   .     S
C469   C470    1.392   .     A
C469   C830    1.417   .     A
C469   C471    1.388   .     A
C470   C649    1.417   .     A
C470   S473    1.716   .     A
C471   C472    1.395   .     A
C471   H474    1.082   .     S
C472   S473    1.731   .     A
C472   C810    1.498   .     S
O475   C477    1.270   .     A
O475   Cu905   1.857   1_655 S
O476   C558    1.278   .     A
O476   Cu905   1.907   1_655 A
C477   O557    1.278   .     A
C477   C607    1.498   .     S
C478   C479    1.392   .     A
C478   C839    1.417   .     A
C478   C480    1.388   .     A
C479   C658    1.417   .     A
C479   S482    1.716   .     A
C480   C481    1.395   .     A
C480   H483    1.082   .     S
C481   S482    1.731   .     A
C481   C801    1.498   .     S
O484   C486    1.270   .     A
O484   Cu906   1.857   1_655 S
O485   C549    1.278   .     A
O485   Cu906   1.907   1_655 A
C486   O548    1.278   .     A
C486   C598    1.498   .     S
C487   C488    1.392   .     A
C487   C848    1.417   .     A
C487   C489    1.388   .     A
C488   C667    1.417   .     A
C488   S491    1.716   .     A
C489   C490    1.395   .     A
C489   H492    1.082   .     S
C490   S491    1.731   .     A
C490   C828    1.498   .     S
O493   Cu907   1.857   .     S
O493   C495    1.270   .     A
O494   Cu907   1.907   .     S
O494   C576    1.278   .     A
C495   O575    1.278   .     A
C495   C589    1.498   .     S
C496   C497    1.392   .     A
C496   C857    1.417   .     A
C496   C498    1.388   .     A
C497   C676    1.417   .     A
C497   S500    1.716   .     A
C498   C499    1.395   .     A
C498   H501    1.082   .     S
C499   S500    1.731   .     A
C499   C819    1.498   .     S
O502   Cu908   1.857   .     S
O502   C504    1.270   .     A
O503   Cu908   1.907   .     S
O503   C567    1.278   .     A
C504   O566    1.278   .     A
C504   C580    1.498   .     S
C505   C506    1.392   .     A
C505   C758    1.417   .     A
C505   C507    1.388   .     A
C506   C685    1.417   .     A
C506   S509    1.716   .     A
C507   C508    1.395   .     A
C507   H510    1.082   .     S
C508   S509    1.731   .     A
C508   C738    1.498   .     S
O511   Cu909   1.857   .     S
O511   C513    1.270   .     A
O512   Cu909   1.907   .     S
C513   C643    1.498   .     S
C514   C515    1.392   .     A
C514   C767    1.417   .     A
C514   C516    1.388   .     A
C515   C694    1.417   .     A
C515   S518    1.716   .     A
C516   C517    1.395   .     A
C516   H519    1.082   .     S
C517   S518    1.731   .     A
C517   C729    1.498   .     S
O520   Cu910   1.857   .     S
O520   C522    1.270   .     A
O521   Cu910   1.907   .     S
C522   C634    1.498   .     S
C523   C524    1.392   .     A
C523   C776    1.417   .     A
C523   C525    1.388   .     A
C524   C703    1.417   .     A
C524   S527    1.716   .     A
C525   C526    1.395   .     A
C525   H528    1.082   .     S
C526   S527    1.731   .     A
C526   C756    1.498   .     S
O529   Cu911   1.857   .     S
O529   C531    1.270   .     A
O530   Cu911   1.907   .     S
C531   C625    1.498   .     S
C532   C533    1.392   .     A
C532   C785    1.417   .     A
C532   C534    1.388   .     A
C533   C712    1.417   .     A
C533   S536    1.716   .     A
C534   C535    1.395   .     A
C534   H537    1.082   .     S
C535   S536    1.731   .     A
C535   C747    1.498   .     S
O538   Cu912   1.857   .     S
O538   C540    1.270   .     A
O539   Cu912   1.907   .     S
C540   C616    1.498   .     S
C541   C542    1.392   .     A
C541   C794    1.417   .     A
C541   C543    1.388   .     A
C542   C613    1.417   .     A
C542   S545    1.716   .     A
C543   C544    1.395   .     A
C543   H546    1.082   .     S
C544   S545    1.731   .     A
C544   C846    1.498   .     S
O547   C549    1.270   .     A
O547   Cu897   1.857   1_655 A
O548   Cu897   1.907   1_655 S
C549   C715    1.498   .     S
C550   C551    1.392   .     A
C550   C803    1.417   .     A
C550   C552    1.388   .     A
C551   C622    1.417   .     A
C551   S554    1.716   .     A
C552   C553    1.395   .     A
C552   H555    1.082   .     S
C553   S554    1.731   .     A
C553   C837    1.498   .     S
O556   C558    1.270   .     A
O556   Cu898   1.857   1_655 A
O557   Cu898   1.907   1_655 A
C558   C706    1.498   .     S
C559   C560    1.392   .     A
C559   C812    1.417   .     A
C559   C561    1.388   .     A
C560   C631    1.417   .     A
C560   S563    1.716   .     A
C561   C562    1.395   .     A
C561   H564    1.082   .     S
C562   S563    1.731   .     A
C562   C864    1.498   .     S
O565   Cu899   1.857   .     S
O565   C567    1.270   .     A
O566   Cu899   1.907   .     S
C567   C697    1.498   .     S
C568   C569    1.392   .     A
C568   C821    1.417   .     A
C568   C570    1.388   .     A
C569   C640    1.417   .     A
C569   S572    1.716   .     A
C570   C571    1.395   .     A
C570   H573    1.082   .     S
C571   S572    1.731   .     A
C571   C855    1.498   .     S
O574   Cu900   1.857   .     S
O574   C576    1.270   .     A
O575   Cu900   1.907   .     S
C576   C688    1.498   .     S
C577   C578    1.392   .     A
C577   C579    1.388   .     A
C578   C721    1.417   .     A
C578   S581    1.716   .     A
C579   C580    1.395   .     A
C579   H582    1.082   .     S
C580   S581    1.731   .     A
O583   C585    1.270   .     A
O583   Cu881   1.857   1_556 A
O584   C684    1.278   .     A
O584   Cu881   1.907   1_556 A
C585   O683    1.278   .     A
C585   C814    1.498   .     S
C586   C587    1.392   .     A
C586   C588    1.388   .     A
C587   C730    1.417   .     A
C587   S590    1.716   .     A
C588   C589    1.395   .     A
C588   H591    1.082   .     S
C589   S590    1.731   .     A
O592   Cu882   1.857   .     S
O592   C594    1.270   .     A
O593   Cu882   1.907   .     S
O593   C675    1.278   .     A
C594   O674    1.278   .     A
C594   C823    1.498   .     S
C595   C596    1.392   .     A
C595   C597    1.388   .     A
C596   C739    1.417   .     A
C596   S599    1.716   .     A
C597   C598    1.395   .     A
C597   H600    1.082   .     S
C598   S599    1.731   .     A
O601   Cu883   1.857   .     S
O601   C603    1.270   .     A
O602   Cu883   1.907   .     S
O602   C666    1.278   .     A
C603   O665    1.278   .     A
C603   C796    1.498   .     S
C604   C605    1.392   .     A
C604   C606    1.388   .     A
C605   C748    1.417   .     A
C605   S608    1.716   .     A
C606   C607    1.395   .     A
C606   H609    1.082   .     S
C607   S608    1.731   .     A
O610   C612    1.270   .     A
O610   Cu884   1.857   1_556 A
O611   C657    1.278   .     A
O611   Cu884   1.907   1_556 A
C612   O656    1.278   .     A
C612   C805    1.498   .     S
C613   C614    1.392   .     A
C613   C615    1.388   .     A
C614   C793    1.417   .     A
C614   S617    1.716   .     A
C615   C616    1.395   .     A
C615   H618    1.082   .     S
C616   S617    1.731   .     A
O619   Cu893   1.857   .     S
O619   C621    1.270   .     A
O620   Cu893   1.907   .     S
O620   C720    1.278   .     A
C621   O719    1.278   .     A
C621   C742    1.498   .     S
C622   C623    1.392   .     A
C622   C624    1.388   .     A
C623   C802    1.417   .     A
C623   S626    1.716   .     A
C624   C625    1.395   .     A
C624   H627    1.082   .     S
C625   S626    1.731   .     A
O628   Cu894   1.857   .     S
O628   C630    1.270   .     A
O629   Cu894   1.907   .     S
O629   C711    1.278   .     A
C630   O710    1.278   .     A
C630   C751    1.498   .     S
C631   C632    1.392   .     A
C631   C633    1.388   .     A
C632   C811    1.417   .     A
C632   S635    1.716   .     A
C633   C634    1.395   .     A
C633   H636    1.082   .     S
C634   S635    1.731   .     A
O637   Cu895   1.857   .     S
O637   C639    1.270   .     A
O638   Cu895   1.907   .     S
O638   C702    1.278   .     A
C639   O701    1.278   .     A
C639   C724    1.498   .     S
C640   C641    1.392   .     A
C640   C642    1.388   .     A
C641   C820    1.417   .     A
C641   S644    1.716   .     A
C642   C643    1.395   .     A
C642   H645    1.082   .     S
C643   S644    1.731   .     A
O646   Cu896   1.857   .     S
O646   C648    1.270   .     A
O647   Cu896   1.907   .     S
O647   C693    1.278   .     A
C648   O692    1.278   .     A
C648   C733    1.498   .     S
C649   C650    1.392   .     A
C649   C651    1.388   .     A
C650   C829    1.417   .     A
C650   S653    1.716   .     A
C651   C652    1.395   .     A
C651   H654    1.082   .     S
C652   S653    1.731   .     A
O655   C657    1.270   .     A
O655   Cu889   1.857   1_556 S
O656   Cu889   1.907   1_556 A
C657   C778    1.498   .     S
C658   C659    1.392   .     A
C658   C660    1.388   .     A
C659   C838    1.417   .     A
C659   S662    1.716   .     A
C660   C661    1.395   .     A
C660   H663    1.082   .     S
C661   S662    1.731   .     A
O664   Cu890   1.857   .     S
O664   C666    1.270   .     A
O665   Cu890   1.907   .     S
C666   C787    1.498   .     S
C667   C668    1.392   .     A
C667   C669    1.388   .     A
C668   C847    1.417   .     A
C668   S671    1.716   .     A
C669   C670    1.395   .     A
C669   H672    1.082   .     S
C670   S671    1.731   .     A
O673   Cu891   1.857   .     S
O673   C675    1.270   .     A
O674   Cu891   1.907   .     S
C675   C760    1.498   .     S
C676   C677    1.392   .     A
C676   C678    1.388   .     A
C677   C856    1.417   .     A
C677   S680    1.716   .     A
C678   C679    1.395   .     A
C678   H681    1.082   .     S
C679   S680    1.731   .     A
O682   C684    1.270   .     A
O682   Cu892   1.857   1_556 S
O683   Cu892   1.907   1_556 S
C684   C769    1.498   .     S
C685   C686    1.392   .     A
C685   C687    1.388   .     A
C686   C757    1.417   .     A
C686   S689    1.716   .     A
C687   C688    1.395   .     A
C687   H690    1.082   .     S
C688   S689    1.731   .     A
O691   Cu885   1.857   .     S
O691   C693    1.270   .     A
O692   Cu885   1.907   .     S
C693   C850    1.498   .     S
C694   C695    1.392   .     A
C694   C696    1.388   .     A
C695   C766    1.417   .     A
C695   S698    1.716   .     A
C696   C697    1.395   .     A
C696   H699    1.082   .     S
C697   S698    1.731   .     A
O700   Cu886   1.857   .     S
O700   C702    1.270   .     A
O701   Cu886   1.907   .     S
C702   C859    1.498   .     S
C703   C704    1.392   .     A
C703   C705    1.388   .     A
C704   C775    1.417   .     A
C704   S707    1.716   .     A
C705   C706    1.395   .     A
C705   H708    1.082   .     S
C706   S707    1.731   .     A
O709   Cu887   1.857   .     S
O709   C711    1.270   .     A
O710   Cu887   1.907   .     S
C711   C832    1.498   .     S
C712   C713    1.392   .     A
C712   C714    1.388   .     A
C713   C784    1.417   .     A
C713   S716    1.716   .     A
C714   C715    1.395   .     A
C714   H717    1.082   .     S
C715   S716    1.731   .     A
O718   Cu888   1.857   .     S
O718   C720    1.270   .     A
O719   Cu888   1.907   .     S
C720   C841    1.498   .     S
C721   C722    1.392   .     A
C721   C723    1.388   .     A
C722   S725    1.716   .     A
C723   C724    1.395   .     A
C723   H726    1.082   .     S
C724   S725    1.731   .     A
O727   Cu877   1.857   .     S
O727   C729    1.270   .     A
O728   Cu877   1.907   .     S
O728   C819    1.278   .     A
C729   O818    1.278   .     A
C730   C731    1.392   .     A
C730   C732    1.388   .     A
C731   S734    1.716   .     A
C732   C733    1.395   .     A
C732   H735    1.082   .     S
C733   S734    1.731   .     A
O736   Cu878   1.857   .     S
O736   C738    1.270   .     A
O737   Cu878   1.907   .     S
O737   C828    1.278   .     A
C738   O827    1.278   .     A
C739   C740    1.392   .     A
C739   C741    1.388   .     A
C740   S743    1.716   .     A
C741   C742    1.395   .     A
C741   H744    1.082   .     S
C742   S743    1.731   .     A
O745   Cu879   1.857   .     S
O745   C747    1.270   .     A
O746   Cu879   1.907   .     S
O746   C801    1.278   .     A
C747   O800    1.278   .     A
C748   C749    1.392   .     A
C748   C750    1.388   .     A
C749   S752    1.716   .     A
C750   C751    1.395   .     A
C750   H753    1.082   .     S
C751   S752    1.731   .     A
O754   Cu880   1.857   .     S
O754   C756    1.270   .     A
O755   Cu880   1.907   .     S
O755   C810    1.278   .     A
C756   O809    1.278   .     A
C757   C758    1.392   .     A
C757   C759    1.388   .     A
C758   S761    1.716   .     A
C759   C760    1.395   .     A
C759   H762    1.082   .     S
C760   S761    1.731   .     A
O763   C765    1.270   .     A
O763   Cu865   1.857   1_565 A
O764   C855    1.278   .     A
O764   Cu865   1.907   1_565 S
C765   O854    1.278   .     A
C766   C767    1.392   .     A
C766   C768    1.388   .     A
C767   S770    1.716   .     A
C768   C769    1.395   .     A
C768   H771    1.082   .     S
C769   S770    1.731   .     A
O772   Cu866   1.857   .     S
O772   C774    1.270   .     A
O773   Cu866   1.907   .     S
O773   C864    1.278   .     A
C774   O863    1.278   .     A
C775   C776    1.392   .     A
C775   C777    1.388   .     A
C776   S779    1.716   .     A
C777   C778    1.395   .     A
C777   H780    1.082   .     S
C778   S779    1.731   .     A
O781   C783    1.270   .     A
O781   Cu867   1.857   1_565 A
O782   C837    1.278   .     A
O782   Cu867   1.907   1_565 A
C783   O836    1.278   .     A
C784   C785    1.392   .     A
C784   C786    1.388   .     A
C785   S788    1.716   .     A
C786   C787    1.395   .     A
C786   H789    1.082   .     S
C787   S788    1.731   .     A
O790   Cu868   1.857   .     S
O790   C792    1.270   .     A
O791   Cu868   1.907   .     S
O791   C846    1.278   .     A
C792   O845    1.278   .     A
C793   C794    1.392   .     A
C793   C795    1.388   .     A
C794   S797    1.716   .     A
C795   C796    1.395   .     A
C795   H798    1.082   .     S
C796   S797    1.731   .     A
O799   Cu869   1.857   .     S
O799   C801    1.270   .     A
O800   Cu869   1.907   .     S
C802   C803    1.392   .     A
C802   C804    1.388   .     A
C803   S806    1.716   .     A
C804   C805    1.395   .     A
C804   H807    1.082   .     S
C805   S806    1.731   .     A
O808   Cu870   1.857   .     S
O808   C810    1.270   .     A
O809   Cu870   1.907   .     S
C811   C812    1.392   .     A
C811   C813    1.388   .     A
C812   S815    1.716   .     A
C813   C814    1.395   .     A
C813   H816    1.082   .     S
C814   S815    1.731   .     A
O817   Cu871   1.857   .     S
O817   C819    1.270   .     A
O818   Cu871   1.907   .     S
C820   C821    1.392   .     A
C820   C822    1.388   .     A
C821   S824    1.716   .     A
C822   C823    1.395   .     A
C822   H825    1.082   .     S
C823   S824    1.731   .     A
O826   Cu872   1.857   .     S
O826   C828    1.270   .     A
O827   Cu872   1.907   .     S
C829   C830    1.392   .     A
C829   C831    1.388   .     A
C830   S833    1.716   .     A
C831   C832    1.395   .     A
C831   H834    1.082   .     S
C832   S833    1.731   .     A
O835   C837    1.270   .     A
O835   Cu873   1.857   1_565 S
O836   Cu873   1.907   1_565 A
C838   C839    1.392   .     A
C838   C840    1.388   .     A
C839   S842    1.716   .     A
C840   C841    1.395   .     A
C840   H843    1.082   .     S
C841   S842    1.731   .     A
O844   Cu874   1.857   .     S
O844   C846    1.270   .     A
O845   Cu874   1.907   .     S
C847   C848    1.392   .     A
C847   C849    1.388   .     A
C848   S851    1.716   .     A
C849   C850    1.395   .     A
C849   H852    1.082   .     S
C850   S851    1.731   .     A
O853   C855    1.270   .     A
O853   Cu875   1.857   1_565 A
O854   Cu875   1.907   1_565 A
C856   C857    1.392   .     A
C856   C858    1.388   .     A
C857   S860    1.716   .     A
C858   C859    1.395   .     A
C858   H861    1.082   .     S
C859   S860    1.731   .     A
O862   Cu876   1.857   .     S
O862   C864    1.270   .     A
O863   Cu876   1.907   .     S
Cu865  Cu875   2.618   .     S
Cu865  O763    1.857   1_545 A
Cu865  O764    1.907   1_545 S
Cu866  Cu876   2.618   .     S
Cu867  Cu873   2.618   .     S
Cu867  O781    1.857   1_545 A
Cu867  O782    1.907   1_545 A
Cu868  Cu874   2.618   .     S
Cu869  Cu879   2.618   .     S
Cu869  O43     1.857   1_545 A
Cu869  O44     1.907   1_545 A
Cu870  Cu880   2.618   .     S
Cu871  Cu877   2.618   .     S
Cu871  O61     1.857   1_545 A
Cu871  O62     1.907   1_545 A
Cu872  Cu878   2.618   .     S
Cu873  O835    1.857   1_545 S
Cu873  O836    1.907   1_545 A
Cu875  O853    1.857   1_545 A
Cu875  O854    1.907   1_545 A
Cu877  O115    1.857   1_545 A
Cu877  O116    1.907   1_545 A
Cu879  O133    1.857   1_545 S
Cu879  O134    1.907   1_545 A
Cu881  Cu892   2.618   .     S
Cu881  O583    1.857   1_554 A
Cu881  O584    1.907   1_554 A
Cu882  Cu891   2.618   .     S
Cu883  Cu890   2.618   .     S
Cu884  Cu889   2.618   .     S
Cu884  O610    1.857   1_554 A
Cu884  O611    1.907   1_554 A
Cu885  Cu896   2.618   .     S
Cu885  O187    1.857   1_554 S
Cu885  O188    1.907   1_554 S
Cu886  Cu895   2.618   .     S
Cu887  Cu894   2.618   .     S
Cu888  Cu893   2.618   .     S
Cu888  O214    1.857   1_554 A
Cu888  O215    1.907   1_554 S
Cu889  O655    1.857   1_554 S
Cu889  O656    1.907   1_554 A
Cu892  O682    1.857   1_554 S
Cu892  O683    1.907   1_554 S
Cu893  O259    1.857   1_554 A
Cu893  O260    1.907   1_554 A
Cu896  O286    1.857   1_554 S
Cu896  O287    1.907   1_554 A
Cu897  Cu906   2.618   .     S
Cu897  O547    1.857   1_455 A
Cu897  O548    1.907   1_455 S
Cu898  Cu905   2.618   .     S
Cu898  O556    1.857   1_455 A
Cu898  O557    1.907   1_455 A
Cu899  Cu908   2.618   .     S
Cu900  Cu907   2.618   .     S
Cu901  Cu910   2.618   .     S
Cu901  O331    1.857   1_455 A
Cu901  O332    1.907   1_455 A
Cu902  Cu909   2.618   .     S
Cu902  O340    1.857   1_455 A
Cu902  O341    1.907   1_455 A
Cu903  Cu912   2.618   .     S
Cu904  Cu911   2.618   .     S
Cu905  O475    1.857   1_455 S
Cu905  O476    1.907   1_455 A
Cu906  O484    1.857   1_455 S
Cu906  O485    1.907   1_455 A
Cu909  O403    1.857   1_455 A
Cu909  O404    1.907   1_455 S
Cu910  O412    1.857   1_455 A
Cu910  O413    1.907   1_455 S
