data_image0
_cell_length_a       13.5179
_cell_length_b       25.9084
_cell_length_c       30.351
_cell_angle_alpha    90
_cell_angle_beta     90
_cell_angle_gamma    90

_symmetry_space_group_name_H-M    "P 1"
_symmetry_int_tables_number       1

loop_
  _symmetry_equiv_pos_as_xyz
  'x, y, z'

loop_
  _atom_site_label
  _atom_site_occupancy
  _atom_site_fract_x
  _atom_site_fract_y
  _atom_site_fract_z
  _atom_site_thermal_displace_type
  _atom_site_B_iso_or_equiv
  _atom_site_type_symbol
  N1       1.0000 0.50800  0.56355  0.62149  Biso   1.000  N
  N2       1.0000 0.41221  0.50227  0.65094  Biso   1.000  N
  C1       1.0000 0.41432  0.56507  0.60131  Biso   1.000  C
  C2       1.0000 0.37720  0.59754  0.56907  Biso   1.000  C
  H1       1.0000 0.41650  0.62280  0.55610  Biso   1.000  H
  C3       1.0000 0.27980  0.59093  0.55693  Biso   1.000  C
  H2       1.0000 0.25290  0.61240  0.53550  Biso   1.000  H
  C4       1.0000 0.22090  0.55308  0.57577  Biso   1.000  C
  H3       1.0000 0.15580  0.54970  0.56630  Biso   1.000  H
  C5       1.0000 0.25562  0.52016  0.60806  Biso   1.000  C
  H4       1.0000 0.21590  0.49500  0.62090  Biso   1.000  H
  C6       1.0000 0.35396  0.52721  0.62010  Biso   1.000  C
  C7       1.0000 0.50184  0.52583  0.64962  Biso   1.000  C
  H5       1.0000 0.55450  0.51580  0.66740  Biso   1.000  H
  C8       1.0000 0.38122  0.46170  0.68108  Biso   1.000  C
  H6       1.0000 0.43920  0.44650  0.69470  Biso   1.000  H
  H7       1.0000 0.34760  0.43480  0.66460  Biso   1.000  H
  C9       1.0000 0.31260  0.48209  0.71671  Biso   1.000  C
  C10      1.0000 0.33769  0.52404  0.74251  Biso   1.000  C
  H8       1.0000 0.39770  0.54060  0.73760  Biso   1.000  H
  C11      1.0000 0.22346  0.45830  0.72503  Biso   1.000  C
  H9       1.0000 0.20470  0.42980  0.70830  Biso   1.000  H
  C12      1.0000 0.63510  0.64760  0.52083  Biso   1.000  C
  C13      1.0000 0.61920  0.57820  0.45710  Biso   1.000  C
  H10      1.0000 0.67350  0.57580  0.43680  Biso   1.000  H
  H11      1.0000 0.55790  0.57680  0.44120  Biso   1.000  H
  H12      1.0000 0.62220  0.54980  0.47750  Biso   1.000  H
  N3       1.0000 0.50800  0.06355  0.12149  Biso   1.000  N
  N4       1.0000 0.41221  0.00227  0.15094  Biso   1.000  N
  C14      1.0000 0.41432  0.06507  0.10131  Biso   1.000  C
  C15      1.0000 0.37720  0.09754  0.06907  Biso   1.000  C
  H13      1.0000 0.41650  0.12280  0.05610  Biso   1.000  H
  C16      1.0000 0.27980  0.09093  0.05693  Biso   1.000  C
  H14      1.0000 0.25290  0.11240  0.03550  Biso   1.000  H
  C17      1.0000 0.22090  0.05308  0.07577  Biso   1.000  C
  H15      1.0000 0.15580  0.04970  0.06630  Biso   1.000  H
  C18      1.0000 0.25562  0.02016  0.10806  Biso   1.000  C
  H16      1.0000 0.21590  0.99500  0.12090  Biso   1.000  H
  C19      1.0000 0.35396  0.02721  0.12010  Biso   1.000  C
  C20      1.0000 0.50184  0.02583  0.14962  Biso   1.000  C
  H17      1.0000 0.55450  0.01580  0.16740  Biso   1.000  H
  C21      1.0000 0.38122  0.96170  0.18108  Biso   1.000  C
  H18      1.0000 0.43920  0.94650  0.19470  Biso   1.000  H
  H19      1.0000 0.34760  0.93480  0.16460  Biso   1.000  H
  C22      1.0000 0.31260  0.98209  0.21671  Biso   1.000  C
  C23      1.0000 0.33769  0.02404  0.24251  Biso   1.000  C
  H20      1.0000 0.39770  0.04060  0.23760  Biso   1.000  H
  C24      1.0000 0.22346  0.95830  0.22503  Biso   1.000  C
  H21      1.0000 0.20470  0.92980  0.20830  Biso   1.000  H
  C25      1.0000 0.63510  0.14760  0.02083  Biso   1.000  C
  C26      1.0000 0.61920  0.07820  0.95710  Biso   1.000  C
  H22      1.0000 0.67350  0.07580  0.93680  Biso   1.000  H
  H23      1.0000 0.55790  0.07680  0.94120  Biso   1.000  H
  H24      1.0000 0.62220  0.04980  0.97750  Biso   1.000  H
  N5       1.0000 0.00800  0.56355  0.12149  Biso   1.000  N
  N6       1.0000 0.91221  0.50227  0.15094  Biso   1.000  N
  C27      1.0000 0.91432  0.56507  0.10131  Biso   1.000  C
  C28      1.0000 0.87720  0.59754  0.06907  Biso   1.000  C
  H25      1.0000 0.91650  0.62280  0.05610  Biso   1.000  H
  C29      1.0000 0.77980  0.59093  0.05693  Biso   1.000  C
  H26      1.0000 0.75290  0.61240  0.03550  Biso   1.000  H
  C30      1.0000 0.72090  0.55308  0.07577  Biso   1.000  C
  H27      1.0000 0.65580  0.54970  0.06630  Biso   1.000  H
  C31      1.0000 0.75562  0.52016  0.10806  Biso   1.000  C
  H28      1.0000 0.71590  0.49500  0.12090  Biso   1.000  H
  C32      1.0000 0.85396  0.52721  0.12010  Biso   1.000  C
  C33      1.0000 0.00184  0.52583  0.14962  Biso   1.000  C
  H29      1.0000 0.05450  0.51580  0.16740  Biso   1.000  H
  C34      1.0000 0.88122  0.46170  0.18108  Biso   1.000  C
  H30      1.0000 0.93920  0.44650  0.19470  Biso   1.000  H
  H31      1.0000 0.84760  0.43480  0.16460  Biso   1.000  H
  C35      1.0000 0.81260  0.48209  0.21671  Biso   1.000  C
  C36      1.0000 0.83769  0.52404  0.24251  Biso   1.000  C
  H32      1.0000 0.89770  0.54060  0.23760  Biso   1.000  H
  C37      1.0000 0.72346  0.45830  0.22503  Biso   1.000  C
  H33      1.0000 0.70470  0.42980  0.20830  Biso   1.000  H
  C38      1.0000 0.13510  0.64760  0.02083  Biso   1.000  C
  C39      1.0000 0.11920  0.57820  0.95710  Biso   1.000  C
  H34      1.0000 0.17350  0.57580  0.93680  Biso   1.000  H
  H35      1.0000 0.05790  0.57680  0.94120  Biso   1.000  H
  H36      1.0000 0.12220  0.54980  0.97750  Biso   1.000  H
  N7       1.0000 0.00800  0.06355  0.62149  Biso   1.000  N
  N8       1.0000 0.91221  0.00227  0.65094  Biso   1.000  N
  C40      1.0000 0.91432  0.06507  0.60131  Biso   1.000  C
  C41      1.0000 0.87720  0.09754  0.56907  Biso   1.000  C
  H37      1.0000 0.91650  0.12280  0.55610  Biso   1.000  H
  C42      1.0000 0.77980  0.09093  0.55693  Biso   1.000  C
  H38      1.0000 0.75290  0.11240  0.53550  Biso   1.000  H
  C43      1.0000 0.72090  0.05308  0.57577  Biso   1.000  C
  H39      1.0000 0.65580  0.04970  0.56630  Biso   1.000  H
  C44      1.0000 0.75562  0.02016  0.60806  Biso   1.000  C
  H40      1.0000 0.71590  0.99500  0.62090  Biso   1.000  H
  C45      1.0000 0.85396  0.02721  0.62010  Biso   1.000  C
  C46      1.0000 0.00184  0.02583  0.64962  Biso   1.000  C
  H41      1.0000 0.05450  0.01580  0.66740  Biso   1.000  H
  C47      1.0000 0.88122  0.96170  0.68108  Biso   1.000  C
  H42      1.0000 0.93920  0.94650  0.69470  Biso   1.000  H
  H43      1.0000 0.84760  0.93480  0.66460  Biso   1.000  H
  C48      1.0000 0.81260  0.98209  0.71671  Biso   1.000  C
  C49      1.0000 0.83769  0.02404  0.74251  Biso   1.000  C
  H44      1.0000 0.89770  0.04060  0.73760  Biso   1.000  H
  C50      1.0000 0.72346  0.95830  0.72503  Biso   1.000  C
  H45      1.0000 0.70470  0.92980  0.70830  Biso   1.000  H
  C51      1.0000 0.13510  0.14760  0.52083  Biso   1.000  C
  C52      1.0000 0.11920  0.07820  0.45710  Biso   1.000  C
  H46      1.0000 0.17350  0.07580  0.43680  Biso   1.000  H
  H47      1.0000 0.05790  0.07680  0.44120  Biso   1.000  H
  H48      1.0000 0.12220  0.04980  0.47750  Biso   1.000  H
  N9       1.0000 0.24200  0.18645  0.62149  Biso   1.000  N
  N10      1.0000 0.33779  0.24773  0.65094  Biso   1.000  N
  C53      1.0000 0.33568  0.18493  0.60131  Biso   1.000  C
  C54      1.0000 0.37280  0.15246  0.56907  Biso   1.000  C
  H49      1.0000 0.33350  0.12720  0.55610  Biso   1.000  H
  C55      1.0000 0.47020  0.15907  0.55693  Biso   1.000  C
  H50      1.0000 0.49710  0.13760  0.53550  Biso   1.000  H
  C56      1.0000 0.52910  0.19692  0.57577  Biso   1.000  C
  H51      1.0000 0.59420  0.20030  0.56630  Biso   1.000  H
  C57      1.0000 0.49438  0.22984  0.60806  Biso   1.000  C
  H52      1.0000 0.53410  0.25500  0.62090  Biso   1.000  H
  C58      1.0000 0.39604  0.22279  0.62010  Biso   1.000  C
  C59      1.0000 0.24816  0.22417  0.64962  Biso   1.000  C
  H53      1.0000 0.19550  0.23420  0.66740  Biso   1.000  H
  C60      1.0000 0.36878  0.28830  0.68108  Biso   1.000  C
  H54      1.0000 0.31080  0.30350  0.69470  Biso   1.000  H
  H55      1.0000 0.40240  0.31520  0.66460  Biso   1.000  H
  C61      1.0000 0.43740  0.26791  0.71671  Biso   1.000  C
  C62      1.0000 0.41231  0.22596  0.74251  Biso   1.000  C
  H56      1.0000 0.35230  0.20940  0.73760  Biso   1.000  H
  C63      1.0000 0.52654  0.29170  0.72503  Biso   1.000  C
  H57      1.0000 0.54530  0.32020  0.70830  Biso   1.000  H
  C64      1.0000 0.11490  0.10240  0.52083  Biso   1.000  C
  C65      1.0000 0.13080  0.17180  0.45710  Biso   1.000  C
  H58      1.0000 0.07650  0.17420  0.43680  Biso   1.000  H
  H59      1.0000 0.19210  0.17320  0.44120  Biso   1.000  H
  H60      1.0000 0.12780  0.20020  0.47750  Biso   1.000  H
  N11      1.0000 0.24200  0.68645  0.12149  Biso   1.000  N
  N12      1.0000 0.33779  0.74773  0.15094  Biso   1.000  N
  C66      1.0000 0.33568  0.68493  0.10131  Biso   1.000  C
  C67      1.0000 0.37280  0.65246  0.06907  Biso   1.000  C
  H61      1.0000 0.33350  0.62720  0.05610  Biso   1.000  H
  C68      1.0000 0.47020  0.65907  0.05693  Biso   1.000  C
  H62      1.0000 0.49710  0.63760  0.03550  Biso   1.000  H
  C69      1.0000 0.52910  0.69692  0.07577  Biso   1.000  C
  H63      1.0000 0.59420  0.70030  0.06630  Biso   1.000  H
  C70      1.0000 0.49438  0.72984  0.10806  Biso   1.000  C
  H64      1.0000 0.53410  0.75500  0.12090  Biso   1.000  H
  C71      1.0000 0.39604  0.72279  0.12010  Biso   1.000  C
  C72      1.0000 0.24816  0.72417  0.14962  Biso   1.000  C
  H65      1.0000 0.19550  0.73420  0.16740  Biso   1.000  H
  C73      1.0000 0.36878  0.78830  0.18108  Biso   1.000  C
  H66      1.0000 0.31080  0.80350  0.19470  Biso   1.000  H
  H67      1.0000 0.40240  0.81520  0.16460  Biso   1.000  H
  C74      1.0000 0.43740  0.76791  0.21671  Biso   1.000  C
  C75      1.0000 0.41231  0.72596  0.24251  Biso   1.000  C
  H68      1.0000 0.35230  0.70940  0.23760  Biso   1.000  H
  C76      1.0000 0.52654  0.79170  0.22503  Biso   1.000  C
  H69      1.0000 0.54530  0.82020  0.20830  Biso   1.000  H
  C77      1.0000 0.11490  0.60240  0.02083  Biso   1.000  C
  C78      1.0000 0.13080  0.67180  0.95710  Biso   1.000  C
  H70      1.0000 0.07650  0.67420  0.93680  Biso   1.000  H
  H71      1.0000 0.19210  0.67320  0.94120  Biso   1.000  H
  H72      1.0000 0.12780  0.70020  0.97750  Biso   1.000  H
  N13      1.0000 0.74200  0.18645  0.12149  Biso   1.000  N
  N14      1.0000 0.83779  0.24773  0.15094  Biso   1.000  N
  C79      1.0000 0.83568  0.18493  0.10131  Biso   1.000  C
  C80      1.0000 0.87280  0.15246  0.06907  Biso   1.000  C
  H73      1.0000 0.83350  0.12720  0.05610  Biso   1.000  H
  C81      1.0000 0.97020  0.15907  0.05693  Biso   1.000  C
  H74      1.0000 0.99710  0.13760  0.03550  Biso   1.000  H
  C82      1.0000 0.02910  0.19692  0.07577  Biso   1.000  C
  H75      1.0000 0.09420  0.20030  0.06630  Biso   1.000  H
  C83      1.0000 0.99438  0.22984  0.10806  Biso   1.000  C
  H76      1.0000 0.03410  0.25500  0.12090  Biso   1.000  H
  C84      1.0000 0.89604  0.22279  0.12010  Biso   1.000  C
  C85      1.0000 0.74816  0.22417  0.14962  Biso   1.000  C
  H77      1.0000 0.69550  0.23420  0.16740  Biso   1.000  H
  C86      1.0000 0.86878  0.28830  0.18108  Biso   1.000  C
  H78      1.0000 0.81080  0.30350  0.19470  Biso   1.000  H
  H79      1.0000 0.90240  0.31520  0.16460  Biso   1.000  H
  C87      1.0000 0.93740  0.26791  0.21671  Biso   1.000  C
  C88      1.0000 0.91231  0.22596  0.24251  Biso   1.000  C
  H80      1.0000 0.85230  0.20940  0.23760  Biso   1.000  H
  C89      1.0000 0.02654  0.29170  0.22503  Biso   1.000  C
  H81      1.0000 0.04530  0.32020  0.20830  Biso   1.000  H
  C90      1.0000 0.61490  0.10240  0.02083  Biso   1.000  C
  C91      1.0000 0.63080  0.17180  0.95710  Biso   1.000  C
  H82      1.0000 0.57650  0.17420  0.93680  Biso   1.000  H
  H83      1.0000 0.69210  0.17320  0.94120  Biso   1.000  H
  H84      1.0000 0.62780  0.20020  0.97750  Biso   1.000  H
  N15      1.0000 0.74200  0.68645  0.62149  Biso   1.000  N
  N16      1.0000 0.83779  0.74773  0.65094  Biso   1.000  N
  C92      1.0000 0.83568  0.68493  0.60131  Biso   1.000  C
  C93      1.0000 0.87280  0.65246  0.56907  Biso   1.000  C
  H85      1.0000 0.83350  0.62720  0.55610  Biso   1.000  H
  C94      1.0000 0.97020  0.65907  0.55693  Biso   1.000  C
  H86      1.0000 0.99710  0.63760  0.53550  Biso   1.000  H
  C95      1.0000 0.02910  0.69692  0.57577  Biso   1.000  C
  H87      1.0000 0.09420  0.70030  0.56630  Biso   1.000  H
  C96      1.0000 0.99438  0.72984  0.60806  Biso   1.000  C
  H88      1.0000 0.03410  0.75500  0.62090  Biso   1.000  H
  C97      1.0000 0.89604  0.72279  0.62010  Biso   1.000  C
  C98      1.0000 0.74816  0.72417  0.64962  Biso   1.000  C
  H89      1.0000 0.69550  0.73420  0.66740  Biso   1.000  H
  C99      1.0000 0.86878  0.78830  0.68108  Biso   1.000  C
  H90      1.0000 0.81080  0.80350  0.69470  Biso   1.000  H
  H91      1.0000 0.90240  0.81520  0.66460  Biso   1.000  H
  C100     1.0000 0.93740  0.76791  0.71671  Biso   1.000  C
  C101     1.0000 0.91231  0.72596  0.74251  Biso   1.000  C
  H92      1.0000 0.85230  0.70940  0.73760  Biso   1.000  H
  C102     1.0000 0.02654  0.79170  0.72503  Biso   1.000  C
  H93      1.0000 0.04530  0.82020  0.70830  Biso   1.000  H
  C103     1.0000 0.61490  0.60240  0.52083  Biso   1.000  C
  C104     1.0000 0.63080  0.67180  0.45710  Biso   1.000  C
  H94      1.0000 0.57650  0.67420  0.43680  Biso   1.000  H
  H95      1.0000 0.69210  0.67320  0.44120  Biso   1.000  H
  H96      1.0000 0.62780  0.70020  0.47750  Biso   1.000  H
  N17      1.0000 0.24200  0.56355  0.12851  Biso   1.000  N
  N18      1.0000 0.33779  0.50227  0.09906  Biso   1.000  N
  C105     1.0000 0.33568  0.56507  0.14869  Biso   1.000  C
  C106     1.0000 0.37280  0.59754  0.18093  Biso   1.000  C
  H97      1.0000 0.33350  0.62280  0.19390  Biso   1.000  H
  C107     1.0000 0.47020  0.59093  0.19307  Biso   1.000  C
  H98      1.0000 0.49710  0.61240  0.21450  Biso   1.000  H
  C108     1.0000 0.52910  0.55308  0.17423  Biso   1.000  C
  H99      1.0000 0.59420  0.54970  0.18370  Biso   1.000  H
  C109     1.0000 0.49438  0.52016  0.14194  Biso   1.000  C
  H100     1.0000 0.53410  0.49500  0.12910  Biso   1.000  H
  C110     1.0000 0.39604  0.52721  0.12990  Biso   1.000  C
  C111     1.0000 0.24816  0.52583  0.10038  Biso   1.000  C
  H101     1.0000 0.19550  0.51580  0.08260  Biso   1.000  H
  C112     1.0000 0.36878  0.46170  0.06892  Biso   1.000  C
  H102     1.0000 0.31080  0.44650  0.05530  Biso   1.000  H
  H103     1.0000 0.40240  0.43480  0.08540  Biso   1.000  H
  C113     1.0000 0.43740  0.48209  0.03329  Biso   1.000  C
  C114     1.0000 0.41231  0.52404  0.00749  Biso   1.000  C
  H104     1.0000 0.35230  0.54060  0.01240  Biso   1.000  H
  C115     1.0000 0.52654  0.45830  0.02497  Biso   1.000  C
  H105     1.0000 0.54530  0.42980  0.04170  Biso   1.000  H
  C116     1.0000 0.11490  0.64760  0.22917  Biso   1.000  C
  C117     1.0000 0.13080  0.57820  0.29290  Biso   1.000  C
  H106     1.0000 0.07650  0.57580  0.31320  Biso   1.000  H
  H107     1.0000 0.19210  0.57680  0.30880  Biso   1.000  H
  H108     1.0000 0.12780  0.54980  0.27250  Biso   1.000  H
  N19      1.0000 0.24200  0.06355  0.62851  Biso   1.000  N
  N20      1.0000 0.33779  0.00227  0.59906  Biso   1.000  N
  C118     1.0000 0.33568  0.06507  0.64869  Biso   1.000  C
  C119     1.0000 0.37280  0.09754  0.68093  Biso   1.000  C
  H109     1.0000 0.33350  0.12280  0.69390  Biso   1.000  H
  C120     1.0000 0.47020  0.09093  0.69307  Biso   1.000  C
  H110     1.0000 0.49710  0.11240  0.71450  Biso   1.000  H
  C121     1.0000 0.52910  0.05308  0.67423  Biso   1.000  C
  H111     1.0000 0.59420  0.04970  0.68370  Biso   1.000  H
  C122     1.0000 0.49438  0.02016  0.64194  Biso   1.000  C
  H112     1.0000 0.53410  0.99500  0.62910  Biso   1.000  H
  C123     1.0000 0.39604  0.02721  0.62990  Biso   1.000  C
  C124     1.0000 0.24816  0.02583  0.60038  Biso   1.000  C
  H113     1.0000 0.19550  0.01580  0.58260  Biso   1.000  H
  C125     1.0000 0.36878  0.96170  0.56892  Biso   1.000  C
  H114     1.0000 0.31080  0.94650  0.55530  Biso   1.000  H
  H115     1.0000 0.40240  0.93480  0.58540  Biso   1.000  H
  C126     1.0000 0.43740  0.98209  0.53329  Biso   1.000  C
  C127     1.0000 0.41231  0.02404  0.50749  Biso   1.000  C
  H116     1.0000 0.35230  0.04060  0.51240  Biso   1.000  H
  C128     1.0000 0.52654  0.95830  0.52497  Biso   1.000  C
  H117     1.0000 0.54530  0.92980  0.54170  Biso   1.000  H
  C129     1.0000 0.11490  0.14760  0.72917  Biso   1.000  C
  C130     1.0000 0.13080  0.07820  0.79290  Biso   1.000  C
  H118     1.0000 0.07650  0.07580  0.81320  Biso   1.000  H
  H119     1.0000 0.19210  0.07680  0.80880  Biso   1.000  H
  H120     1.0000 0.12780  0.04980  0.77250  Biso   1.000  H
  N21      1.0000 0.74200  0.56355  0.62851  Biso   1.000  N
  N22      1.0000 0.83779  0.50227  0.59906  Biso   1.000  N
  C131     1.0000 0.83568  0.56507  0.64869  Biso   1.000  C
  C132     1.0000 0.87280  0.59754  0.68093  Biso   1.000  C
  H121     1.0000 0.83350  0.62280  0.69390  Biso   1.000  H
  C133     1.0000 0.97020  0.59093  0.69307  Biso   1.000  C
  H122     1.0000 0.99710  0.61240  0.71450  Biso   1.000  H
  C134     1.0000 0.02910  0.55308  0.67423  Biso   1.000  C
  H123     1.0000 0.09420  0.54970  0.68370  Biso   1.000  H
  C135     1.0000 0.99438  0.52016  0.64194  Biso   1.000  C
  H124     1.0000 0.03410  0.49500  0.62910  Biso   1.000  H
  C136     1.0000 0.89604  0.52721  0.62990  Biso   1.000  C
  C137     1.0000 0.74816  0.52583  0.60038  Biso   1.000  C
  H125     1.0000 0.69550  0.51580  0.58260  Biso   1.000  H
  C138     1.0000 0.86878  0.46170  0.56892  Biso   1.000  C
  H126     1.0000 0.81080  0.44650  0.55530  Biso   1.000  H
  H127     1.0000 0.90240  0.43480  0.58540  Biso   1.000  H
  C139     1.0000 0.93740  0.48209  0.53329  Biso   1.000  C
  C140     1.0000 0.91231  0.52404  0.50749  Biso   1.000  C
  H128     1.0000 0.85230  0.54060  0.51240  Biso   1.000  H
  C141     1.0000 0.02654  0.45830  0.52497  Biso   1.000  C
  H129     1.0000 0.04530  0.42980  0.54170  Biso   1.000  H
  C142     1.0000 0.61490  0.64760  0.72917  Biso   1.000  C
  C143     1.0000 0.63080  0.57820  0.79290  Biso   1.000  C
  H130     1.0000 0.57650  0.57580  0.81320  Biso   1.000  H
  H131     1.0000 0.69210  0.57680  0.80880  Biso   1.000  H
  H132     1.0000 0.62780  0.54980  0.77250  Biso   1.000  H
  N23      1.0000 0.74200  0.06355  0.12851  Biso   1.000  N
  N24      1.0000 0.83779  0.00227  0.09906  Biso   1.000  N
  C144     1.0000 0.83568  0.06507  0.14869  Biso   1.000  C
  C145     1.0000 0.87280  0.09754  0.18093  Biso   1.000  C
  H133     1.0000 0.83350  0.12280  0.19390  Biso   1.000  H
  C146     1.0000 0.97020  0.09093  0.19307  Biso   1.000  C
  H134     1.0000 0.99710  0.11240  0.21450  Biso   1.000  H
  C147     1.0000 0.02910  0.05308  0.17423  Biso   1.000  C
  H135     1.0000 0.09420  0.04970  0.18370  Biso   1.000  H
  C148     1.0000 0.99438  0.02016  0.14194  Biso   1.000  C
  H136     1.0000 0.03410  0.99500  0.12910  Biso   1.000  H
  C149     1.0000 0.89604  0.02721  0.12990  Biso   1.000  C
  C150     1.0000 0.74816  0.02583  0.10038  Biso   1.000  C
  H137     1.0000 0.69550  0.01580  0.08260  Biso   1.000  H
  C151     1.0000 0.86878  0.96170  0.06892  Biso   1.000  C
  H138     1.0000 0.81080  0.94650  0.05530  Biso   1.000  H
  H139     1.0000 0.90240  0.93480  0.08540  Biso   1.000  H
  C152     1.0000 0.93740  0.98209  0.03329  Biso   1.000  C
  C153     1.0000 0.91231  0.02404  0.00749  Biso   1.000  C
  H140     1.0000 0.85230  0.04060  0.01240  Biso   1.000  H
  C154     1.0000 0.02654  0.95830  0.02497  Biso   1.000  C
  H141     1.0000 0.04530  0.92980  0.04170  Biso   1.000  H
  C155     1.0000 0.61490  0.14760  0.22917  Biso   1.000  C
  C156     1.0000 0.63080  0.07820  0.29290  Biso   1.000  C
  H142     1.0000 0.57650  0.07580  0.31320  Biso   1.000  H
  H143     1.0000 0.69210  0.07680  0.30880  Biso   1.000  H
  H144     1.0000 0.62780  0.04980  0.27250  Biso   1.000  H
  N25      1.0000 0.50800  0.18645  0.12851  Biso   1.000  N
  N26      1.0000 0.41221  0.24773  0.09906  Biso   1.000  N
  C157     1.0000 0.41432  0.18493  0.14869  Biso   1.000  C
  C158     1.0000 0.37720  0.15246  0.18093  Biso   1.000  C
  H145     1.0000 0.41650  0.12720  0.19390  Biso   1.000  H
  C159     1.0000 0.27980  0.15907  0.19307  Biso   1.000  C
  H146     1.0000 0.25290  0.13760  0.21450  Biso   1.000  H
  C160     1.0000 0.22090  0.19692  0.17423  Biso   1.000  C
  H147     1.0000 0.15580  0.20030  0.18370  Biso   1.000  H
  C161     1.0000 0.25562  0.22984  0.14194  Biso   1.000  C
  H148     1.0000 0.21590  0.25500  0.12910  Biso   1.000  H
  C162     1.0000 0.35396  0.22279  0.12990  Biso   1.000  C
  C163     1.0000 0.50184  0.22417  0.10038  Biso   1.000  C
  H149     1.0000 0.55450  0.23420  0.08260  Biso   1.000  H
  C164     1.0000 0.38122  0.28830  0.06892  Biso   1.000  C
  H150     1.0000 0.43920  0.30350  0.05530  Biso   1.000  H
  H151     1.0000 0.34760  0.31520  0.08540  Biso   1.000  H
  C165     1.0000 0.31260  0.26791  0.03329  Biso   1.000  C
  C166     1.0000 0.33769  0.22596  0.00749  Biso   1.000  C
  H152     1.0000 0.39770  0.20940  0.01240  Biso   1.000  H
  C167     1.0000 0.22346  0.29170  0.02497  Biso   1.000  C
  H153     1.0000 0.20470  0.32020  0.04170  Biso   1.000  H
  C168     1.0000 0.63510  0.10240  0.22917  Biso   1.000  C
  C169     1.0000 0.61920  0.17180  0.29290  Biso   1.000  C
  H154     1.0000 0.67350  0.17420  0.31320  Biso   1.000  H
  H155     1.0000 0.55790  0.17320  0.30880  Biso   1.000  H
  H156     1.0000 0.62220  0.20020  0.27250  Biso   1.000  H
  N27      1.0000 0.50800  0.68645  0.62851  Biso   1.000  N
  N28      1.0000 0.41221  0.74773  0.59906  Biso   1.000  N
  C170     1.0000 0.41432  0.68493  0.64869  Biso   1.000  C
  C171     1.0000 0.37720  0.65246  0.68093  Biso   1.000  C
  H157     1.0000 0.41650  0.62720  0.69390  Biso   1.000  H
  C172     1.0000 0.27980  0.65907  0.69307  Biso   1.000  C
  H158     1.0000 0.25290  0.63760  0.71450  Biso   1.000  H
  C173     1.0000 0.22090  0.69692  0.67423  Biso   1.000  C
  H159     1.0000 0.15580  0.70030  0.68370  Biso   1.000  H
  C174     1.0000 0.25562  0.72984  0.64194  Biso   1.000  C
  H160     1.0000 0.21590  0.75500  0.62910  Biso   1.000  H
  C175     1.0000 0.35396  0.72279  0.62990  Biso   1.000  C
  C176     1.0000 0.50184  0.72417  0.60038  Biso   1.000  C
  H161     1.0000 0.55450  0.73420  0.58260  Biso   1.000  H
  C177     1.0000 0.38122  0.78830  0.56892  Biso   1.000  C
  H162     1.0000 0.43920  0.80350  0.55530  Biso   1.000  H
  H163     1.0000 0.34760  0.81520  0.58540  Biso   1.000  H
  C178     1.0000 0.31260  0.76791  0.53329  Biso   1.000  C
  C179     1.0000 0.33769  0.72596  0.50749  Biso   1.000  C
  H164     1.0000 0.39770  0.70940  0.51240  Biso   1.000  H
  C180     1.0000 0.22346  0.79170  0.52497  Biso   1.000  C
  H165     1.0000 0.20470  0.82020  0.54170  Biso   1.000  H
  C181     1.0000 0.63510  0.60240  0.72917  Biso   1.000  C
  C182     1.0000 0.61920  0.67180  0.79290  Biso   1.000  C
  H166     1.0000 0.67350  0.67420  0.81320  Biso   1.000  H
  H167     1.0000 0.55790  0.67320  0.80880  Biso   1.000  H
  H168     1.0000 0.62220  0.70020  0.77250  Biso   1.000  H
  N29      1.0000 0.00800  0.18645  0.62851  Biso   1.000  N
  N30      1.0000 0.91221  0.24773  0.59906  Biso   1.000  N
  C183     1.0000 0.91432  0.18493  0.64869  Biso   1.000  C
  C184     1.0000 0.87720  0.15246  0.68093  Biso   1.000  C
  H169     1.0000 0.91650  0.12720  0.69390  Biso   1.000  H
  C185     1.0000 0.77980  0.15907  0.69307  Biso   1.000  C
  H170     1.0000 0.75290  0.13760  0.71450  Biso   1.000  H
  C186     1.0000 0.72090  0.19692  0.67423  Biso   1.000  C
  H171     1.0000 0.65580  0.20030  0.68370  Biso   1.000  H
  C187     1.0000 0.75562  0.22984  0.64194  Biso   1.000  C
  H172     1.0000 0.71590  0.25500  0.62910  Biso   1.000  H
  C188     1.0000 0.85396  0.22279  0.62990  Biso   1.000  C
  C189     1.0000 0.00184  0.22417  0.60038  Biso   1.000  C
  H173     1.0000 0.05450  0.23420  0.58260  Biso   1.000  H
  C190     1.0000 0.88122  0.28830  0.56892  Biso   1.000  C
  H174     1.0000 0.93920  0.30350  0.55530  Biso   1.000  H
  H175     1.0000 0.84760  0.31520  0.58540  Biso   1.000  H
  C191     1.0000 0.81260  0.26791  0.53329  Biso   1.000  C
  C192     1.0000 0.83769  0.22596  0.50749  Biso   1.000  C
  H176     1.0000 0.89770  0.20940  0.51240  Biso   1.000  H
  C193     1.0000 0.72346  0.29170  0.52497  Biso   1.000  C
  H177     1.0000 0.70470  0.32020  0.54170  Biso   1.000  H
  C194     1.0000 0.13510  0.10240  0.72917  Biso   1.000  C
  C195     1.0000 0.11920  0.17180  0.79290  Biso   1.000  C
  H178     1.0000 0.17350  0.17420  0.81320  Biso   1.000  H
  H179     1.0000 0.05790  0.17320  0.80880  Biso   1.000  H
  H180     1.0000 0.12220  0.20020  0.77250  Biso   1.000  H
  N31      1.0000 0.00800  0.68645  0.12851  Biso   1.000  N
  N32      1.0000 0.91221  0.74773  0.09906  Biso   1.000  N
  C196     1.0000 0.91432  0.68493  0.14869  Biso   1.000  C
  C197     1.0000 0.87720  0.65246  0.18093  Biso   1.000  C
  H181     1.0000 0.91650  0.62720  0.19390  Biso   1.000  H
  C198     1.0000 0.77980  0.65907  0.19307  Biso   1.000  C
  H182     1.0000 0.75290  0.63760  0.21450  Biso   1.000  H
  C199     1.0000 0.72090  0.69692  0.17423  Biso   1.000  C
  H183     1.0000 0.65580  0.70030  0.18370  Biso   1.000  H
  C200     1.0000 0.75562  0.72984  0.14194  Biso   1.000  C
  H184     1.0000 0.71590  0.75500  0.12910  Biso   1.000  H
  C201     1.0000 0.85396  0.72279  0.12990  Biso   1.000  C
  C202     1.0000 0.00184  0.72417  0.10038  Biso   1.000  C
  H185     1.0000 0.05450  0.73420  0.08260  Biso   1.000  H
  C203     1.0000 0.88122  0.78830  0.06892  Biso   1.000  C
  H186     1.0000 0.93920  0.80350  0.05530  Biso   1.000  H
  H187     1.0000 0.84760  0.81520  0.08540  Biso   1.000  H
  C204     1.0000 0.81260  0.76791  0.03329  Biso   1.000  C
  C205     1.0000 0.83769  0.72596  0.00749  Biso   1.000  C
  H188     1.0000 0.89770  0.70940  0.01240  Biso   1.000  H
  C206     1.0000 0.72346  0.79170  0.02497  Biso   1.000  C
  H189     1.0000 0.70470  0.82020  0.04170  Biso   1.000  H
  C207     1.0000 0.13510  0.60240  0.22917  Biso   1.000  C
  C208     1.0000 0.11920  0.67180  0.29290  Biso   1.000  C
  H190     1.0000 0.17350  0.67420  0.31320  Biso   1.000  H
  H191     1.0000 0.05790  0.67320  0.30880  Biso   1.000  H
  H192     1.0000 0.12220  0.70020  0.27250  Biso   1.000  H
  N33      1.0000 0.49200  0.43645  0.37851  Biso   1.000  N
  N34      1.0000 0.58779  0.49773  0.34906  Biso   1.000  N
  C209     1.0000 0.58568  0.43493  0.39869  Biso   1.000  C
  C210     1.0000 0.62280  0.40246  0.43093  Biso   1.000  C
  H193     1.0000 0.58350  0.37720  0.44390  Biso   1.000  H
  C211     1.0000 0.72020  0.40907  0.44307  Biso   1.000  C
  H194     1.0000 0.74710  0.38760  0.46450  Biso   1.000  H
  C212     1.0000 0.77910  0.44692  0.42423  Biso   1.000  C
  H195     1.0000 0.84420  0.45030  0.43370  Biso   1.000  H
  C213     1.0000 0.74438  0.47984  0.39194  Biso   1.000  C
  H196     1.0000 0.78410  0.50500  0.37910  Biso   1.000  H
  C214     1.0000 0.64604  0.47279  0.37990  Biso   1.000  C
  C215     1.0000 0.49816  0.47417  0.35038  Biso   1.000  C
  H197     1.0000 0.44550  0.48420  0.33260  Biso   1.000  H
  C216     1.0000 0.61878  0.53830  0.31892  Biso   1.000  C
  H198     1.0000 0.56080  0.55350  0.30530  Biso   1.000  H
  H199     1.0000 0.65240  0.56520  0.33540  Biso   1.000  H
  C217     1.0000 0.68740  0.51791  0.28329  Biso   1.000  C
  C218     1.0000 0.66231  0.47596  0.25749  Biso   1.000  C
  H200     1.0000 0.60230  0.45940  0.26240  Biso   1.000  H
  C219     1.0000 0.77654  0.54170  0.27497  Biso   1.000  C
  H201     1.0000 0.79530  0.57020  0.29170  Biso   1.000  H
  C220     1.0000 0.36490  0.35240  0.47917  Biso   1.000  C
  C221     1.0000 0.38080  0.42180  0.54290  Biso   1.000  C
  H202     1.0000 0.32650  0.42420  0.56320  Biso   1.000  H
  H203     1.0000 0.44210  0.42320  0.55880  Biso   1.000  H
  H204     1.0000 0.37780  0.45020  0.52250  Biso   1.000  H
  N35      1.0000 0.49200  0.93645  0.87851  Biso   1.000  N
  N36      1.0000 0.58779  0.99773  0.84906  Biso   1.000  N
  C222     1.0000 0.58568  0.93493  0.89869  Biso   1.000  C
  C223     1.0000 0.62280  0.90246  0.93093  Biso   1.000  C
  H205     1.0000 0.58350  0.87720  0.94390  Biso   1.000  H
  C224     1.0000 0.72020  0.90907  0.94307  Biso   1.000  C
  H206     1.0000 0.74710  0.88760  0.96450  Biso   1.000  H
  C225     1.0000 0.77910  0.94692  0.92423  Biso   1.000  C
  H207     1.0000 0.84420  0.95030  0.93370  Biso   1.000  H
  C226     1.0000 0.74438  0.97984  0.89194  Biso   1.000  C
  H208     1.0000 0.78410  0.00500  0.87910  Biso   1.000  H
  C227     1.0000 0.64604  0.97279  0.87990  Biso   1.000  C
  C228     1.0000 0.49816  0.97417  0.85038  Biso   1.000  C
  H209     1.0000 0.44550  0.98420  0.83260  Biso   1.000  H
  C229     1.0000 0.61878  0.03830  0.81892  Biso   1.000  C
  H210     1.0000 0.56080  0.05350  0.80530  Biso   1.000  H
  H211     1.0000 0.65240  0.06520  0.83540  Biso   1.000  H
  C230     1.0000 0.68740  0.01791  0.78329  Biso   1.000  C
  C231     1.0000 0.66231  0.97596  0.75749  Biso   1.000  C
  H212     1.0000 0.60230  0.95940  0.76240  Biso   1.000  H
  C232     1.0000 0.77654  0.04170  0.77497  Biso   1.000  C
  H213     1.0000 0.79530  0.07020  0.79170  Biso   1.000  H
  C233     1.0000 0.36490  0.85240  0.97917  Biso   1.000  C
  C234     1.0000 0.38080  0.92180  0.04290  Biso   1.000  C
  H214     1.0000 0.32650  0.92420  0.06320  Biso   1.000  H
  H215     1.0000 0.44210  0.92320  0.05880  Biso   1.000  H
  H216     1.0000 0.37780  0.95020  0.02250  Biso   1.000  H
  N37      1.0000 0.99200  0.43645  0.87851  Biso   1.000  N
  N38      1.0000 0.08779  0.49773  0.84906  Biso   1.000  N
  C235     1.0000 0.08568  0.43493  0.89869  Biso   1.000  C
  C236     1.0000 0.12280  0.40246  0.93093  Biso   1.000  C
  H217     1.0000 0.08350  0.37720  0.94390  Biso   1.000  H
  C237     1.0000 0.22020  0.40907  0.94307  Biso   1.000  C
  H218     1.0000 0.24710  0.38760  0.96450  Biso   1.000  H
  C238     1.0000 0.27910  0.44692  0.92423  Biso   1.000  C
  H219     1.0000 0.34420  0.45030  0.93370  Biso   1.000  H
  C239     1.0000 0.24438  0.47984  0.89194  Biso   1.000  C
  H220     1.0000 0.28410  0.50500  0.87910  Biso   1.000  H
  C240     1.0000 0.14604  0.47279  0.87990  Biso   1.000  C
  C241     1.0000 0.99816  0.47417  0.85038  Biso   1.000  C
  H221     1.0000 0.94550  0.48420  0.83260  Biso   1.000  H
  C242     1.0000 0.11878  0.53830  0.81892  Biso   1.000  C
  H222     1.0000 0.06080  0.55350  0.80530  Biso   1.000  H
  H223     1.0000 0.15240  0.56520  0.83540  Biso   1.000  H
  C243     1.0000 0.18740  0.51791  0.78329  Biso   1.000  C
  C244     1.0000 0.16231  0.47596  0.75749  Biso   1.000  C
  H224     1.0000 0.10230  0.45940  0.76240  Biso   1.000  H
  C245     1.0000 0.27654  0.54170  0.77497  Biso   1.000  C
  H225     1.0000 0.29530  0.57020  0.79170  Biso   1.000  H
  C246     1.0000 0.86490  0.35240  0.97917  Biso   1.000  C
  C247     1.0000 0.88080  0.42180  0.04290  Biso   1.000  C
  H226     1.0000 0.82650  0.42420  0.06320  Biso   1.000  H
  H227     1.0000 0.94210  0.42320  0.05880  Biso   1.000  H
  H228     1.0000 0.87780  0.45020  0.02250  Biso   1.000  H
  N39      1.0000 0.99200  0.93645  0.37851  Biso   1.000  N
  N40      1.0000 0.08779  0.99773  0.34906  Biso   1.000  N
  C248     1.0000 0.08568  0.93493  0.39869  Biso   1.000  C
  C249     1.0000 0.12280  0.90246  0.43093  Biso   1.000  C
  H229     1.0000 0.08350  0.87720  0.44390  Biso   1.000  H
  C250     1.0000 0.22020  0.90907  0.44307  Biso   1.000  C
  H230     1.0000 0.24710  0.88760  0.46450  Biso   1.000  H
  C251     1.0000 0.27910  0.94692  0.42423  Biso   1.000  C
  H231     1.0000 0.34420  0.95030  0.43370  Biso   1.000  H
  C252     1.0000 0.24438  0.97984  0.39194  Biso   1.000  C
  H232     1.0000 0.28410  0.00500  0.37910  Biso   1.000  H
  C253     1.0000 0.14604  0.97279  0.37990  Biso   1.000  C
  C254     1.0000 0.99816  0.97417  0.35038  Biso   1.000  C
  H233     1.0000 0.94550  0.98420  0.33260  Biso   1.000  H
  C255     1.0000 0.11878  0.03830  0.31892  Biso   1.000  C
  H234     1.0000 0.06080  0.05350  0.30530  Biso   1.000  H
  H235     1.0000 0.15240  0.06520  0.33540  Biso   1.000  H
  C256     1.0000 0.18740  0.01791  0.28329  Biso   1.000  C
  C257     1.0000 0.16231  0.97596  0.25749  Biso   1.000  C
  H236     1.0000 0.10230  0.95940  0.26240  Biso   1.000  H
  C258     1.0000 0.27654  0.04170  0.27497  Biso   1.000  C
  H237     1.0000 0.29530  0.07020  0.29170  Biso   1.000  H
  C259     1.0000 0.86490  0.85240  0.47917  Biso   1.000  C
  C260     1.0000 0.88080  0.92180  0.54290  Biso   1.000  C
  H238     1.0000 0.82650  0.92420  0.56320  Biso   1.000  H
  H239     1.0000 0.94210  0.92320  0.55880  Biso   1.000  H
  H240     1.0000 0.87780  0.95020  0.52250  Biso   1.000  H
  N41      1.0000 0.75800  0.81355  0.37851  Biso   1.000  N
  N42      1.0000 0.66221  0.75227  0.34906  Biso   1.000  N
  C261     1.0000 0.66432  0.81507  0.39869  Biso   1.000  C
  C262     1.0000 0.62720  0.84754  0.43093  Biso   1.000  C
  H241     1.0000 0.66650  0.87280  0.44390  Biso   1.000  H
  C263     1.0000 0.52980  0.84093  0.44307  Biso   1.000  C
  H242     1.0000 0.50290  0.86240  0.46450  Biso   1.000  H
  C264     1.0000 0.47090  0.80308  0.42423  Biso   1.000  C
  H243     1.0000 0.40580  0.79970  0.43370  Biso   1.000  H
  C265     1.0000 0.50562  0.77016  0.39194  Biso   1.000  C
  H244     1.0000 0.46590  0.74500  0.37910  Biso   1.000  H
  C266     1.0000 0.60396  0.77721  0.37990  Biso   1.000  C
  C267     1.0000 0.75184  0.77583  0.35038  Biso   1.000  C
  H245     1.0000 0.80450  0.76580  0.33260  Biso   1.000  H
  C268     1.0000 0.63122  0.71170  0.31892  Biso   1.000  C
  H246     1.0000 0.68920  0.69650  0.30530  Biso   1.000  H
  H247     1.0000 0.59760  0.68480  0.33540  Biso   1.000  H
  C269     1.0000 0.56260  0.73209  0.28329  Biso   1.000  C
  C270     1.0000 0.58769  0.77404  0.25749  Biso   1.000  C
  H248     1.0000 0.64770  0.79060  0.26240  Biso   1.000  H
  C271     1.0000 0.47346  0.70830  0.27497  Biso   1.000  C
  H249     1.0000 0.45470  0.67980  0.29170  Biso   1.000  H
  C272     1.0000 0.88510  0.89760  0.47917  Biso   1.000  C
  C273     1.0000 0.86920  0.82820  0.54290  Biso   1.000  C
  H250     1.0000 0.92350  0.82580  0.56320  Biso   1.000  H
  H251     1.0000 0.80790  0.82680  0.55880  Biso   1.000  H
  H252     1.0000 0.87220  0.79980  0.52250  Biso   1.000  H
  N43      1.0000 0.75800  0.31355  0.87851  Biso   1.000  N
  N44      1.0000 0.66221  0.25227  0.84906  Biso   1.000  N
  C274     1.0000 0.66432  0.31507  0.89869  Biso   1.000  C
  C275     1.0000 0.62720  0.34754  0.93093  Biso   1.000  C
  H253     1.0000 0.66650  0.37280  0.94390  Biso   1.000  H
  C276     1.0000 0.52980  0.34093  0.94307  Biso   1.000  C
  H254     1.0000 0.50290  0.36240  0.96450  Biso   1.000  H
  C277     1.0000 0.47090  0.30308  0.92423  Biso   1.000  C
  H255     1.0000 0.40580  0.29970  0.93370  Biso   1.000  H
  C278     1.0000 0.50562  0.27016  0.89194  Biso   1.000  C
  H256     1.0000 0.46590  0.24500  0.87910  Biso   1.000  H
  C279     1.0000 0.60396  0.27721  0.87990  Biso   1.000  C
  C280     1.0000 0.75184  0.27583  0.85038  Biso   1.000  C
  H257     1.0000 0.80450  0.26580  0.83260  Biso   1.000  H
  C281     1.0000 0.63122  0.21170  0.81892  Biso   1.000  C
  H258     1.0000 0.68920  0.19650  0.80530  Biso   1.000  H
  H259     1.0000 0.59760  0.18480  0.83540  Biso   1.000  H
  C282     1.0000 0.56260  0.23209  0.78329  Biso   1.000  C
  C283     1.0000 0.58769  0.27404  0.75749  Biso   1.000  C
  H260     1.0000 0.64770  0.29060  0.76240  Biso   1.000  H
  C284     1.0000 0.47346  0.20830  0.77497  Biso   1.000  C
  H261     1.0000 0.45470  0.17980  0.79170  Biso   1.000  H
  C285     1.0000 0.88510  0.39760  0.97917  Biso   1.000  C
  C286     1.0000 0.86920  0.32820  0.04290  Biso   1.000  C
  H262     1.0000 0.92350  0.32580  0.06320  Biso   1.000  H
  H263     1.0000 0.80790  0.32680  0.05880  Biso   1.000  H
  H264     1.0000 0.87220  0.29980  0.02250  Biso   1.000  H
  N45      1.0000 0.25800  0.81355  0.87851  Biso   1.000  N
  N46      1.0000 0.16221  0.75227  0.84906  Biso   1.000  N
  C287     1.0000 0.16432  0.81507  0.89869  Biso   1.000  C
  C288     1.0000 0.12720  0.84754  0.93093  Biso   1.000  C
  H265     1.0000 0.16650  0.87280  0.94390  Biso   1.000  H
  C289     1.0000 0.02980  0.84093  0.94307  Biso   1.000  C
  H266     1.0000 0.00290  0.86240  0.96450  Biso   1.000  H
  C290     1.0000 0.97090  0.80308  0.92423  Biso   1.000  C
  H267     1.0000 0.90580  0.79970  0.93370  Biso   1.000  H
  C291     1.0000 0.00562  0.77016  0.89194  Biso   1.000  C
  H268     1.0000 0.96590  0.74500  0.87910  Biso   1.000  H
  C292     1.0000 0.10396  0.77721  0.87990  Biso   1.000  C
  C293     1.0000 0.25184  0.77583  0.85038  Biso   1.000  C
  H269     1.0000 0.30450  0.76580  0.83260  Biso   1.000  H
  C294     1.0000 0.13122  0.71170  0.81892  Biso   1.000  C
  H270     1.0000 0.18920  0.69650  0.80530  Biso   1.000  H
  H271     1.0000 0.09760  0.68480  0.83540  Biso   1.000  H
  C295     1.0000 0.06260  0.73209  0.78329  Biso   1.000  C
  C296     1.0000 0.08769  0.77404  0.75749  Biso   1.000  C
  H272     1.0000 0.14770  0.79060  0.76240  Biso   1.000  H
  C297     1.0000 0.97346  0.70830  0.77497  Biso   1.000  C
  H273     1.0000 0.95470  0.67980  0.79170  Biso   1.000  H
  C298     1.0000 0.38510  0.89760  0.97917  Biso   1.000  C
  C299     1.0000 0.36920  0.82820  0.04290  Biso   1.000  C
  H274     1.0000 0.42350  0.82580  0.06320  Biso   1.000  H
  H275     1.0000 0.30790  0.82680  0.05880  Biso   1.000  H
  H276     1.0000 0.37220  0.79980  0.02250  Biso   1.000  H
  N47      1.0000 0.25800  0.31355  0.37851  Biso   1.000  N
  N48      1.0000 0.16221  0.25227  0.34906  Biso   1.000  N
  C300     1.0000 0.16432  0.31507  0.39869  Biso   1.000  C
  C301     1.0000 0.12720  0.34754  0.43093  Biso   1.000  C
  H277     1.0000 0.16650  0.37280  0.44390  Biso   1.000  H
  C302     1.0000 0.02980  0.34093  0.44307  Biso   1.000  C
  H278     1.0000 0.00290  0.36240  0.46450  Biso   1.000  H
  C303     1.0000 0.97090  0.30308  0.42423  Biso   1.000  C
  H279     1.0000 0.90580  0.29970  0.43370  Biso   1.000  H
  C304     1.0000 0.00562  0.27016  0.39194  Biso   1.000  C
  H280     1.0000 0.96590  0.24500  0.37910  Biso   1.000  H
  C305     1.0000 0.10396  0.27721  0.37990  Biso   1.000  C
  C306     1.0000 0.25184  0.27583  0.35038  Biso   1.000  C
  H281     1.0000 0.30450  0.26580  0.33260  Biso   1.000  H
  C307     1.0000 0.13122  0.21170  0.31892  Biso   1.000  C
  H282     1.0000 0.18920  0.19650  0.30530  Biso   1.000  H
  H283     1.0000 0.09760  0.18480  0.33540  Biso   1.000  H
  C308     1.0000 0.06260  0.23209  0.28329  Biso   1.000  C
  C309     1.0000 0.08769  0.27404  0.25749  Biso   1.000  C
  H284     1.0000 0.14770  0.29060  0.26240  Biso   1.000  H
  C310     1.0000 0.97346  0.20830  0.27497  Biso   1.000  C
  H285     1.0000 0.95470  0.17980  0.29170  Biso   1.000  H
  C311     1.0000 0.38510  0.39760  0.47917  Biso   1.000  C
  C312     1.0000 0.36920  0.32820  0.54290  Biso   1.000  C
  H286     1.0000 0.42350  0.32580  0.56320  Biso   1.000  H
  H287     1.0000 0.30790  0.32680  0.55880  Biso   1.000  H
  H288     1.0000 0.37220  0.29980  0.52250  Biso   1.000  H
  N49      1.0000 0.75800  0.43645  0.87149  Biso   1.000  N
  N50      1.0000 0.66221  0.49773  0.90094  Biso   1.000  N
  C313     1.0000 0.66432  0.43493  0.85131  Biso   1.000  C
  C314     1.0000 0.62720  0.40246  0.81907  Biso   1.000  C
  H289     1.0000 0.66650  0.37720  0.80610  Biso   1.000  H
  C315     1.0000 0.52980  0.40907  0.80693  Biso   1.000  C
  H290     1.0000 0.50290  0.38760  0.78550  Biso   1.000  H
  C316     1.0000 0.47090  0.44692  0.82577  Biso   1.000  C
  H291     1.0000 0.40580  0.45030  0.81630  Biso   1.000  H
  C317     1.0000 0.50562  0.47984  0.85806  Biso   1.000  C
  H292     1.0000 0.46590  0.50500  0.87090  Biso   1.000  H
  C318     1.0000 0.60396  0.47279  0.87010  Biso   1.000  C
  C319     1.0000 0.75184  0.47417  0.89962  Biso   1.000  C
  H293     1.0000 0.80450  0.48420  0.91740  Biso   1.000  H
  C320     1.0000 0.63122  0.53830  0.93108  Biso   1.000  C
  H294     1.0000 0.68920  0.55350  0.94470  Biso   1.000  H
  H295     1.0000 0.59760  0.56520  0.91460  Biso   1.000  H
  C321     1.0000 0.56260  0.51791  0.96671  Biso   1.000  C
  C322     1.0000 0.58769  0.47596  0.99251  Biso   1.000  C
  H296     1.0000 0.64770  0.45940  0.98760  Biso   1.000  H
  C323     1.0000 0.47346  0.54170  0.97503  Biso   1.000  C
  H297     1.0000 0.45470  0.57020  0.95830  Biso   1.000  H
  C324     1.0000 0.88510  0.35240  0.77083  Biso   1.000  C
  C325     1.0000 0.86920  0.42180  0.70710  Biso   1.000  C
  H298     1.0000 0.92350  0.42420  0.68680  Biso   1.000  H
  H299     1.0000 0.80790  0.42320  0.69120  Biso   1.000  H
  H300     1.0000 0.87220  0.45020  0.72750  Biso   1.000  H
  N51      1.0000 0.75800  0.93645  0.37149  Biso   1.000  N
  N52      1.0000 0.66221  0.99773  0.40094  Biso   1.000  N
  C326     1.0000 0.66432  0.93493  0.35131  Biso   1.000  C
  C327     1.0000 0.62720  0.90246  0.31907  Biso   1.000  C
  H301     1.0000 0.66650  0.87720  0.30610  Biso   1.000  H
  C328     1.0000 0.52980  0.90907  0.30693  Biso   1.000  C
  H302     1.0000 0.50290  0.88760  0.28550  Biso   1.000  H
  C329     1.0000 0.47090  0.94692  0.32577  Biso   1.000  C
  H303     1.0000 0.40580  0.95030  0.31630  Biso   1.000  H
  C330     1.0000 0.50562  0.97984  0.35806  Biso   1.000  C
  H304     1.0000 0.46590  0.00500  0.37090  Biso   1.000  H
  C331     1.0000 0.60396  0.97279  0.37010  Biso   1.000  C
  C332     1.0000 0.75184  0.97417  0.39962  Biso   1.000  C
  H305     1.0000 0.80450  0.98420  0.41740  Biso   1.000  H
  C333     1.0000 0.63122  0.03830  0.43108  Biso   1.000  C
  H306     1.0000 0.68920  0.05350  0.44470  Biso   1.000  H
  H307     1.0000 0.59760  0.06520  0.41460  Biso   1.000  H
  C334     1.0000 0.56260  0.01791  0.46671  Biso   1.000  C
  C335     1.0000 0.58769  0.97596  0.49251  Biso   1.000  C
  H308     1.0000 0.64770  0.95940  0.48760  Biso   1.000  H
  C336     1.0000 0.47346  0.04170  0.47503  Biso   1.000  C
  H309     1.0000 0.45470  0.07020  0.45830  Biso   1.000  H
  C337     1.0000 0.88510  0.85240  0.27083  Biso   1.000  C
  C338     1.0000 0.86920  0.92180  0.20710  Biso   1.000  C
  H310     1.0000 0.92350  0.92420  0.18680  Biso   1.000  H
  H311     1.0000 0.80790  0.92320  0.19120  Biso   1.000  H
  H312     1.0000 0.87220  0.95020  0.22750  Biso   1.000  H
  N53      1.0000 0.25800  0.43645  0.37149  Biso   1.000  N
  N54      1.0000 0.16221  0.49773  0.40094  Biso   1.000  N
  C339     1.0000 0.16432  0.43493  0.35131  Biso   1.000  C
  C340     1.0000 0.12720  0.40246  0.31907  Biso   1.000  C
  H313     1.0000 0.16650  0.37720  0.30610  Biso   1.000  H
  C341     1.0000 0.02980  0.40907  0.30693  Biso   1.000  C
  H314     1.0000 0.00290  0.38760  0.28550  Biso   1.000  H
  C342     1.0000 0.97090  0.44692  0.32577  Biso   1.000  C
  H315     1.0000 0.90580  0.45030  0.31630  Biso   1.000  H
  C343     1.0000 0.00562  0.47984  0.35806  Biso   1.000  C
  H316     1.0000 0.96590  0.50500  0.37090  Biso   1.000  H
  C344     1.0000 0.10396  0.47279  0.37010  Biso   1.000  C
  C345     1.0000 0.25184  0.47417  0.39962  Biso   1.000  C
  H317     1.0000 0.30450  0.48420  0.41740  Biso   1.000  H
  C346     1.0000 0.13122  0.53830  0.43108  Biso   1.000  C
  H318     1.0000 0.18920  0.55350  0.44470  Biso   1.000  H
  H319     1.0000 0.09760  0.56520  0.41460  Biso   1.000  H
  C347     1.0000 0.06260  0.51791  0.46671  Biso   1.000  C
  C348     1.0000 0.08769  0.47596  0.49251  Biso   1.000  C
  H320     1.0000 0.14770  0.45940  0.48760  Biso   1.000  H
  C349     1.0000 0.97346  0.54170  0.47503  Biso   1.000  C
  H321     1.0000 0.95470  0.57020  0.45830  Biso   1.000  H
  C350     1.0000 0.38510  0.35240  0.27083  Biso   1.000  C
  C351     1.0000 0.36920  0.42180  0.20710  Biso   1.000  C
  H322     1.0000 0.42350  0.42420  0.18680  Biso   1.000  H
  H323     1.0000 0.30790  0.42320  0.19120  Biso   1.000  H
  H324     1.0000 0.37220  0.45020  0.22750  Biso   1.000  H
  N55      1.0000 0.25800  0.93645  0.87149  Biso   1.000  N
  N56      1.0000 0.16221  0.99773  0.90094  Biso   1.000  N
  C352     1.0000 0.16432  0.93493  0.85131  Biso   1.000  C
  C353     1.0000 0.12720  0.90246  0.81907  Biso   1.000  C
  H325     1.0000 0.16650  0.87720  0.80610  Biso   1.000  H
  C354     1.0000 0.02980  0.90907  0.80693  Biso   1.000  C
  H326     1.0000 0.00290  0.88760  0.78550  Biso   1.000  H
  C355     1.0000 0.97090  0.94692  0.82577  Biso   1.000  C
  H327     1.0000 0.90580  0.95030  0.81630  Biso   1.000  H
  C356     1.0000 0.00562  0.97984  0.85806  Biso   1.000  C
  H328     1.0000 0.96590  0.00500  0.87090  Biso   1.000  H
  C357     1.0000 0.10396  0.97279  0.87010  Biso   1.000  C
  C358     1.0000 0.25184  0.97417  0.89962  Biso   1.000  C
  H329     1.0000 0.30450  0.98420  0.91740  Biso   1.000  H
  C359     1.0000 0.13122  0.03830  0.93108  Biso   1.000  C
  H330     1.0000 0.18920  0.05350  0.94470  Biso   1.000  H
  H331     1.0000 0.09760  0.06520  0.91460  Biso   1.000  H
  C360     1.0000 0.06260  0.01791  0.96671  Biso   1.000  C
  C361     1.0000 0.08769  0.97596  0.99251  Biso   1.000  C
  H332     1.0000 0.14770  0.95940  0.98760  Biso   1.000  H
  C362     1.0000 0.97346  0.04170  0.97503  Biso   1.000  C
  H333     1.0000 0.95470  0.07020  0.95830  Biso   1.000  H
  C363     1.0000 0.38510  0.85240  0.77083  Biso   1.000  C
  C364     1.0000 0.36920  0.92180  0.70710  Biso   1.000  C
  H334     1.0000 0.42350  0.92420  0.68680  Biso   1.000  H
  H335     1.0000 0.30790  0.92320  0.69120  Biso   1.000  H
  H336     1.0000 0.37220  0.95020  0.72750  Biso   1.000  H
  N57      1.0000 0.49200  0.81355  0.87149  Biso   1.000  N
  N58      1.0000 0.58779  0.75227  0.90094  Biso   1.000  N
  C365     1.0000 0.58568  0.81507  0.85131  Biso   1.000  C
  C366     1.0000 0.62280  0.84754  0.81907  Biso   1.000  C
  H337     1.0000 0.58350  0.87280  0.80610  Biso   1.000  H
  C367     1.0000 0.72020  0.84093  0.80693  Biso   1.000  C
  H338     1.0000 0.74710  0.86240  0.78550  Biso   1.000  H
  C368     1.0000 0.77910  0.80308  0.82577  Biso   1.000  C
  H339     1.0000 0.84420  0.79970  0.81630  Biso   1.000  H
  C369     1.0000 0.74438  0.77016  0.85806  Biso   1.000  C
  H340     1.0000 0.78410  0.74500  0.87090  Biso   1.000  H
  C370     1.0000 0.64604  0.77721  0.87010  Biso   1.000  C
  C371     1.0000 0.49816  0.77583  0.89962  Biso   1.000  C
  H341     1.0000 0.44550  0.76580  0.91740  Biso   1.000  H
  C372     1.0000 0.61878  0.71170  0.93108  Biso   1.000  C
  H342     1.0000 0.56080  0.69650  0.94470  Biso   1.000  H
  H343     1.0000 0.65240  0.68480  0.91460  Biso   1.000  H
  C373     1.0000 0.68740  0.73209  0.96671  Biso   1.000  C
  C374     1.0000 0.66231  0.77404  0.99251  Biso   1.000  C
  H344     1.0000 0.60230  0.79060  0.98760  Biso   1.000  H
  C375     1.0000 0.77654  0.70830  0.97503  Biso   1.000  C
  H345     1.0000 0.79530  0.67980  0.95830  Biso   1.000  H
  C376     1.0000 0.36490  0.89760  0.77083  Biso   1.000  C
  C377     1.0000 0.38080  0.82820  0.70710  Biso   1.000  C
  H346     1.0000 0.32650  0.82580  0.68680  Biso   1.000  H
  H347     1.0000 0.44210  0.82680  0.69120  Biso   1.000  H
  H348     1.0000 0.37780  0.79980  0.72750  Biso   1.000  H
  N59      1.0000 0.49200  0.31355  0.37149  Biso   1.000  N
  N60      1.0000 0.58779  0.25227  0.40094  Biso   1.000  N
  C378     1.0000 0.58568  0.31507  0.35131  Biso   1.000  C
  C379     1.0000 0.62280  0.34754  0.31907  Biso   1.000  C
  H349     1.0000 0.58350  0.37280  0.30610  Biso   1.000  H
  C380     1.0000 0.72020  0.34093  0.30693  Biso   1.000  C
  H350     1.0000 0.74710  0.36240  0.28550  Biso   1.000  H
  C381     1.0000 0.77910  0.30308  0.32577  Biso   1.000  C
  H351     1.0000 0.84420  0.29970  0.31630  Biso   1.000  H
  C382     1.0000 0.74438  0.27016  0.35806  Biso   1.000  C
  H352     1.0000 0.78410  0.24500  0.37090  Biso   1.000  H
  C383     1.0000 0.64604  0.27721  0.37010  Biso   1.000  C
  C384     1.0000 0.49816  0.27583  0.39962  Biso   1.000  C
  H353     1.0000 0.44550  0.26580  0.41740  Biso   1.000  H
  C385     1.0000 0.61878  0.21170  0.43108  Biso   1.000  C
  H354     1.0000 0.56080  0.19650  0.44470  Biso   1.000  H
  H355     1.0000 0.65240  0.18480  0.41460  Biso   1.000  H
  C386     1.0000 0.68740  0.23209  0.46671  Biso   1.000  C
  C387     1.0000 0.66231  0.27404  0.49251  Biso   1.000  C
  H356     1.0000 0.60230  0.29060  0.48760  Biso   1.000  H
  C388     1.0000 0.77654  0.20830  0.47503  Biso   1.000  C
  H357     1.0000 0.79530  0.17980  0.45830  Biso   1.000  H
  C389     1.0000 0.36490  0.39760  0.27083  Biso   1.000  C
  C390     1.0000 0.38080  0.32820  0.20710  Biso   1.000  C
  H358     1.0000 0.32650  0.32580  0.18680  Biso   1.000  H
  H359     1.0000 0.44210  0.32680  0.19120  Biso   1.000  H
  H360     1.0000 0.37780  0.29980  0.22750  Biso   1.000  H
  N61      1.0000 0.99200  0.81355  0.37149  Biso   1.000  N
  N62      1.0000 0.08779  0.75227  0.40094  Biso   1.000  N
  C391     1.0000 0.08568  0.81507  0.35131  Biso   1.000  C
  C392     1.0000 0.12280  0.84754  0.31907  Biso   1.000  C
  H361     1.0000 0.08350  0.87280  0.30610  Biso   1.000  H
  C393     1.0000 0.22020  0.84093  0.30693  Biso   1.000  C
  H362     1.0000 0.24710  0.86240  0.28550  Biso   1.000  H
  C394     1.0000 0.27910  0.80308  0.32577  Biso   1.000  C
  H363     1.0000 0.34420  0.79970  0.31630  Biso   1.000  H
  C395     1.0000 0.24438  0.77016  0.35806  Biso   1.000  C
  H364     1.0000 0.28410  0.74500  0.37090  Biso   1.000  H
  C396     1.0000 0.14604  0.77721  0.37010  Biso   1.000  C
  C397     1.0000 0.99816  0.77583  0.39962  Biso   1.000  C
  H365     1.0000 0.94550  0.76580  0.41740  Biso   1.000  H
  C398     1.0000 0.11878  0.71170  0.43108  Biso   1.000  C
  H366     1.0000 0.06080  0.69650  0.44470  Biso   1.000  H
  H367     1.0000 0.15240  0.68480  0.41460  Biso   1.000  H
  C399     1.0000 0.18740  0.73209  0.46671  Biso   1.000  C
  C400     1.0000 0.16231  0.77404  0.49251  Biso   1.000  C
  H368     1.0000 0.10230  0.79060  0.48760  Biso   1.000  H
  C401     1.0000 0.27654  0.70830  0.47503  Biso   1.000  C
  H369     1.0000 0.29530  0.67980  0.45830  Biso   1.000  H
  C402     1.0000 0.86490  0.89760  0.27083  Biso   1.000  C
  C403     1.0000 0.88080  0.82820  0.20710  Biso   1.000  C
  H370     1.0000 0.82650  0.82580  0.18680  Biso   1.000  H
  H371     1.0000 0.94210  0.82680  0.19120  Biso   1.000  H
  H372     1.0000 0.87780  0.79980  0.22750  Biso   1.000  H
  N63      1.0000 0.99200  0.31355  0.87149  Biso   1.000  N
  N64      1.0000 0.08779  0.25227  0.90094  Biso   1.000  N
  C404     1.0000 0.08568  0.31507  0.85131  Biso   1.000  C
  C405     1.0000 0.12280  0.34754  0.81907  Biso   1.000  C
  H373     1.0000 0.08350  0.37280  0.80610  Biso   1.000  H
  C406     1.0000 0.22020  0.34093  0.80693  Biso   1.000  C
  H374     1.0000 0.24710  0.36240  0.78550  Biso   1.000  H
  C407     1.0000 0.27910  0.30308  0.82577  Biso   1.000  C
  H375     1.0000 0.34420  0.29970  0.81630  Biso   1.000  H
  C408     1.0000 0.24438  0.27016  0.85806  Biso   1.000  C
  H376     1.0000 0.28410  0.24500  0.87090  Biso   1.000  H
  C409     1.0000 0.14604  0.27721  0.87010  Biso   1.000  C
  C410     1.0000 0.99816  0.27583  0.89962  Biso   1.000  C
  H377     1.0000 0.94550  0.26580  0.91740  Biso   1.000  H
  C411     1.0000 0.11878  0.21170  0.93108  Biso   1.000  C
  H378     1.0000 0.06080  0.19650  0.94470  Biso   1.000  H
  H379     1.0000 0.15240  0.18480  0.91460  Biso   1.000  H
  C412     1.0000 0.18740  0.23209  0.96671  Biso   1.000  C
  C413     1.0000 0.16231  0.27404  0.99251  Biso   1.000  C
  H380     1.0000 0.10230  0.29060  0.98760  Biso   1.000  H
  C414     1.0000 0.27654  0.20830  0.97503  Biso   1.000  C
  H381     1.0000 0.29530  0.17980  0.95830  Biso   1.000  H
  C415     1.0000 0.86490  0.39760  0.77083  Biso   1.000  C
  C416     1.0000 0.88080  0.32820  0.70710  Biso   1.000  C
  H382     1.0000 0.82650  0.32580  0.68680  Biso   1.000  H
  H383     1.0000 0.94210  0.32680  0.69120  Biso   1.000  H
  H384     1.0000 0.87780  0.29980  0.72750  Biso   1.000  H
  Co1      1.0000 0.62500  0.62500  0.62500  Biso   1.000  Co
  Co2      1.0000 0.12500  0.12500  0.62500  Biso   1.000  Co
  Co3      1.0000 0.12500  0.62500  0.12500  Biso   1.000  Co
  Co4      1.0000 0.62500  0.12500  0.12500  Biso   1.000  Co
  Co5      1.0000 0.37500  0.37500  0.37500  Biso   1.000  Co
  Co6      1.0000 0.87500  0.87500  0.37500  Biso   1.000  Co
  Co7      1.0000 0.87500  0.37500  0.87500  Biso   1.000  Co
  Co8      1.0000 0.37500  0.87500  0.87500  Biso   1.000  Co
  O1       1.0000 0.62500  0.62500  0.55364  Biso   1.000  O
  N65      1.0000 0.62500  0.62500  0.48041  Biso   1.000  N
  O2       1.0000 0.62500  0.12500  0.05364  Biso   1.000  O
  N66      1.0000 0.62500  0.12500  0.98041  Biso   1.000  N
  O3       1.0000 0.12500  0.12500  0.55364  Biso   1.000  O
  N67      1.0000 0.12500  0.12500  0.48041  Biso   1.000  N
  O4       1.0000 0.12500  0.62500  0.05364  Biso   1.000  O
  N68      1.0000 0.12500  0.62500  0.98041  Biso   1.000  N
  O5       1.0000 0.12500  0.62500  0.19636  Biso   1.000  O
  N69      1.0000 0.12500  0.62500  0.26959  Biso   1.000  N
  O6       1.0000 0.12500  0.12500  0.69636  Biso   1.000  O
  N70      1.0000 0.12500  0.12500  0.76959  Biso   1.000  N
  O7       1.0000 0.62500  0.62500  0.69636  Biso   1.000  O
  N71      1.0000 0.62500  0.62500  0.76959  Biso   1.000  N
  O8       1.0000 0.62500  0.12500  0.19636  Biso   1.000  O
  N72      1.0000 0.62500  0.12500  0.26959  Biso   1.000  N
  O9       1.0000 0.37500  0.37500  0.44636  Biso   1.000  O
  N73      1.0000 0.37500  0.37500  0.51959  Biso   1.000  N
  O10      1.0000 0.37500  0.87500  0.94636  Biso   1.000  O
  N74      1.0000 0.37500  0.87500  0.01959  Biso   1.000  N
  O11      1.0000 0.87500  0.87500  0.44636  Biso   1.000  O
  N75      1.0000 0.87500  0.87500  0.51959  Biso   1.000  N
  O12      1.0000 0.87500  0.37500  0.94636  Biso   1.000  O
  N76      1.0000 0.87500  0.37500  0.01959  Biso   1.000  N
  O13      1.0000 0.87500  0.37500  0.80364  Biso   1.000  O
  N77      1.0000 0.87500  0.37500  0.73041  Biso   1.000  N
  O14      1.0000 0.87500  0.87500  0.30364  Biso   1.000  O
  N78      1.0000 0.87500  0.87500  0.23041  Biso   1.000  N
  O15      1.0000 0.37500  0.87500  0.80364  Biso   1.000  O
  N79      1.0000 0.37500  0.87500  0.73041  Biso   1.000  N
  O16      1.0000 0.37500  0.37500  0.30364  Biso   1.000  O
  N80      1.0000 0.37500  0.37500  0.23041  Biso   1.000  N
