data_image0
_cell_length_a       13.6817
_cell_length_b       27.123
_cell_length_c       45.995
_cell_angle_alpha    90
_cell_angle_beta     90
_cell_angle_gamma    90

_symmetry_space_group_name_H-M    P 1
_symmetry_int_tables_number       1

loop_
  _symmetry_equiv_pos_as_xyz
  'x, y, z'

loop_
  _atom_site_label
  _atom_site_occupancy
  _atom_site_fract_x
  _atom_site_fract_y
  _atom_site_fract_z
  _atom_site_thermal_displace_type
  _atom_site_B_iso_or_equiv
  _atom_site_type_symbol
  Zn1      1.0000 0.85934  0.95180  0.92964  Biso   1.000  Zn
  Zn2      1.0000 0.64566  0.96672  0.09370  Biso   1.000  Zn
  Zn3      1.0000 0.84403  0.75090  0.18902  Biso   1.000  Zn
  Zn4      1.0000 0.14066  0.54820  0.42964  Biso   1.000  Zn
  Zn5      1.0000 0.35434  0.53328  0.59370  Biso   1.000  Zn
  Zn6      1.0000 0.15597  0.74910  0.68902  Biso   1.000  Zn
  Zn7      1.0000 0.35934  0.04820  0.57036  Biso   1.000  Zn
  Zn8      1.0000 0.14566  0.03328  0.40630  Biso   1.000  Zn
  Zn9      1.0000 0.34403  0.24910  0.31098  Biso   1.000  Zn
  Zn10     1.0000 0.64066  0.45180  0.07036  Biso   1.000  Zn
  Zn11     1.0000 0.85434  0.46672  0.90630  Biso   1.000  Zn
  Zn12     1.0000 0.65597  0.25090  0.81098  Biso   1.000  Zn
  H1       1.0000 0.80670  0.80650  0.13410  Biso   1.000  H
  H2       1.0000 0.89050  0.84190  0.09590  Biso   1.000  H
  H3       1.0000 0.05390  0.77170  0.17330  Biso   1.000  H
  H4       1.0000 0.14420  0.80670  0.13600  Biso   1.000  H
  H5       1.0000 0.47070  0.93550  0.12710  Biso   1.000  H
  H6       1.0000 0.31340  0.90610  0.12010  Biso   1.000  H
  H7       1.0000 0.52300  0.93080  0.04290  Biso   1.000  H
  H8       1.0000 0.36540  0.90340  0.03360  Biso   1.000  H
  H9       1.0000 0.05360  0.96970  0.95920  Biso   1.000  H
  H10      1.0000 0.14160  0.94340  0.99920  Biso   1.000  H
  H11      1.0000 0.82050  0.89630  0.98490  Biso   1.000  H
  H12      1.0000 0.90290  0.86640  0.02560  Biso   1.000  H
  H13      1.0000 0.92710  0.92260  0.86980  Biso   1.000  H
  H14      1.0000 0.94990  0.85330  0.84160  Biso   1.000  H
  H15      1.0000 0.85810  0.84100  0.93780  Biso   1.000  H
  H16      1.0000 0.88420  0.76940  0.91180  Biso   1.000  H
  H17      1.0000 0.88220  0.57110  0.92590  Biso   1.000  H
  H18      1.0000 0.90810  0.64910  0.90710  Biso   1.000  H
  H19      1.0000 0.91620  0.51070  0.84880  Biso   1.000  H
  H20      1.0000 0.94480  0.58650  0.82770  Biso   1.000  H
  H21      1.0000 0.08650  0.66760  0.72710  Biso   1.000  H
  H22      1.0000 0.02800  0.65590  0.77400  Biso   1.000  H
  H23      1.0000 0.04320  0.81080  0.73240  Biso   1.000  H
  H24      1.0000 0.98530  0.80320  0.77950  Biso   1.000  H
  H25      1.0000 0.19330  0.69350  0.63410  Biso   1.000  H
  H26      1.0000 0.10950  0.65810  0.59590  Biso   1.000  H
  H27      1.0000 0.94610  0.72830  0.67330  Biso   1.000  H
  H28      1.0000 0.85580  0.69330  0.63600  Biso   1.000  H
  H29      1.0000 0.52930  0.56450  0.62710  Biso   1.000  H
  H30      1.0000 0.68660  0.59390  0.62010  Biso   1.000  H
  H31      1.0000 0.47700  0.56920  0.54290  Biso   1.000  H
  H32      1.0000 0.63460  0.59660  0.53360  Biso   1.000  H
  H33      1.0000 0.94640  0.53030  0.45920  Biso   1.000  H
  H34      1.0000 0.85840  0.55660  0.49920  Biso   1.000  H
  H35      1.0000 0.17950  0.60370  0.48490  Biso   1.000  H
  H36      1.0000 0.09710  0.63360  0.52560  Biso   1.000  H
  H37      1.0000 0.07290  0.57740  0.36980  Biso   1.000  H
  H38      1.0000 0.05010  0.64670  0.34160  Biso   1.000  H
  H39      1.0000 0.14190  0.65900  0.43780  Biso   1.000  H
  H40      1.0000 0.11580  0.73060  0.41180  Biso   1.000  H
  H41      1.0000 0.11780  0.92890  0.42590  Biso   1.000  H
  H42      1.0000 0.09190  0.85090  0.40710  Biso   1.000  H
  H43      1.0000 0.08380  0.98930  0.34880  Biso   1.000  H
  H44      1.0000 0.05520  0.91350  0.32770  Biso   1.000  H
  H45      1.0000 0.91350  0.83240  0.22710  Biso   1.000  H
  H46      1.0000 0.97200  0.84410  0.27400  Biso   1.000  H
  H47      1.0000 0.95680  0.68920  0.23240  Biso   1.000  H
  H48      1.0000 0.01470  0.69680  0.27950  Biso   1.000  H
  H49      1.0000 0.30670  0.19350  0.36590  Biso   1.000  H
  H50      1.0000 0.39050  0.15810  0.40410  Biso   1.000  H
  H51      1.0000 0.55390  0.22830  0.32670  Biso   1.000  H
  H52      1.0000 0.64420  0.19330  0.36400  Biso   1.000  H
  H53      1.0000 0.97070  0.06450  0.37290  Biso   1.000  H
  H54      1.0000 0.81340  0.09390  0.37990  Biso   1.000  H
  H55      1.0000 0.02300  0.06920  0.45710  Biso   1.000  H
  H56      1.0000 0.86540  0.09660  0.46640  Biso   1.000  H
  H57      1.0000 0.55360  0.03030  0.54080  Biso   1.000  H
  H58      1.0000 0.64160  0.05660  0.50080  Biso   1.000  H
  H59      1.0000 0.32050  0.10370  0.51510  Biso   1.000  H
  H60      1.0000 0.40290  0.13360  0.47440  Biso   1.000  H
  H61      1.0000 0.42710  0.07740  0.63020  Biso   1.000  H
  H62      1.0000 0.44990  0.14670  0.65840  Biso   1.000  H
  H63      1.0000 0.35810  0.15900  0.56220  Biso   1.000  H
  H64      1.0000 0.38420  0.23060  0.58820  Biso   1.000  H
  H65      1.0000 0.38220  0.42890  0.57410  Biso   1.000  H
  H66      1.0000 0.40810  0.35090  0.59290  Biso   1.000  H
  H67      1.0000 0.41620  0.48930  0.65120  Biso   1.000  H
  H68      1.0000 0.44480  0.41350  0.67230  Biso   1.000  H
  H69      1.0000 0.58650  0.33240  0.77290  Biso   1.000  H
  H70      1.0000 0.52800  0.34410  0.72600  Biso   1.000  H
  H71      1.0000 0.54320  0.18920  0.76760  Biso   1.000  H
  H72      1.0000 0.48530  0.19680  0.72050  Biso   1.000  H
  H73      1.0000 0.69330  0.30650  0.86590  Biso   1.000  H
  H74      1.0000 0.60950  0.34190  0.90410  Biso   1.000  H
  H75      1.0000 0.44610  0.27170  0.82670  Biso   1.000  H
  H76      1.0000 0.35580  0.30670  0.86400  Biso   1.000  H
  H77      1.0000 0.02930  0.43550  0.87290  Biso   1.000  H
  H78      1.0000 0.18660  0.40610  0.87990  Biso   1.000  H
  H79      1.0000 0.97700  0.43080  0.95710  Biso   1.000  H
  H80      1.0000 0.13460  0.40340  0.96640  Biso   1.000  H
  H81      1.0000 0.44640  0.46970  0.04080  Biso   1.000  H
  H82      1.0000 0.35840  0.44340  0.00080  Biso   1.000  H
  H83      1.0000 0.67950  0.39630  0.01510  Biso   1.000  H
  H84      1.0000 0.59710  0.36640  0.97440  Biso   1.000  H
  H85      1.0000 0.57290  0.42260  0.13020  Biso   1.000  H
  H86      1.0000 0.55010  0.35330  0.15840  Biso   1.000  H
  H87      1.0000 0.64190  0.34100  0.06220  Biso   1.000  H
  H88      1.0000 0.61580  0.26940  0.08820  Biso   1.000  H
  H89      1.0000 0.61780  0.07110  0.07410  Biso   1.000  H
  H90      1.0000 0.59190  0.14910  0.09290  Biso   1.000  H
  H91      1.0000 0.58380  0.01070  0.15120  Biso   1.000  H
  H92      1.0000 0.55520  0.08650  0.17230  Biso   1.000  H
  H93      1.0000 0.41350  0.16760  0.27290  Biso   1.000  H
  H94      1.0000 0.47200  0.15590  0.22600  Biso   1.000  H
  H95      1.0000 0.45680  0.31080  0.26760  Biso   1.000  H
  H96      1.0000 0.51470  0.30320  0.22050  Biso   1.000  H
  C1       1.0000 0.87610  0.80638  0.13438  Biso   1.000  C
  C2       1.0000 0.92550  0.82756  0.11158  Biso   1.000  C
  C3       1.0000 0.02060  0.78609  0.15728  Biso   1.000  C
  C4       1.0000 0.07480  0.80682  0.13518  Biso   1.000  C
  C5       1.0000 0.02690  0.82783  0.11166  Biso   1.000  C
  C6       1.0000 0.08230  0.85088  0.08767  Biso   1.000  C
  C7       1.0000 0.44880  0.92875  0.10787  Biso   1.000  C
  C8       1.0000 0.35500  0.91141  0.10385  Biso   1.000  C
  C9       1.0000 0.47910  0.92631  0.05869  Biso   1.000  C
  C10      1.0000 0.38570  0.90957  0.05301  Biso   1.000  C
  C11      1.0000 0.32200  0.90183  0.07589  Biso   1.000  C
  C12      1.0000 0.22030  0.88560  0.07088  Biso   1.000  C
  C13      1.0000 0.02300  0.94839  0.97282  Biso   1.000  C
  C14      1.0000 0.07600  0.93280  0.99651  Biso   1.000  C
  C15      1.0000 0.88690  0.90539  0.98778  Biso   1.000  C
  C16      1.0000 0.93530  0.88753  0.01217  Biso   1.000  C
  C17      1.0000 0.03170  0.90112  0.01652  Biso   1.000  C
  C18      1.0000 0.08570  0.88441  0.04289  Biso   1.000  C
  C19      1.0000 0.91700  0.89103  0.87822  Biso   1.000  C
  C20      1.0000 0.93170  0.84991  0.86139  Biso   1.000  C
  C21      1.0000 0.87740  0.84327  0.91798  Biso   1.000  C
  C22      1.0000 0.89250  0.80049  0.90261  Biso   1.000  C
  C23      1.0000 0.91990  0.80322  0.87354  Biso   1.000  C
  C24      1.0000 0.93560  0.75850  0.85594  Biso   1.000  C
  C25      1.0000 0.89370  0.57465  0.90562  Biso   1.000  C
  C26      1.0000 0.90930  0.62119  0.89465  Biso   1.000  C
  C27      1.0000 0.91380  0.53937  0.86058  Biso   1.000  C
  C28      1.0000 0.93070  0.58425  0.84790  Biso   1.000  C
  C29      1.0000 0.92700  0.62664  0.86500  Biso   1.000  C
  C30      1.0000 0.93910  0.67600  0.85190  Biso   1.000  C
  C31      1.0000 0.06670  0.69543  0.73814  Biso   1.000  C
  C32      1.0000 0.03200  0.68812  0.76606  Biso   1.000  C
  C33      1.0000 0.04170  0.77911  0.74124  Biso   1.000  C
  C34      1.0000 0.00680  0.77488  0.76921  Biso   1.000  C
  C35      1.0000 0.00330  0.72884  0.78217  Biso   1.000  C
  C36      1.0000 0.97320  0.72337  0.81294  Biso   1.000  C
  C37      1.0000 0.12390  0.69362  0.63438  Biso   1.000  C
  C38      1.0000 0.07450  0.67244  0.61158  Biso   1.000  C
  C39      1.0000 0.97940  0.71391  0.65728  Biso   1.000  C
  C40      1.0000 0.92520  0.69318  0.63518  Biso   1.000  C
  C41      1.0000 0.97310  0.67217  0.61166  Biso   1.000  C
  C42      1.0000 0.91770  0.64912  0.58767  Biso   1.000  C
  C43      1.0000 0.55120  0.57125  0.60787  Biso   1.000  C
  C44      1.0000 0.64500  0.58859  0.60385  Biso   1.000  C
  C45      1.0000 0.52090  0.57369  0.55869  Biso   1.000  C
  C46      1.0000 0.61430  0.59043  0.55301  Biso   1.000  C
  C47      1.0000 0.67800  0.59817  0.57589  Biso   1.000  C
  C48      1.0000 0.77970  0.61440  0.57088  Biso   1.000  C
  C49      1.0000 0.97700  0.55161  0.47282  Biso   1.000  C
  C50      1.0000 0.92400  0.56720  0.49651  Biso   1.000  C
  C51      1.0000 0.11310  0.59461  0.48778  Biso   1.000  C
  C52      1.0000 0.06470  0.61247  0.51217  Biso   1.000  C
  C53      1.0000 0.96830  0.59888  0.51652  Biso   1.000  C
  C54      1.0000 0.91430  0.61559  0.54289  Biso   1.000  C
  C55      1.0000 0.08300  0.60897  0.37822  Biso   1.000  C
  C56      1.0000 0.06830  0.65009  0.36139  Biso   1.000  C
  C57      1.0000 0.12260  0.65673  0.41798  Biso   1.000  C
  C58      1.0000 0.10750  0.69951  0.40261  Biso   1.000  C
  C59      1.0000 0.08010  0.69678  0.37354  Biso   1.000  C
  C60      1.0000 0.06440  0.74150  0.35594  Biso   1.000  C
  C61      1.0000 0.10630  0.92535  0.40562  Biso   1.000  C
  C62      1.0000 0.09070  0.87881  0.39465  Biso   1.000  C
  C63      1.0000 0.08620  0.96063  0.36058  Biso   1.000  C
  C64      1.0000 0.06930  0.91575  0.34790  Biso   1.000  C
  C65      1.0000 0.07300  0.87336  0.36500  Biso   1.000  C
  C66      1.0000 0.06090  0.82400  0.35190  Biso   1.000  C
  C67      1.0000 0.93330  0.80457  0.23814  Biso   1.000  C
  C68      1.0000 0.96800  0.81188  0.26606  Biso   1.000  C
  C69      1.0000 0.95830  0.72089  0.24124  Biso   1.000  C
  C70      1.0000 0.99320  0.72512  0.26921  Biso   1.000  C
  C71      1.0000 0.99670  0.77116  0.28217  Biso   1.000  C
  C72      1.0000 0.02680  0.77663  0.31294  Biso   1.000  C
  C73      1.0000 0.37610  0.19362  0.36562  Biso   1.000  C
  C74      1.0000 0.42550  0.17244  0.38842  Biso   1.000  C
  C75      1.0000 0.52060  0.21391  0.34272  Biso   1.000  C
  C76      1.0000 0.57480  0.19318  0.36482  Biso   1.000  C
  C77      1.0000 0.52690  0.17217  0.38834  Biso   1.000  C
  C78      1.0000 0.58230  0.14912  0.41233  Biso   1.000  C
  C79      1.0000 0.94880  0.07125  0.39213  Biso   1.000  C
  C80      1.0000 0.85500  0.08859  0.39615  Biso   1.000  C
  C81      1.0000 0.97910  0.07369  0.44131  Biso   1.000  C
  C82      1.0000 0.88570  0.09043  0.44699  Biso   1.000  C
  C83      1.0000 0.82200  0.09817  0.42411  Biso   1.000  C
  C84      1.0000 0.72030  0.11440  0.42912  Biso   1.000  C
  C85      1.0000 0.52300  0.05161  0.52718  Biso   1.000  C
  C86      1.0000 0.57600  0.06720  0.50349  Biso   1.000  C
  C87      1.0000 0.38690  0.09461  0.51222  Biso   1.000  C
  C88      1.0000 0.43530  0.11247  0.48783  Biso   1.000  C
  C89      1.0000 0.53170  0.09888  0.48348  Biso   1.000  C
  C90      1.0000 0.58570  0.11559  0.45711  Biso   1.000  C
  C91      1.0000 0.41700  0.10897  0.62178  Biso   1.000  C
  C92      1.0000 0.43170  0.15009  0.63861  Biso   1.000  C
  C93      1.0000 0.37740  0.15673  0.58202  Biso   1.000  C
  C94      1.0000 0.39250  0.19951  0.59739  Biso   1.000  C
  C95      1.0000 0.41990  0.19678  0.62646  Biso   1.000  C
  C96      1.0000 0.43560  0.24150  0.64406  Biso   1.000  C
  C97      1.0000 0.39370  0.42535  0.59438  Biso   1.000  C
  C98      1.0000 0.40930  0.37881  0.60535  Biso   1.000  C
  C99      1.0000 0.41380  0.46063  0.63942  Biso   1.000  C
  C100     1.0000 0.43070  0.41575  0.65210  Biso   1.000  C
  C101     1.0000 0.42700  0.37336  0.63500  Biso   1.000  C
  C102     1.0000 0.43910  0.32400  0.64810  Biso   1.000  C
  C103     1.0000 0.56670  0.30457  0.76186  Biso   1.000  C
  C104     1.0000 0.53200  0.31188  0.73394  Biso   1.000  C
  C105     1.0000 0.54170  0.22089  0.75876  Biso   1.000  C
  C106     1.0000 0.50680  0.22512  0.73079  Biso   1.000  C
  C107     1.0000 0.50330  0.27116  0.71783  Biso   1.000  C
  C108     1.0000 0.47320  0.27663  0.68706  Biso   1.000  C
  C109     1.0000 0.62390  0.30638  0.86562  Biso   1.000  C
  C110     1.0000 0.57450  0.32756  0.88842  Biso   1.000  C
  C111     1.0000 0.47940  0.28609  0.84272  Biso   1.000  C
  C112     1.0000 0.42520  0.30682  0.86482  Biso   1.000  C
  C113     1.0000 0.47310  0.32783  0.88834  Biso   1.000  C
  C114     1.0000 0.41770  0.35088  0.91233  Biso   1.000  C
  C115     1.0000 0.05120  0.42875  0.89213  Biso   1.000  C
  C116     1.0000 0.14500  0.41141  0.89615  Biso   1.000  C
  C117     1.0000 0.02090  0.42631  0.94131  Biso   1.000  C
  C118     1.0000 0.11430  0.40957  0.94699  Biso   1.000  C
  C119     1.0000 0.17800  0.40183  0.92411  Biso   1.000  C
  C120     1.0000 0.27970  0.38560  0.92912  Biso   1.000  C
  C121     1.0000 0.47700  0.44839  0.02718  Biso   1.000  C
  C122     1.0000 0.42400  0.43280  0.00349  Biso   1.000  C
  C123     1.0000 0.61310  0.40539  0.01222  Biso   1.000  C
  C124     1.0000 0.56470  0.38753  0.98783  Biso   1.000  C
  C125     1.0000 0.46830  0.40112  0.98348  Biso   1.000  C
  C126     1.0000 0.41430  0.38441  0.95711  Biso   1.000  C
  C127     1.0000 0.58300  0.39103  0.12178  Biso   1.000  C
  C128     1.0000 0.56830  0.34991  0.13861  Biso   1.000  C
  C129     1.0000 0.62260  0.34327  0.08202  Biso   1.000  C
  C130     1.0000 0.60750  0.30049  0.09739  Biso   1.000  C
  C131     1.0000 0.58010  0.30322  0.12646  Biso   1.000  C
  C132     1.0000 0.56440  0.25850  0.14406  Biso   1.000  C
  C133     1.0000 0.60630  0.07465  0.09438  Biso   1.000  C
  C134     1.0000 0.59070  0.12119  0.10535  Biso   1.000  C
  C135     1.0000 0.58620  0.03937  0.13942  Biso   1.000  C
  C136     1.0000 0.56930  0.08425  0.15210  Biso   1.000  C
  C137     1.0000 0.57300  0.12664  0.13500  Biso   1.000  C
  C138     1.0000 0.56090  0.17600  0.14810  Biso   1.000  C
  C139     1.0000 0.43330  0.19543  0.26186  Biso   1.000  C
  C140     1.0000 0.46800  0.18812  0.23394  Biso   1.000  C
  C141     1.0000 0.45830  0.27911  0.25876  Biso   1.000  C
  C142     1.0000 0.49320  0.27488  0.23079  Biso   1.000  C
  C143     1.0000 0.49670  0.22884  0.21783  Biso   1.000  C
  C144     1.0000 0.52680  0.22337  0.18706  Biso   1.000  C
  I1       1.0000 0.95422  0.01874  0.90312  Biso   1.000  I
  I2       1.0000 0.67575  0.95233  0.93888  Biso   1.000  I
  I3       1.0000 0.73233  0.97852  0.04506  Biso   1.000  I
  I4       1.0000 0.72460  0.92120  0.13579  Biso   1.000  I
  I5       1.0000 0.69153  0.80405  0.19622  Biso   1.000  I
  I6       1.0000 0.83151  0.65890  0.17833  Biso   1.000  I
  I7       1.0000 0.04578  0.48126  0.40312  Biso   1.000  I
  I8       1.0000 0.32425  0.54767  0.43888  Biso   1.000  I
  I9       1.0000 0.26767  0.52148  0.54506  Biso   1.000  I
  I10      1.0000 0.27540  0.57880  0.63579  Biso   1.000  I
  I11      1.0000 0.30847  0.69595  0.69622  Biso   1.000  I
  I12      1.0000 0.16849  0.84110  0.67833  Biso   1.000  I
  I13      1.0000 0.45422  0.98126  0.59688  Biso   1.000  I
  I14      1.0000 0.17575  0.04767  0.56112  Biso   1.000  I
  I15      1.0000 0.23233  0.02148  0.45494  Biso   1.000  I
  I16      1.0000 0.22460  0.07880  0.36421  Biso   1.000  I
  I17      1.0000 0.19153  0.19595  0.30378  Biso   1.000  I
  I18      1.0000 0.33151  0.34110  0.32167  Biso   1.000  I
  I19      1.0000 0.54578  0.51874  0.09688  Biso   1.000  I
  I20      1.0000 0.82425  0.45233  0.06112  Biso   1.000  I
  I21      1.0000 0.76767  0.47852  0.95494  Biso   1.000  I
  I22      1.0000 0.77540  0.42120  0.86421  Biso   1.000  I
  I23      1.0000 0.80847  0.30405  0.80378  Biso   1.000  I
  I24      1.0000 0.66849  0.15890  0.82167  Biso   1.000  I
  N1       1.0000 0.92230  0.78543  0.15706  Biso   1.000  N
  N2       1.0000 0.51000  0.93641  0.08559  Biso   1.000  N
  N3       1.0000 0.92980  0.93486  0.96813  Biso   1.000  N
  N4       1.0000 0.17520  0.86302  0.09287  Biso   1.000  N
  N5       1.0000 0.18000  0.89664  0.04510  Biso   1.000  N
  N6       1.0000 0.03360  0.86055  0.06296  Biso   1.000  N
  N7       1.0000 0.88900  0.88828  0.90613  Biso   1.000  N
  N8       1.0000 0.89390  0.53417  0.88890  Biso   1.000  N
  N9       1.0000 0.07350  0.74041  0.72599  Biso   1.000  N
  N10      1.0000 0.92420  0.71487  0.86896  Biso   1.000  N
  N11      1.0000 0.96390  0.67797  0.82344  Biso   1.000  N
  N12      1.0000 0.95930  0.76514  0.82801  Biso   1.000  N
  N13      1.0000 0.07770  0.71457  0.65706  Biso   1.000  N
  N14      1.0000 0.49000  0.56359  0.58559  Biso   1.000  N
  N15      1.0000 0.07020  0.56514  0.46813  Biso   1.000  N
  N16      1.0000 0.82480  0.63698  0.59287  Biso   1.000  N
  N17      1.0000 0.82000  0.60336  0.54510  Biso   1.000  N
  N18      1.0000 0.96640  0.63945  0.56296  Biso   1.000  N
  N19      1.0000 0.11100  0.61172  0.40613  Biso   1.000  N
  N20      1.0000 0.10610  0.96583  0.38890  Biso   1.000  N
  N21      1.0000 0.92650  0.75959  0.22599  Biso   1.000  N
  N22      1.0000 0.07580  0.78513  0.36896  Biso   1.000  N
  N23      1.0000 0.03610  0.82203  0.32344  Biso   1.000  N
  N24      1.0000 0.04070  0.73486  0.32801  Biso   1.000  N
  N25      1.0000 0.42230  0.21457  0.34294  Biso   1.000  N
  N26      1.0000 0.01000  0.06359  0.41441  Biso   1.000  N
  N27      1.0000 0.42980  0.06514  0.53187  Biso   1.000  N
  N28      1.0000 0.67520  0.13698  0.40713  Biso   1.000  N
  N29      1.0000 0.68000  0.10336  0.45490  Biso   1.000  N
  N30      1.0000 0.53360  0.13945  0.43704  Biso   1.000  N
  N31      1.0000 0.38900  0.11172  0.59387  Biso   1.000  N
  N32      1.0000 0.39390  0.46583  0.61110  Biso   1.000  N
  N33      1.0000 0.57350  0.25959  0.77401  Biso   1.000  N
  N34      1.0000 0.42420  0.28513  0.63104  Biso   1.000  N
  N35      1.0000 0.46390  0.32203  0.67656  Biso   1.000  N
  N36      1.0000 0.45930  0.23486  0.67199  Biso   1.000  N
  N37      1.0000 0.57770  0.28543  0.84294  Biso   1.000  N
  N38      1.0000 0.99000  0.43641  0.91441  Biso   1.000  N
  N39      1.0000 0.57020  0.43486  0.03187  Biso   1.000  N
  N40      1.0000 0.32480  0.36302  0.90713  Biso   1.000  N
  N41      1.0000 0.32000  0.39664  0.95490  Biso   1.000  N
  N42      1.0000 0.46640  0.36055  0.93704  Biso   1.000  N
  N43      1.0000 0.61100  0.38828  0.09387  Biso   1.000  N
  N44      1.0000 0.60610  0.03417  0.11110  Biso   1.000  N
  N45      1.0000 0.42650  0.24041  0.27401  Biso   1.000  N
  N46      1.0000 0.57580  0.21487  0.13104  Biso   1.000  N
  N47      1.0000 0.53610  0.17797  0.17656  Biso   1.000  N
  N48      1.0000 0.54070  0.26514  0.17199  Biso   1.000  N
  Zn13     1.0000 0.14066  0.04820  0.07036  Biso   1.000  Zn
  Zn14     1.0000 0.35434  0.03328  0.90630  Biso   1.000  Zn
  Zn15     1.0000 0.15597  0.24910  0.81098  Biso   1.000  Zn
  Zn16     1.0000 0.85934  0.45180  0.57036  Biso   1.000  Zn
  Zn17     1.0000 0.64566  0.46672  0.40630  Biso   1.000  Zn
  Zn18     1.0000 0.84403  0.25090  0.31098  Biso   1.000  Zn
  Zn19     1.0000 0.64066  0.95180  0.42964  Biso   1.000  Zn
  Zn20     1.0000 0.85434  0.96672  0.59370  Biso   1.000  Zn
  Zn21     1.0000 0.65597  0.75090  0.68902  Biso   1.000  Zn
  Zn22     1.0000 0.35934  0.54820  0.92964  Biso   1.000  Zn
  Zn23     1.0000 0.14566  0.53328  0.09370  Biso   1.000  Zn
  Zn24     1.0000 0.34403  0.74910  0.18902  Biso   1.000  Zn
  H97      1.0000 0.19330  0.19350  0.86590  Biso   1.000  H
  H98      1.0000 0.10950  0.15810  0.90410  Biso   1.000  H
  H99      1.0000 0.94610  0.22830  0.82670  Biso   1.000  H
  H100     1.0000 0.85580  0.19330  0.86400  Biso   1.000  H
  H101     1.0000 0.52930  0.06450  0.87290  Biso   1.000  H
  H102     1.0000 0.68660  0.09390  0.87990  Biso   1.000  H
  H103     1.0000 0.47700  0.06920  0.95710  Biso   1.000  H
  H104     1.0000 0.63460  0.09660  0.96640  Biso   1.000  H
  H105     1.0000 0.94640  0.03030  0.04080  Biso   1.000  H
  H106     1.0000 0.85840  0.05660  0.00080  Biso   1.000  H
  H107     1.0000 0.17950  0.10370  0.01510  Biso   1.000  H
  H108     1.0000 0.09710  0.13360  0.97440  Biso   1.000  H
  H109     1.0000 0.07290  0.07740  0.13020  Biso   1.000  H
  H110     1.0000 0.05010  0.14670  0.15840  Biso   1.000  H
  H111     1.0000 0.14190  0.15900  0.06220  Biso   1.000  H
  H112     1.0000 0.11580  0.23060  0.08820  Biso   1.000  H
  H113     1.0000 0.11780  0.42890  0.07410  Biso   1.000  H
  H114     1.0000 0.09190  0.35090  0.09290  Biso   1.000  H
  H115     1.0000 0.08380  0.48930  0.15120  Biso   1.000  H
  H116     1.0000 0.05520  0.41350  0.17230  Biso   1.000  H
  H117     1.0000 0.91350  0.33240  0.27290  Biso   1.000  H
  H118     1.0000 0.97200  0.34410  0.22600  Biso   1.000  H
  H119     1.0000 0.95680  0.18920  0.26760  Biso   1.000  H
  H120     1.0000 0.01470  0.19680  0.22050  Biso   1.000  H
  H121     1.0000 0.80670  0.30650  0.36590  Biso   1.000  H
  H122     1.0000 0.89050  0.34190  0.40410  Biso   1.000  H
  H123     1.0000 0.05390  0.27170  0.32670  Biso   1.000  H
  H124     1.0000 0.14420  0.30670  0.36400  Biso   1.000  H
  H125     1.0000 0.47070  0.43550  0.37290  Biso   1.000  H
  H126     1.0000 0.31340  0.40610  0.37990  Biso   1.000  H
  H127     1.0000 0.52300  0.43080  0.45710  Biso   1.000  H
  H128     1.0000 0.36540  0.40340  0.46640  Biso   1.000  H
  H129     1.0000 0.05360  0.46970  0.54080  Biso   1.000  H
  H130     1.0000 0.14160  0.44340  0.50080  Biso   1.000  H
  H131     1.0000 0.82050  0.39630  0.51510  Biso   1.000  H
  H132     1.0000 0.90290  0.36640  0.47440  Biso   1.000  H
  H133     1.0000 0.92710  0.42260  0.63020  Biso   1.000  H
  H134     1.0000 0.94990  0.35330  0.65840  Biso   1.000  H
  H135     1.0000 0.85810  0.34100  0.56220  Biso   1.000  H
  H136     1.0000 0.88420  0.26940  0.58820  Biso   1.000  H
  H137     1.0000 0.88220  0.07110  0.57410  Biso   1.000  H
  H138     1.0000 0.90810  0.14910  0.59290  Biso   1.000  H
  H139     1.0000 0.91620  0.01070  0.65120  Biso   1.000  H
  H140     1.0000 0.94480  0.08650  0.67230  Biso   1.000  H
  H141     1.0000 0.08650  0.16760  0.77290  Biso   1.000  H
  H142     1.0000 0.02800  0.15590  0.72600  Biso   1.000  H
  H143     1.0000 0.04320  0.31080  0.76760  Biso   1.000  H
  H144     1.0000 0.98530  0.30320  0.72050  Biso   1.000  H
  H145     1.0000 0.69330  0.80650  0.63410  Biso   1.000  H
  H146     1.0000 0.60950  0.84190  0.59590  Biso   1.000  H
  H147     1.0000 0.44610  0.77170  0.67330  Biso   1.000  H
  H148     1.0000 0.35580  0.80670  0.63600  Biso   1.000  H
  H149     1.0000 0.02930  0.93550  0.62710  Biso   1.000  H
  H150     1.0000 0.18660  0.90610  0.62010  Biso   1.000  H
  H151     1.0000 0.97700  0.93080  0.54290  Biso   1.000  H
  H152     1.0000 0.13460  0.90340  0.53360  Biso   1.000  H
  H153     1.0000 0.44640  0.96970  0.45920  Biso   1.000  H
  H154     1.0000 0.35840  0.94340  0.49920  Biso   1.000  H
  H155     1.0000 0.67950  0.89630  0.48490  Biso   1.000  H
  H156     1.0000 0.59710  0.86640  0.52560  Biso   1.000  H
  H157     1.0000 0.57290  0.92260  0.36980  Biso   1.000  H
  H158     1.0000 0.55010  0.85330  0.34160  Biso   1.000  H
  H159     1.0000 0.64190  0.84100  0.43780  Biso   1.000  H
  H160     1.0000 0.61580  0.76940  0.41180  Biso   1.000  H
  H161     1.0000 0.61780  0.57110  0.42590  Biso   1.000  H
  H162     1.0000 0.59190  0.64910  0.40710  Biso   1.000  H
  H163     1.0000 0.58380  0.51070  0.34880  Biso   1.000  H
  H164     1.0000 0.55520  0.58650  0.32770  Biso   1.000  H
  H165     1.0000 0.41350  0.66760  0.22710  Biso   1.000  H
  H166     1.0000 0.47200  0.65590  0.27400  Biso   1.000  H
  H167     1.0000 0.45680  0.81080  0.23240  Biso   1.000  H
  H168     1.0000 0.51470  0.80320  0.27950  Biso   1.000  H
  H169     1.0000 0.30670  0.69350  0.13410  Biso   1.000  H
  H170     1.0000 0.39050  0.65810  0.09590  Biso   1.000  H
  H171     1.0000 0.55390  0.72830  0.17330  Biso   1.000  H
  H172     1.0000 0.64420  0.69330  0.13600  Biso   1.000  H
  H173     1.0000 0.97070  0.56450  0.12710  Biso   1.000  H
  H174     1.0000 0.81340  0.59390  0.12010  Biso   1.000  H
  H175     1.0000 0.02300  0.56920  0.04290  Biso   1.000  H
  H176     1.0000 0.86540  0.59660  0.03360  Biso   1.000  H
  H177     1.0000 0.55360  0.53030  0.95920  Biso   1.000  H
  H178     1.0000 0.64160  0.55660  0.99920  Biso   1.000  H
  H179     1.0000 0.32050  0.60370  0.98490  Biso   1.000  H
  H180     1.0000 0.40290  0.63360  0.02560  Biso   1.000  H
  H181     1.0000 0.42710  0.57740  0.86980  Biso   1.000  H
  H182     1.0000 0.44990  0.64670  0.84160  Biso   1.000  H
  H183     1.0000 0.35810  0.65900  0.93780  Biso   1.000  H
  H184     1.0000 0.38420  0.73060  0.91180  Biso   1.000  H
  H185     1.0000 0.38220  0.92890  0.92590  Biso   1.000  H
  H186     1.0000 0.40810  0.85090  0.90710  Biso   1.000  H
  H187     1.0000 0.41620  0.98930  0.84880  Biso   1.000  H
  H188     1.0000 0.44480  0.91350  0.82770  Biso   1.000  H
  H189     1.0000 0.58650  0.83240  0.72710  Biso   1.000  H
  H190     1.0000 0.52800  0.84410  0.77400  Biso   1.000  H
  H191     1.0000 0.54320  0.68920  0.73240  Biso   1.000  H
  H192     1.0000 0.48530  0.69680  0.77950  Biso   1.000  H
  C145     1.0000 0.12390  0.19362  0.86562  Biso   1.000  C
  C146     1.0000 0.07450  0.17244  0.88842  Biso   1.000  C
  C147     1.0000 0.97940  0.21391  0.84272  Biso   1.000  C
  C148     1.0000 0.92520  0.19318  0.86482  Biso   1.000  C
  C149     1.0000 0.97310  0.17217  0.88834  Biso   1.000  C
  C150     1.0000 0.91770  0.14912  0.91233  Biso   1.000  C
  C151     1.0000 0.55120  0.07125  0.89213  Biso   1.000  C
  C152     1.0000 0.64500  0.08859  0.89615  Biso   1.000  C
  C153     1.0000 0.52090  0.07369  0.94131  Biso   1.000  C
  C154     1.0000 0.61430  0.09043  0.94699  Biso   1.000  C
  C155     1.0000 0.67800  0.09817  0.92411  Biso   1.000  C
  C156     1.0000 0.77970  0.11440  0.92912  Biso   1.000  C
  C157     1.0000 0.97700  0.05161  0.02718  Biso   1.000  C
  C158     1.0000 0.92400  0.06720  0.00349  Biso   1.000  C
  C159     1.0000 0.11310  0.09461  0.01222  Biso   1.000  C
  C160     1.0000 0.06470  0.11247  0.98783  Biso   1.000  C
  C161     1.0000 0.96830  0.09888  0.98348  Biso   1.000  C
  C162     1.0000 0.91430  0.11559  0.95711  Biso   1.000  C
  C163     1.0000 0.08300  0.10897  0.12178  Biso   1.000  C
  C164     1.0000 0.06830  0.15009  0.13861  Biso   1.000  C
  C165     1.0000 0.12260  0.15673  0.08202  Biso   1.000  C
  C166     1.0000 0.10750  0.19951  0.09739  Biso   1.000  C
  C167     1.0000 0.08010  0.19678  0.12646  Biso   1.000  C
  C168     1.0000 0.06440  0.24150  0.14406  Biso   1.000  C
  C169     1.0000 0.10630  0.42535  0.09438  Biso   1.000  C
  C170     1.0000 0.09070  0.37881  0.10535  Biso   1.000  C
  C171     1.0000 0.08620  0.46063  0.13942  Biso   1.000  C
  C172     1.0000 0.06930  0.41575  0.15210  Biso   1.000  C
  C173     1.0000 0.07300  0.37336  0.13500  Biso   1.000  C
  C174     1.0000 0.06090  0.32400  0.14810  Biso   1.000  C
  C175     1.0000 0.93330  0.30457  0.26186  Biso   1.000  C
  C176     1.0000 0.96800  0.31188  0.23394  Biso   1.000  C
  C177     1.0000 0.95830  0.22089  0.25876  Biso   1.000  C
  C178     1.0000 0.99320  0.22512  0.23079  Biso   1.000  C
  C179     1.0000 0.99670  0.27116  0.21783  Biso   1.000  C
  C180     1.0000 0.02680  0.27663  0.18706  Biso   1.000  C
  C181     1.0000 0.87610  0.30638  0.36562  Biso   1.000  C
  C182     1.0000 0.92550  0.32756  0.38842  Biso   1.000  C
  C183     1.0000 0.02060  0.28609  0.34272  Biso   1.000  C
  C184     1.0000 0.07480  0.30682  0.36482  Biso   1.000  C
  C185     1.0000 0.02690  0.32783  0.38834  Biso   1.000  C
  C186     1.0000 0.08230  0.35088  0.41233  Biso   1.000  C
  C187     1.0000 0.44880  0.42875  0.39213  Biso   1.000  C
  C188     1.0000 0.35500  0.41141  0.39615  Biso   1.000  C
  C189     1.0000 0.47910  0.42631  0.44131  Biso   1.000  C
  C190     1.0000 0.38570  0.40957  0.44699  Biso   1.000  C
  C191     1.0000 0.32200  0.40183  0.42411  Biso   1.000  C
  C192     1.0000 0.22030  0.38560  0.42912  Biso   1.000  C
  C193     1.0000 0.02300  0.44839  0.52718  Biso   1.000  C
  C194     1.0000 0.07600  0.43280  0.50349  Biso   1.000  C
  C195     1.0000 0.88690  0.40539  0.51222  Biso   1.000  C
  C196     1.0000 0.93530  0.38753  0.48783  Biso   1.000  C
  C197     1.0000 0.03170  0.40112  0.48348  Biso   1.000  C
  C198     1.0000 0.08570  0.38441  0.45711  Biso   1.000  C
  C199     1.0000 0.91700  0.39103  0.62178  Biso   1.000  C
  C200     1.0000 0.93170  0.34991  0.63861  Biso   1.000  C
  C201     1.0000 0.87740  0.34327  0.58202  Biso   1.000  C
  C202     1.0000 0.89250  0.30049  0.59739  Biso   1.000  C
  C203     1.0000 0.91990  0.30322  0.62646  Biso   1.000  C
  C204     1.0000 0.93560  0.25850  0.64406  Biso   1.000  C
  C205     1.0000 0.89370  0.07465  0.59438  Biso   1.000  C
  C206     1.0000 0.90930  0.12119  0.60535  Biso   1.000  C
  C207     1.0000 0.91380  0.03937  0.63942  Biso   1.000  C
  C208     1.0000 0.93070  0.08425  0.65210  Biso   1.000  C
  C209     1.0000 0.92700  0.12664  0.63500  Biso   1.000  C
  C210     1.0000 0.93910  0.17600  0.64810  Biso   1.000  C
  C211     1.0000 0.06670  0.19543  0.76186  Biso   1.000  C
  C212     1.0000 0.03200  0.18812  0.73394  Biso   1.000  C
  C213     1.0000 0.04170  0.27911  0.75876  Biso   1.000  C
  C214     1.0000 0.00680  0.27488  0.73079  Biso   1.000  C
  C215     1.0000 0.00330  0.22884  0.71783  Biso   1.000  C
  C216     1.0000 0.97320  0.22337  0.68706  Biso   1.000  C
  C217     1.0000 0.62390  0.80638  0.63438  Biso   1.000  C
  C218     1.0000 0.57450  0.82756  0.61158  Biso   1.000  C
  C219     1.0000 0.47940  0.78609  0.65728  Biso   1.000  C
  C220     1.0000 0.42520  0.80682  0.63518  Biso   1.000  C
  C221     1.0000 0.47310  0.82783  0.61166  Biso   1.000  C
  C222     1.0000 0.41770  0.85088  0.58767  Biso   1.000  C
  C223     1.0000 0.05120  0.92875  0.60787  Biso   1.000  C
  C224     1.0000 0.14500  0.91141  0.60385  Biso   1.000  C
  C225     1.0000 0.02090  0.92631  0.55869  Biso   1.000  C
  C226     1.0000 0.11430  0.90957  0.55301  Biso   1.000  C
  C227     1.0000 0.17800  0.90183  0.57589  Biso   1.000  C
  C228     1.0000 0.27970  0.88560  0.57088  Biso   1.000  C
  C229     1.0000 0.47700  0.94839  0.47282  Biso   1.000  C
  C230     1.0000 0.42400  0.93280  0.49651  Biso   1.000  C
  C231     1.0000 0.61310  0.90539  0.48778  Biso   1.000  C
  C232     1.0000 0.56470  0.88753  0.51217  Biso   1.000  C
  C233     1.0000 0.46830  0.90112  0.51652  Biso   1.000  C
  C234     1.0000 0.41430  0.88441  0.54289  Biso   1.000  C
  C235     1.0000 0.58300  0.89103  0.37822  Biso   1.000  C
  C236     1.0000 0.56830  0.84991  0.36139  Biso   1.000  C
  C237     1.0000 0.62260  0.84327  0.41798  Biso   1.000  C
  C238     1.0000 0.60750  0.80049  0.40261  Biso   1.000  C
  C239     1.0000 0.58010  0.80322  0.37354  Biso   1.000  C
  C240     1.0000 0.56440  0.75850  0.35594  Biso   1.000  C
  C241     1.0000 0.60630  0.57465  0.40562  Biso   1.000  C
  C242     1.0000 0.59070  0.62119  0.39465  Biso   1.000  C
  C243     1.0000 0.58620  0.53937  0.36058  Biso   1.000  C
  C244     1.0000 0.56930  0.58425  0.34790  Biso   1.000  C
  C245     1.0000 0.57300  0.62664  0.36500  Biso   1.000  C
  C246     1.0000 0.56090  0.67600  0.35190  Biso   1.000  C
  C247     1.0000 0.43330  0.69543  0.23814  Biso   1.000  C
  C248     1.0000 0.46800  0.68812  0.26606  Biso   1.000  C
  C249     1.0000 0.45830  0.77911  0.24124  Biso   1.000  C
  C250     1.0000 0.49320  0.77488  0.26921  Biso   1.000  C
  C251     1.0000 0.49670  0.72884  0.28217  Biso   1.000  C
  C252     1.0000 0.52680  0.72337  0.31294  Biso   1.000  C
  C253     1.0000 0.37610  0.69362  0.13438  Biso   1.000  C
  C254     1.0000 0.42550  0.67244  0.11158  Biso   1.000  C
  C255     1.0000 0.52060  0.71391  0.15728  Biso   1.000  C
  C256     1.0000 0.57480  0.69318  0.13518  Biso   1.000  C
  C257     1.0000 0.52690  0.67217  0.11166  Biso   1.000  C
  C258     1.0000 0.58230  0.64912  0.08767  Biso   1.000  C
  C259     1.0000 0.94880  0.57125  0.10787  Biso   1.000  C
  C260     1.0000 0.85500  0.58859  0.10385  Biso   1.000  C
  C261     1.0000 0.97910  0.57369  0.05869  Biso   1.000  C
  C262     1.0000 0.88570  0.59043  0.05301  Biso   1.000  C
  C263     1.0000 0.82200  0.59817  0.07589  Biso   1.000  C
  C264     1.0000 0.72030  0.61440  0.07088  Biso   1.000  C
  C265     1.0000 0.52300  0.55161  0.97282  Biso   1.000  C
  C266     1.0000 0.57600  0.56720  0.99651  Biso   1.000  C
  C267     1.0000 0.38690  0.59461  0.98778  Biso   1.000  C
  C268     1.0000 0.43530  0.61247  0.01217  Biso   1.000  C
  C269     1.0000 0.53170  0.59888  0.01652  Biso   1.000  C
  C270     1.0000 0.58570  0.61559  0.04289  Biso   1.000  C
  C271     1.0000 0.41700  0.60897  0.87822  Biso   1.000  C
  C272     1.0000 0.43170  0.65009  0.86139  Biso   1.000  C
  C273     1.0000 0.37740  0.65673  0.91798  Biso   1.000  C
  C274     1.0000 0.39250  0.69951  0.90261  Biso   1.000  C
  C275     1.0000 0.41990  0.69678  0.87354  Biso   1.000  C
  C276     1.0000 0.43560  0.74150  0.85594  Biso   1.000  C
  C277     1.0000 0.39370  0.92535  0.90562  Biso   1.000  C
  C278     1.0000 0.40930  0.87881  0.89465  Biso   1.000  C
  C279     1.0000 0.41380  0.96063  0.86058  Biso   1.000  C
  C280     1.0000 0.43070  0.91575  0.84790  Biso   1.000  C
  C281     1.0000 0.42700  0.87336  0.86500  Biso   1.000  C
  C282     1.0000 0.43910  0.82400  0.85190  Biso   1.000  C
  C283     1.0000 0.56670  0.80457  0.73814  Biso   1.000  C
  C284     1.0000 0.53200  0.81188  0.76606  Biso   1.000  C
  C285     1.0000 0.54170  0.72089  0.74124  Biso   1.000  C
  C286     1.0000 0.50680  0.72512  0.76921  Biso   1.000  C
  C287     1.0000 0.50330  0.77116  0.78217  Biso   1.000  C
  C288     1.0000 0.47320  0.77663  0.81294  Biso   1.000  C
  I25      1.0000 0.04578  0.98126  0.09688  Biso   1.000  I
  I26      1.0000 0.32425  0.04767  0.06112  Biso   1.000  I
  I27      1.0000 0.26767  0.02148  0.95494  Biso   1.000  I
  I28      1.0000 0.27540  0.07880  0.86421  Biso   1.000  I
  I29      1.0000 0.30847  0.19595  0.80378  Biso   1.000  I
  I30      1.0000 0.16849  0.34110  0.82167  Biso   1.000  I
  I31      1.0000 0.95422  0.51874  0.59688  Biso   1.000  I
  I32      1.0000 0.67575  0.45233  0.56112  Biso   1.000  I
  I33      1.0000 0.73233  0.47852  0.45494  Biso   1.000  I
  I34      1.0000 0.72460  0.42120  0.36421  Biso   1.000  I
  I35      1.0000 0.69153  0.30405  0.30378  Biso   1.000  I
  I36      1.0000 0.83151  0.15890  0.32167  Biso   1.000  I
  I37      1.0000 0.54578  0.01874  0.40312  Biso   1.000  I
  I38      1.0000 0.82425  0.95233  0.43888  Biso   1.000  I
  I39      1.0000 0.76767  0.97852  0.54506  Biso   1.000  I
  I40      1.0000 0.77540  0.92120  0.63579  Biso   1.000  I
  I41      1.0000 0.80847  0.80405  0.69622  Biso   1.000  I
  I42      1.0000 0.66849  0.65890  0.67833  Biso   1.000  I
  I43      1.0000 0.45422  0.48126  0.90312  Biso   1.000  I
  I44      1.0000 0.17575  0.54767  0.93888  Biso   1.000  I
  I45      1.0000 0.23233  0.52148  0.04506  Biso   1.000  I
  I46      1.0000 0.22460  0.57880  0.13579  Biso   1.000  I
  I47      1.0000 0.19153  0.69595  0.19622  Biso   1.000  I
  I48      1.0000 0.33151  0.84110  0.17833  Biso   1.000  I
  N49      1.0000 0.07770  0.21457  0.84294  Biso   1.000  N
  N50      1.0000 0.49000  0.06359  0.91441  Biso   1.000  N
  N51      1.0000 0.07020  0.06514  0.03187  Biso   1.000  N
  N52      1.0000 0.82480  0.13698  0.90713  Biso   1.000  N
  N53      1.0000 0.82000  0.10336  0.95490  Biso   1.000  N
  N54      1.0000 0.96640  0.13945  0.93704  Biso   1.000  N
  N55      1.0000 0.11100  0.11172  0.09387  Biso   1.000  N
  N56      1.0000 0.10610  0.46583  0.11110  Biso   1.000  N
  N57      1.0000 0.92650  0.25959  0.27401  Biso   1.000  N
  N58      1.0000 0.07580  0.28513  0.13104  Biso   1.000  N
  N59      1.0000 0.03610  0.32203  0.17656  Biso   1.000  N
  N60      1.0000 0.04070  0.23486  0.17199  Biso   1.000  N
  N61      1.0000 0.92230  0.28543  0.34294  Biso   1.000  N
  N62      1.0000 0.51000  0.43641  0.41441  Biso   1.000  N
  N63      1.0000 0.92980  0.43486  0.53187  Biso   1.000  N
  N64      1.0000 0.17520  0.36302  0.40713  Biso   1.000  N
  N65      1.0000 0.18000  0.39664  0.45490  Biso   1.000  N
  N66      1.0000 0.03360  0.36055  0.43704  Biso   1.000  N
  N67      1.0000 0.88900  0.38828  0.59387  Biso   1.000  N
  N68      1.0000 0.89390  0.03417  0.61110  Biso   1.000  N
  N69      1.0000 0.07350  0.24041  0.77401  Biso   1.000  N
  N70      1.0000 0.92420  0.21487  0.63104  Biso   1.000  N
  N71      1.0000 0.96390  0.17797  0.67656  Biso   1.000  N
  N72      1.0000 0.95930  0.26514  0.67199  Biso   1.000  N
  N73      1.0000 0.57770  0.78543  0.65706  Biso   1.000  N
  N74      1.0000 0.99000  0.93641  0.58559  Biso   1.000  N
  N75      1.0000 0.57020  0.93486  0.46813  Biso   1.000  N
  N76      1.0000 0.32480  0.86302  0.59287  Biso   1.000  N
  N77      1.0000 0.32000  0.89664  0.54510  Biso   1.000  N
  N78      1.0000 0.46640  0.86055  0.56296  Biso   1.000  N
  N79      1.0000 0.61100  0.88828  0.40613  Biso   1.000  N
  N80      1.0000 0.60610  0.53417  0.38890  Biso   1.000  N
  N81      1.0000 0.42650  0.74041  0.22599  Biso   1.000  N
  N82      1.0000 0.57580  0.71487  0.36896  Biso   1.000  N
  N83      1.0000 0.53610  0.67797  0.32344  Biso   1.000  N
  N84      1.0000 0.54070  0.76514  0.32801  Biso   1.000  N
  N85      1.0000 0.42230  0.71457  0.15706  Biso   1.000  N
  N86      1.0000 0.01000  0.56359  0.08559  Biso   1.000  N
  N87      1.0000 0.42980  0.56514  0.96813  Biso   1.000  N
  N88      1.0000 0.67520  0.63698  0.09287  Biso   1.000  N
  N89      1.0000 0.68000  0.60336  0.04510  Biso   1.000  N
  N90      1.0000 0.53360  0.63945  0.06296  Biso   1.000  N
  N91      1.0000 0.38900  0.61172  0.90613  Biso   1.000  N
  N92      1.0000 0.39390  0.96583  0.88890  Biso   1.000  N
  N93      1.0000 0.57350  0.75959  0.72599  Biso   1.000  N
  N94      1.0000 0.42420  0.78513  0.86896  Biso   1.000  N
  N95      1.0000 0.46390  0.82203  0.82344  Biso   1.000  N
  N96      1.0000 0.45930  0.73486  0.82801  Biso   1.000  N
