data_image0
_cell_length_a       27.122
_cell_length_b       13.692
_cell_length_c       45.963
_cell_angle_alpha    90
_cell_angle_beta     90
_cell_angle_gamma    90

_symmetry_space_group_name_H-M    "P 1"
_symmetry_int_tables_number       1

loop_
  _symmetry_equiv_pos_as_xyz
  'x, y, z'

loop_
  _atom_site_label
  _atom_site_occupancy
  _atom_site_fract_x
  _atom_site_fract_y
  _atom_site_fract_z
  _atom_site_thermal_displace_type
  _atom_site_B_iso_or_equiv
  _atom_site_type_symbol
  Zn1      1.0000 0.45069  0.36111  0.06858  Biso   1.000  Zn
  Zn2      1.0000 0.25254  0.35077  0.80985  Biso   1.000  Zn
  Zn3      1.0000 0.46719  0.15011  0.90729  Biso   1.000  Zn
  I1       1.0000 0.51754  0.45682  0.09457  Biso   1.000  I
  I2       1.0000 0.45468  0.17878  0.05760  Biso   1.000  I
  I3       1.0000 0.16129  0.33833  0.82207  Biso   1.000  I
  I4       1.0000 0.30394  0.19588  0.80255  Biso   1.000  I
  I5       1.0000 0.42038  0.22888  0.86589  Biso   1.000  I
  I6       1.0000 0.47976  0.23275  0.95624  Biso   1.000  I
  C1       1.0000 0.30780  0.38290  0.86408  Biso   1.000  C
  H1       1.0000 0.30800  0.31350  0.86430  Biso   1.000  H
  C2       1.0000 0.32830  0.43230  0.88699  Biso   1.000  C
  H2       1.0000 0.34230  0.39730  0.90280  Biso   1.000  H
  C3       1.0000 0.28770  0.52590  0.84169  Biso   1.000  C
  H3       1.0000 0.27310  0.55920  0.82580  Biso   1.000  H
  C4       1.0000 0.30780  0.58030  0.86367  Biso   1.000  C
  H4       1.0000 0.30740  0.64970  0.86290  Biso   1.000  H
  C5       1.0000 0.32860  0.53220  0.88693  Biso   1.000  C
  C6       1.0000 0.35130  0.58740  0.91134  Biso   1.000  C
  C7       1.0000 0.42880  0.95400  0.89305  Biso   1.000  C
  H5       1.0000 0.43570  0.97650  0.87390  Biso   1.000  H
  C8       1.0000 0.41100  0.86120  0.89642  Biso   1.000  C
  H6       1.0000 0.40510  0.82090  0.88000  Biso   1.000  H
  C9       1.0000 0.42670  0.98240  0.94143  Biso   1.000  C
  H7       1.0000 0.43120  0.02550  0.95740  Biso   1.000  H
  C10      1.0000 0.40960  0.89010  0.94690  Biso   1.000  C
  H8       1.0000 0.40340  0.86990  0.96630  Biso   1.000  H
  C11      1.0000 0.40150  0.82700  0.92424  Biso   1.000  C
  C12      1.0000 0.38530  0.72490  0.92872  Biso   1.000  C
  C13      1.0000 0.44600  0.52580  0.02599  Biso   1.000  C
  H9       1.0000 0.46710  0.55620  0.03980  Biso   1.000  H
  C14      1.0000 0.43070  0.57890  0.00277  Biso   1.000  C
  H10      1.0000 0.44110  0.64470  0.00040  Biso   1.000  H
  C15      1.0000 0.40370  0.38950  0.01092  Biso   1.000  C
  H11      1.0000 0.39460  0.32300  0.01350  Biso   1.000  H
  C16      1.0000 0.38620  0.44010  0.98672  Biso   1.000  C
  H12      1.0000 0.36510  0.40850  0.97320  Biso   1.000  H
  C17      1.0000 0.39960  0.53570  0.98241  Biso   1.000  C
  C18      1.0000 0.38320  0.59010  0.95630  Biso   1.000  C
  C19      1.0000 0.34290  0.37430  0.08096  Biso   1.000  C
  H13      1.0000 0.34040  0.35480  0.06120  Biso   1.000  H
  C20      1.0000 0.30010  0.38920  0.09633  Biso   1.000  C
  H14      1.0000 0.26890  0.38070  0.08730  Biso   1.000  H
  C21      1.0000 0.39050  0.41230  0.12051  Biso   1.000  C
  H15      1.0000 0.42220  0.42040  0.12900  Biso   1.000  H
  C22      1.0000 0.34960  0.42800  0.13741  Biso   1.000  C
  H16      1.0000 0.35300  0.44630  0.15720  Biso   1.000  H
  C23      1.0000 0.30340  0.41670  0.12531  Biso   1.000  C
  C24      1.0000 0.25850  0.43160  0.14278  Biso   1.000  C
  C25      1.0000 0.27870  0.53910  0.25739  Biso   1.000  C
  H17      1.0000 0.31030  0.54200  0.26620  Biso   1.000  H
  C26      1.0000 0.27480  0.50400  0.22942  Biso   1.000  C
  H18      1.0000 0.30350  0.48370  0.21920  Biso   1.000  H
  C27      1.0000 0.19570  0.56100  0.26040  Biso   1.000  C
  H19      1.0000 0.16760  0.58020  0.27130  Biso   1.000  H
  C28      1.0000 0.18840  0.52590  0.23256  Biso   1.000  C
  H20      1.0000 0.15620  0.52050  0.22470  Biso   1.000  H
  C29      1.0000 0.22910  0.49860  0.21640  Biso   1.000  C
  C30      1.0000 0.22370  0.46860  0.18569  Biso   1.000  C
  C31      1.0000 0.04010  0.40130  0.13895  Biso   1.000  C
  H21      1.0000 0.01180  0.39840  0.15110  Biso   1.000  H
  C32      1.0000 0.08540  0.41940  0.15155  Biso   1.000  C
  H22      1.0000 0.08790  0.43110  0.17190  Biso   1.000  H
  C33      1.0000 0.07450  0.39200  0.09372  Biso   1.000  C
  H23      1.0000 0.07080  0.38380  0.07330  Biso   1.000  H
  C34      1.0000 0.12090  0.40790  0.10462  Biso   1.000  C
  H24      1.0000 0.14860  0.41020  0.09200  Biso   1.000  H
  C35      1.0000 0.12690  0.42040  0.13430  Biso   1.000  C
  C36      1.0000 0.17620  0.43370  0.14709  Biso   1.000  C
  N1       1.0000 0.28750  0.42840  0.84148  Biso   1.000  N
  N2       1.0000 0.43700  0.01420  0.91521  Biso   1.000  N
  N3       1.0000 0.43274  0.43230  0.03049  Biso   1.000  N
  N4       1.0000 0.36330  0.68070  0.90641  Biso   1.000  N
  N5       1.0000 0.39548  0.68400  0.95436  Biso   1.000  N
  N6       1.0000 0.36001  0.53820  0.93597  Biso   1.000  N
  N7       1.0000 0.38765  0.38600  0.09242  Biso   1.000  N
  N8       1.0000 0.23950  0.56940  0.27262  Biso   1.000  N
  N9       1.0000 0.03459  0.38760  0.11037  Biso   1.000  N
  N10      1.0000 0.26518  0.45500  0.17076  Biso   1.000  N
  N11      1.0000 0.17829  0.45870  0.17538  Biso   1.000  N
  N12      1.0000 0.21493  0.42070  0.13003  Biso   1.000  N
  Zn4      1.0000 0.04931  0.63889  0.56858  Biso   1.000  Zn
  Zn5      1.0000 0.24746  0.64923  0.30985  Biso   1.000  Zn
  Zn6      1.0000 0.03281  0.84989  0.40729  Biso   1.000  Zn
  I7       1.0000 0.98246  0.54318  0.59457  Biso   1.000  I
  I8       1.0000 0.04532  0.82122  0.55760  Biso   1.000  I
  I9       1.0000 0.33871  0.66167  0.32207  Biso   1.000  I
  I10      1.0000 0.19606  0.80412  0.30255  Biso   1.000  I
  I11      1.0000 0.07962  0.77112  0.36589  Biso   1.000  I
  I12      1.0000 0.02024  0.76725  0.45624  Biso   1.000  I
  C37      1.0000 0.19220  0.61710  0.36408  Biso   1.000  C
  H25      1.0000 0.19200  0.68650  0.36430  Biso   1.000  H
  C38      1.0000 0.17170  0.56770  0.38699  Biso   1.000  C
  H26      1.0000 0.15770  0.60270  0.40280  Biso   1.000  H
  C39      1.0000 0.21230  0.47410  0.34169  Biso   1.000  C
  H27      1.0000 0.22690  0.44080  0.32580  Biso   1.000  H
  C40      1.0000 0.19220  0.41970  0.36367  Biso   1.000  C
  H28      1.0000 0.19260  0.35030  0.36290  Biso   1.000  H
  C41      1.0000 0.17140  0.46780  0.38693  Biso   1.000  C
  C42      1.0000 0.14870  0.41260  0.41134  Biso   1.000  C
  C43      1.0000 0.07120  0.04600  0.39305  Biso   1.000  C
  H29      1.0000 0.06430  0.02350  0.37390  Biso   1.000  H
  C44      1.0000 0.08900  0.13880  0.39642  Biso   1.000  C
  H30      1.0000 0.09490  0.17910  0.38000  Biso   1.000  H
  C45      1.0000 0.07330  0.01760  0.44143  Biso   1.000  C
  H31      1.0000 0.06880  0.97450  0.45740  Biso   1.000  H
  C46      1.0000 0.09040  0.10990  0.44690  Biso   1.000  C
  H32      1.0000 0.09660  0.13010  0.46630  Biso   1.000  H
  C47      1.0000 0.09850  0.17300  0.42424  Biso   1.000  C
  C48      1.0000 0.11470  0.27510  0.42872  Biso   1.000  C
  C49      1.0000 0.05400  0.47420  0.52599  Biso   1.000  C
  H33      1.0000 0.03290  0.44380  0.53980  Biso   1.000  H
  C50      1.0000 0.06930  0.42110  0.50277  Biso   1.000  C
  H34      1.0000 0.05890  0.35530  0.50040  Biso   1.000  H
  C51      1.0000 0.09630  0.61050  0.51092  Biso   1.000  C
  H35      1.0000 0.10540  0.67700  0.51350  Biso   1.000  H
  C52      1.0000 0.11380  0.55990  0.48672  Biso   1.000  C
  H36      1.0000 0.13490  0.59150  0.47320  Biso   1.000  H
  C53      1.0000 0.10040  0.46430  0.48241  Biso   1.000  C
  C54      1.0000 0.11680  0.40990  0.45630  Biso   1.000  C
  C55      1.0000 0.15710  0.62570  0.58096  Biso   1.000  C
  H37      1.0000 0.15960  0.64520  0.56120  Biso   1.000  H
  C56      1.0000 0.19990  0.61080  0.59633  Biso   1.000  C
  H38      1.0000 0.23110  0.61930  0.58730  Biso   1.000  H
  C57      1.0000 0.10950  0.58770  0.62051  Biso   1.000  C
  H39      1.0000 0.07780  0.57960  0.62900  Biso   1.000  H
  C58      1.0000 0.15040  0.57200  0.63741  Biso   1.000  C
  H40      1.0000 0.14700  0.55370  0.65720  Biso   1.000  H
  C59      1.0000 0.19660  0.58330  0.62531  Biso   1.000  C
  C60      1.0000 0.24150  0.56840  0.64278  Biso   1.000  C
  C61      1.0000 0.22130  0.46090  0.75739  Biso   1.000  C
  H41      1.0000 0.18970  0.45800  0.76620  Biso   1.000  H
  C62      1.0000 0.22520  0.49600  0.72942  Biso   1.000  C
  H42      1.0000 0.19650  0.51630  0.71920  Biso   1.000  H
  C63      1.0000 0.30430  0.43900  0.76040  Biso   1.000  C
  H43      1.0000 0.33240  0.41980  0.77130  Biso   1.000  H
  C64      1.0000 0.31160  0.47410  0.73256  Biso   1.000  C
  H44      1.0000 0.34380  0.47950  0.72470  Biso   1.000  H
  C65      1.0000 0.27090  0.50140  0.71640  Biso   1.000  C
  C66      1.0000 0.27630  0.53140  0.68569  Biso   1.000  C
  C67      1.0000 0.45990  0.59870  0.63895  Biso   1.000  C
  H45      1.0000 0.48820  0.60160  0.65110  Biso   1.000  H
  C68      1.0000 0.41460  0.58060  0.65155  Biso   1.000  C
  H46      1.0000 0.41210  0.56890  0.67190  Biso   1.000  H
  C69      1.0000 0.42550  0.60800  0.59372  Biso   1.000  C
  H47      1.0000 0.42920  0.61620  0.57330  Biso   1.000  H
  C70      1.0000 0.37910  0.59210  0.60462  Biso   1.000  C
  H48      1.0000 0.35140  0.58980  0.59200  Biso   1.000  H
  C71      1.0000 0.37310  0.57960  0.63430  Biso   1.000  C
  C72      1.0000 0.32380  0.56630  0.64709  Biso   1.000  C
  N13      1.0000 0.21250  0.57160  0.34148  Biso   1.000  N
  N14      1.0000 0.06300  0.98580  0.41521  Biso   1.000  N
  N15      1.0000 0.06726  0.56770  0.53049  Biso   1.000  N
  N16      1.0000 0.13670  0.31930  0.40641  Biso   1.000  N
  N17      1.0000 0.10452  0.31600  0.45436  Biso   1.000  N
  N18      1.0000 0.13999  0.46180  0.43597  Biso   1.000  N
  N19      1.0000 0.11235  0.61400  0.59242  Biso   1.000  N
  N20      1.0000 0.26050  0.43060  0.77262  Biso   1.000  N
  N21      1.0000 0.46541  0.61240  0.61037  Biso   1.000  N
  N22      1.0000 0.23482  0.54500  0.67076  Biso   1.000  N
  N23      1.0000 0.32171  0.54130  0.67538  Biso   1.000  N
  N24      1.0000 0.28507  0.57930  0.63003  Biso   1.000  N
  Zn7      1.0000 0.54931  0.86111  0.43141  Biso   1.000  Zn
  Zn8      1.0000 0.74746  0.85077  0.69015  Biso   1.000  Zn
  Zn9      1.0000 0.53281  0.65011  0.59271  Biso   1.000  Zn
  I13      1.0000 0.48246  0.95682  0.40542  Biso   1.000  I
  I14      1.0000 0.54532  0.67878  0.44240  Biso   1.000  I
  I15      1.0000 0.83871  0.83833  0.67793  Biso   1.000  I
  I16      1.0000 0.69606  0.69588  0.69745  Biso   1.000  I
  I17      1.0000 0.57962  0.72888  0.63411  Biso   1.000  I
  I18      1.0000 0.52024  0.73275  0.54376  Biso   1.000  I
  C73      1.0000 0.69220  0.88290  0.63592  Biso   1.000  C
  H49      1.0000 0.69200  0.81350  0.63570  Biso   1.000  H
  C74      1.0000 0.67170  0.93230  0.61301  Biso   1.000  C
  H50      1.0000 0.65770  0.89730  0.59720  Biso   1.000  H
  C75      1.0000 0.71230  0.02590  0.65831  Biso   1.000  C
  H51      1.0000 0.72690  0.05920  0.67420  Biso   1.000  H
  C76      1.0000 0.69220  0.08030  0.63633  Biso   1.000  C
  H52      1.0000 0.69260  0.14970  0.63710  Biso   1.000  H
  C77      1.0000 0.67140  0.03220  0.61307  Biso   1.000  C
  C78      1.0000 0.64870  0.08740  0.58866  Biso   1.000  C
  C79      1.0000 0.57120  0.45400  0.60695  Biso   1.000  C
  H53      1.0000 0.56430  0.47650  0.62610  Biso   1.000  H
  C80      1.0000 0.58900  0.36120  0.60358  Biso   1.000  C
  H54      1.0000 0.59490  0.32090  0.62000  Biso   1.000  H
  C81      1.0000 0.57330  0.48240  0.55857  Biso   1.000  C
  H55      1.0000 0.56880  0.52550  0.54260  Biso   1.000  H
  C82      1.0000 0.59040  0.39010  0.55310  Biso   1.000  C
  H56      1.0000 0.59660  0.36990  0.53370  Biso   1.000  H
  C83      1.0000 0.59850  0.32700  0.57576  Biso   1.000  C
  C84      1.0000 0.61470  0.22490  0.57128  Biso   1.000  C
  C85      1.0000 0.55400  0.02580  0.47401  Biso   1.000  C
  H57      1.0000 0.53290  0.05620  0.46020  Biso   1.000  H
  C86      1.0000 0.56930  0.07890  0.49723  Biso   1.000  C
  H58      1.0000 0.55890  0.14470  0.49960  Biso   1.000  H
  C87      1.0000 0.59630  0.88950  0.48908  Biso   1.000  C
  H59      1.0000 0.60540  0.82300  0.48650  Biso   1.000  H
  C88      1.0000 0.61380  0.94010  0.51328  Biso   1.000  C
  H60      1.0000 0.63490  0.90850  0.52680  Biso   1.000  H
  C89      1.0000 0.60040  0.03570  0.51759  Biso   1.000  C
  C90      1.0000 0.61680  0.09010  0.54370  Biso   1.000  C
  C91      1.0000 0.65710  0.87430  0.41904  Biso   1.000  C
  H61      1.0000 0.65960  0.85480  0.43880  Biso   1.000  H
  C92      1.0000 0.69990  0.88920  0.40367  Biso   1.000  C
  H62      1.0000 0.73110  0.88070  0.41270  Biso   1.000  H
  C93      1.0000 0.60950  0.91230  0.37949  Biso   1.000  C
  H63      1.0000 0.57780  0.92040  0.37100  Biso   1.000  H
  C94      1.0000 0.65040  0.92800  0.36259  Biso   1.000  C
  H64      1.0000 0.64700  0.94630  0.34280  Biso   1.000  H
  C95      1.0000 0.69660  0.91670  0.37469  Biso   1.000  C
  C96      1.0000 0.74150  0.93160  0.35722  Biso   1.000  C
  C97      1.0000 0.72130  0.03910  0.24261  Biso   1.000  C
  H65      1.0000 0.68970  0.04200  0.23380  Biso   1.000  H
  C98      1.0000 0.72520  0.00400  0.27058  Biso   1.000  C
  H66      1.0000 0.69650  0.98370  0.28080  Biso   1.000  H
  C99      1.0000 0.80430  0.06100  0.23960  Biso   1.000  C
  H67      1.0000 0.83240  0.08020  0.22870  Biso   1.000  H
  C100     1.0000 0.81160  0.02590  0.26744  Biso   1.000  C
  H68      1.0000 0.84380  0.02050  0.27530  Biso   1.000  H
  C101     1.0000 0.77090  0.99860  0.28360  Biso   1.000  C
  C102     1.0000 0.77630  0.96860  0.31431  Biso   1.000  C
  C103     1.0000 0.95990  0.90130  0.36105  Biso   1.000  C
  H69      1.0000 0.98820  0.89840  0.34890  Biso   1.000  H
  C104     1.0000 0.91460  0.91940  0.34845  Biso   1.000  C
  H70      1.0000 0.91210  0.93110  0.32810  Biso   1.000  H
  C105     1.0000 0.92550  0.89200  0.40628  Biso   1.000  C
  H71      1.0000 0.92920  0.88380  0.42670  Biso   1.000  H
  C106     1.0000 0.87910  0.90790  0.39538  Biso   1.000  C
  H72      1.0000 0.85140  0.91020  0.40800  Biso   1.000  H
  C107     1.0000 0.87310  0.92040  0.36570  Biso   1.000  C
  C108     1.0000 0.82380  0.93370  0.35291  Biso   1.000  C
  N25      1.0000 0.71250  0.92840  0.65852  Biso   1.000  N
  N26      1.0000 0.56300  0.51420  0.58479  Biso   1.000  N
  N27      1.0000 0.56726  0.93230  0.46951  Biso   1.000  N
  N28      1.0000 0.63670  0.18070  0.59359  Biso   1.000  N
  N29      1.0000 0.60452  0.18400  0.54564  Biso   1.000  N
  N30      1.0000 0.63999  0.03820  0.56403  Biso   1.000  N
  N31      1.0000 0.61235  0.88600  0.40758  Biso   1.000  N
  N32      1.0000 0.76050  0.06940  0.22738  Biso   1.000  N
  N33      1.0000 0.96541  0.88760  0.38963  Biso   1.000  N
  N34      1.0000 0.73482  0.95500  0.32924  Biso   1.000  N
  N35      1.0000 0.82171  0.95870  0.32462  Biso   1.000  N
  N36      1.0000 0.78507  0.92070  0.36997  Biso   1.000  N
  Zn10     1.0000 0.95069  0.13889  0.93141  Biso   1.000  Zn
  Zn11     1.0000 0.75254  0.14923  0.19015  Biso   1.000  Zn
  Zn12     1.0000 0.96719  0.34989  0.09271  Biso   1.000  Zn
  I19      1.0000 0.01754  0.04318  0.90542  Biso   1.000  I
  I20      1.0000 0.95468  0.32122  0.94240  Biso   1.000  I
  I21      1.0000 0.66129  0.16167  0.17793  Biso   1.000  I
  I22      1.0000 0.80394  0.30412  0.19745  Biso   1.000  I
  I23      1.0000 0.92038  0.27112  0.13411  Biso   1.000  I
  I24      1.0000 0.97976  0.26725  0.04376  Biso   1.000  I
  C109     1.0000 0.80780  0.11710  0.13592  Biso   1.000  C
  H73      1.0000 0.80800  0.18650  0.13570  Biso   1.000  H
  C110     1.0000 0.82830  0.06770  0.11301  Biso   1.000  C
  H74      1.0000 0.84230  0.10270  0.09720  Biso   1.000  H
  C111     1.0000 0.78770  0.97410  0.15831  Biso   1.000  C
  H75      1.0000 0.77310  0.94080  0.17420  Biso   1.000  H
  C112     1.0000 0.80780  0.91970  0.13633  Biso   1.000  C
  H76      1.0000 0.80740  0.85030  0.13710  Biso   1.000  H
  C113     1.0000 0.82860  0.96780  0.11307  Biso   1.000  C
  C114     1.0000 0.85130  0.91260  0.08866  Biso   1.000  C
  C115     1.0000 0.92880  0.54600  0.10695  Biso   1.000  C
  H77      1.0000 0.93570  0.52350  0.12610  Biso   1.000  H
  C116     1.0000 0.91100  0.63880  0.10358  Biso   1.000  C
  H78      1.0000 0.90510  0.67910  0.12000  Biso   1.000  H
  C117     1.0000 0.92670  0.51760  0.05857  Biso   1.000  C
  H79      1.0000 0.93120  0.47450  0.04260  Biso   1.000  H
  C118     1.0000 0.90960  0.60990  0.05310  Biso   1.000  C
  H80      1.0000 0.90340  0.63010  0.03370  Biso   1.000  H
  C119     1.0000 0.90150  0.67300  0.07576  Biso   1.000  C
  C120     1.0000 0.88530  0.77510  0.07128  Biso   1.000  C
  C121     1.0000 0.94600  0.97420  0.97401  Biso   1.000  C
  H81      1.0000 0.96710  0.94380  0.96020  Biso   1.000  H
  C122     1.0000 0.93070  0.92110  0.99723  Biso   1.000  C
  H82      1.0000 0.94110  0.85530  0.99960  Biso   1.000  H
  C123     1.0000 0.90370  0.11050  0.98908  Biso   1.000  C
  H83      1.0000 0.89460  0.17700  0.98650  Biso   1.000  H
  C124     1.0000 0.88620  0.05990  0.01328  Biso   1.000  C
  H84      1.0000 0.86510  0.09150  0.02680  Biso   1.000  H
  C125     1.0000 0.89960  0.96430  0.01759  Biso   1.000  C
  C126     1.0000 0.88320  0.90990  0.04370  Biso   1.000  C
  C127     1.0000 0.84290  0.12570  0.91904  Biso   1.000  C
  H85      1.0000 0.84040  0.14520  0.93880  Biso   1.000  H
  C128     1.0000 0.80010  0.11080  0.90367  Biso   1.000  C
  H86      1.0000 0.76890  0.11930  0.91270  Biso   1.000  H
  C129     1.0000 0.89050  0.08770  0.87949  Biso   1.000  C
  H87      1.0000 0.92220  0.07960  0.87100  Biso   1.000  H
  C130     1.0000 0.84960  0.07200  0.86259  Biso   1.000  C
  H88      1.0000 0.85300  0.05370  0.84280  Biso   1.000  H
  C131     1.0000 0.80340  0.08330  0.87469  Biso   1.000  C
  C132     1.0000 0.75850  0.06840  0.85722  Biso   1.000  C
  C133     1.0000 0.77870  0.96090  0.74261  Biso   1.000  C
  H89      1.0000 0.81030  0.95800  0.73380  Biso   1.000  H
  C134     1.0000 0.77480  0.99600  0.77058  Biso   1.000  C
  H90      1.0000 0.80350  0.01630  0.78080  Biso   1.000  H
  C135     1.0000 0.69570  0.93900  0.73960  Biso   1.000  C
  H91      1.0000 0.66760  0.91980  0.72870  Biso   1.000  H
  C136     1.0000 0.68840  0.97410  0.76744  Biso   1.000  C
  H92      1.0000 0.65620  0.97950  0.77530  Biso   1.000  H
  C137     1.0000 0.72910  0.00140  0.78360  Biso   1.000  C
  C138     1.0000 0.72370  0.03140  0.81431  Biso   1.000  C
  C139     1.0000 0.54010  0.09870  0.86105  Biso   1.000  C
  H93      1.0000 0.51180  0.10160  0.84890  Biso   1.000  H
  C140     1.0000 0.58540  0.08060  0.84845  Biso   1.000  C
  H94      1.0000 0.58790  0.06890  0.82810  Biso   1.000  H
  C141     1.0000 0.57450  0.10800  0.90628  Biso   1.000  C
  H95      1.0000 0.57080  0.11620  0.92670  Biso   1.000  H
  C142     1.0000 0.62090  0.09210  0.89538  Biso   1.000  C
  H96      1.0000 0.64860  0.08980  0.90800  Biso   1.000  H
  C143     1.0000 0.62690  0.07960  0.86570  Biso   1.000  C
  C144     1.0000 0.67620  0.06630  0.85291  Biso   1.000  C
  N37      1.0000 0.78750  0.07160  0.15852  Biso   1.000  N
  N38      1.0000 0.93700  0.48580  0.08479  Biso   1.000  N
  N39      1.0000 0.93274  0.06770  0.96951  Biso   1.000  N
  N40      1.0000 0.86330  0.81930  0.09359  Biso   1.000  N
  N41      1.0000 0.89548  0.81600  0.04564  Biso   1.000  N
  N42      1.0000 0.86001  0.96180  0.06403  Biso   1.000  N
  N43      1.0000 0.88765  0.11400  0.90758  Biso   1.000  N
  N44      1.0000 0.73950  0.93060  0.72738  Biso   1.000  N
  N45      1.0000 0.53459  0.11240  0.88963  Biso   1.000  N
  N46      1.0000 0.76518  0.04500  0.82924  Biso   1.000  N
  N47      1.0000 0.67829  0.04130  0.82462  Biso   1.000  N
  N48      1.0000 0.71493  0.07930  0.86997  Biso   1.000  N
  Zn13     1.0000 0.54931  0.63889  0.93141  Biso   1.000  Zn
  Zn14     1.0000 0.74746  0.64923  0.19015  Biso   1.000  Zn
  Zn15     1.0000 0.53281  0.84989  0.09271  Biso   1.000  Zn
  I25      1.0000 0.48246  0.54318  0.90542  Biso   1.000  I
  I26      1.0000 0.54532  0.82122  0.94240  Biso   1.000  I
  I27      1.0000 0.83871  0.66167  0.17793  Biso   1.000  I
  I28      1.0000 0.69606  0.80412  0.19745  Biso   1.000  I
  I29      1.0000 0.57962  0.77112  0.13411  Biso   1.000  I
  I30      1.0000 0.52024  0.76725  0.04376  Biso   1.000  I
  C145     1.0000 0.69220  0.61710  0.13592  Biso   1.000  C
  H97      1.0000 0.69200  0.68650  0.13570  Biso   1.000  H
  C146     1.0000 0.67170  0.56770  0.11301  Biso   1.000  C
  H98      1.0000 0.65770  0.60270  0.09720  Biso   1.000  H
  C147     1.0000 0.71230  0.47410  0.15831  Biso   1.000  C
  H99      1.0000 0.72690  0.44080  0.17420  Biso   1.000  H
  C148     1.0000 0.69220  0.41970  0.13633  Biso   1.000  C
  H100     1.0000 0.69260  0.35030  0.13710  Biso   1.000  H
  C149     1.0000 0.67140  0.46780  0.11307  Biso   1.000  C
  C150     1.0000 0.64870  0.41260  0.08866  Biso   1.000  C
  C151     1.0000 0.57120  0.04600  0.10695  Biso   1.000  C
  H101     1.0000 0.56430  0.02350  0.12610  Biso   1.000  H
  C152     1.0000 0.58900  0.13880  0.10358  Biso   1.000  C
  H102     1.0000 0.59490  0.17910  0.12000  Biso   1.000  H
  C153     1.0000 0.57330  0.01760  0.05857  Biso   1.000  C
  H103     1.0000 0.56880  0.97450  0.04260  Biso   1.000  H
  C154     1.0000 0.59040  0.10990  0.05310  Biso   1.000  C
  H104     1.0000 0.59660  0.13010  0.03370  Biso   1.000  H
  C155     1.0000 0.59850  0.17300  0.07576  Biso   1.000  C
  C156     1.0000 0.61470  0.27510  0.07128  Biso   1.000  C
  C157     1.0000 0.55400  0.47420  0.97401  Biso   1.000  C
  H105     1.0000 0.53290  0.44380  0.96020  Biso   1.000  H
  C158     1.0000 0.56930  0.42110  0.99723  Biso   1.000  C
  H106     1.0000 0.55890  0.35530  0.99960  Biso   1.000  H
  C159     1.0000 0.59630  0.61050  0.98908  Biso   1.000  C
  H107     1.0000 0.60540  0.67700  0.98650  Biso   1.000  H
  C160     1.0000 0.61380  0.55990  0.01328  Biso   1.000  C
  H108     1.0000 0.63490  0.59150  0.02680  Biso   1.000  H
  C161     1.0000 0.60040  0.46430  0.01759  Biso   1.000  C
  C162     1.0000 0.61680  0.40990  0.04370  Biso   1.000  C
  C163     1.0000 0.65710  0.62570  0.91904  Biso   1.000  C
  H109     1.0000 0.65960  0.64520  0.93880  Biso   1.000  H
  C164     1.0000 0.69990  0.61080  0.90367  Biso   1.000  C
  H110     1.0000 0.73110  0.61930  0.91270  Biso   1.000  H
  C165     1.0000 0.60950  0.58770  0.87949  Biso   1.000  C
  H111     1.0000 0.57780  0.57960  0.87100  Biso   1.000  H
  C166     1.0000 0.65040  0.57200  0.86259  Biso   1.000  C
  H112     1.0000 0.64700  0.55370  0.84280  Biso   1.000  H
  C167     1.0000 0.69660  0.58330  0.87469  Biso   1.000  C
  C168     1.0000 0.74150  0.56840  0.85722  Biso   1.000  C
  C169     1.0000 0.72130  0.46090  0.74261  Biso   1.000  C
  H113     1.0000 0.68970  0.45800  0.73380  Biso   1.000  H
  C170     1.0000 0.72520  0.49600  0.77058  Biso   1.000  C
  H114     1.0000 0.69650  0.51630  0.78080  Biso   1.000  H
  C171     1.0000 0.80430  0.43900  0.73960  Biso   1.000  C
  H115     1.0000 0.83240  0.41980  0.72870  Biso   1.000  H
  C172     1.0000 0.81160  0.47410  0.76744  Biso   1.000  C
  H116     1.0000 0.84380  0.47950  0.77530  Biso   1.000  H
  C173     1.0000 0.77090  0.50140  0.78360  Biso   1.000  C
  C174     1.0000 0.77630  0.53140  0.81431  Biso   1.000  C
  C175     1.0000 0.95990  0.59870  0.86105  Biso   1.000  C
  H117     1.0000 0.98820  0.60160  0.84890  Biso   1.000  H
  C176     1.0000 0.91460  0.58060  0.84845  Biso   1.000  C
  H118     1.0000 0.91210  0.56890  0.82810  Biso   1.000  H
  C177     1.0000 0.92550  0.60800  0.90628  Biso   1.000  C
  H119     1.0000 0.92920  0.61620  0.92670  Biso   1.000  H
  C178     1.0000 0.87910  0.59210  0.89538  Biso   1.000  C
  H120     1.0000 0.85140  0.58980  0.90800  Biso   1.000  H
  C179     1.0000 0.87310  0.57960  0.86570  Biso   1.000  C
  C180     1.0000 0.82380  0.56630  0.85291  Biso   1.000  C
  N49      1.0000 0.71250  0.57160  0.15852  Biso   1.000  N
  N50      1.0000 0.56300  0.98580  0.08479  Biso   1.000  N
  N51      1.0000 0.56726  0.56770  0.96951  Biso   1.000  N
  N52      1.0000 0.63670  0.31930  0.09359  Biso   1.000  N
  N53      1.0000 0.60452  0.31600  0.04564  Biso   1.000  N
  N54      1.0000 0.63999  0.46180  0.06403  Biso   1.000  N
  N55      1.0000 0.61235  0.61400  0.90758  Biso   1.000  N
  N56      1.0000 0.76050  0.43060  0.72738  Biso   1.000  N
  N57      1.0000 0.96541  0.61240  0.88963  Biso   1.000  N
  N58      1.0000 0.73482  0.54500  0.82924  Biso   1.000  N
  N59      1.0000 0.82171  0.54130  0.82462  Biso   1.000  N
  N60      1.0000 0.78507  0.57930  0.86997  Biso   1.000  N
  Zn16     1.0000 0.95069  0.36111  0.43141  Biso   1.000  Zn
  Zn17     1.0000 0.75254  0.35077  0.69015  Biso   1.000  Zn
  Zn18     1.0000 0.96719  0.15011  0.59271  Biso   1.000  Zn
  I31      1.0000 0.01754  0.45682  0.40542  Biso   1.000  I
  I32      1.0000 0.95468  0.17878  0.44240  Biso   1.000  I
  I33      1.0000 0.66129  0.33833  0.67793  Biso   1.000  I
  I34      1.0000 0.80394  0.19588  0.69745  Biso   1.000  I
  I35      1.0000 0.92038  0.22888  0.63411  Biso   1.000  I
  I36      1.0000 0.97976  0.23275  0.54376  Biso   1.000  I
  C181     1.0000 0.80780  0.38290  0.63592  Biso   1.000  C
  H121     1.0000 0.80800  0.31350  0.63570  Biso   1.000  H
  C182     1.0000 0.82830  0.43230  0.61301  Biso   1.000  C
  H122     1.0000 0.84230  0.39730  0.59720  Biso   1.000  H
  C183     1.0000 0.78770  0.52590  0.65831  Biso   1.000  C
  H123     1.0000 0.77310  0.55920  0.67420  Biso   1.000  H
  C184     1.0000 0.80780  0.58030  0.63633  Biso   1.000  C
  H124     1.0000 0.80740  0.64970  0.63710  Biso   1.000  H
  C185     1.0000 0.82860  0.53220  0.61307  Biso   1.000  C
  C186     1.0000 0.85130  0.58740  0.58866  Biso   1.000  C
  C187     1.0000 0.92880  0.95400  0.60695  Biso   1.000  C
  H125     1.0000 0.93570  0.97650  0.62610  Biso   1.000  H
  C188     1.0000 0.91100  0.86120  0.60358  Biso   1.000  C
  H126     1.0000 0.90510  0.82090  0.62000  Biso   1.000  H
  C189     1.0000 0.92670  0.98240  0.55857  Biso   1.000  C
  H127     1.0000 0.93120  0.02550  0.54260  Biso   1.000  H
  C190     1.0000 0.90960  0.89010  0.55310  Biso   1.000  C
  H128     1.0000 0.90340  0.86990  0.53370  Biso   1.000  H
  C191     1.0000 0.90150  0.82700  0.57576  Biso   1.000  C
  C192     1.0000 0.88530  0.72490  0.57128  Biso   1.000  C
  C193     1.0000 0.94600  0.52580  0.47401  Biso   1.000  C
  H129     1.0000 0.96710  0.55620  0.46020  Biso   1.000  H
  C194     1.0000 0.93070  0.57890  0.49723  Biso   1.000  C
  H130     1.0000 0.94110  0.64470  0.49960  Biso   1.000  H
  C195     1.0000 0.90370  0.38950  0.48908  Biso   1.000  C
  H131     1.0000 0.89460  0.32300  0.48650  Biso   1.000  H
  C196     1.0000 0.88620  0.44010  0.51328  Biso   1.000  C
  H132     1.0000 0.86510  0.40850  0.52680  Biso   1.000  H
  C197     1.0000 0.89960  0.53570  0.51759  Biso   1.000  C
  C198     1.0000 0.88320  0.59010  0.54370  Biso   1.000  C
  C199     1.0000 0.84290  0.37430  0.41904  Biso   1.000  C
  H133     1.0000 0.84040  0.35480  0.43880  Biso   1.000  H
  C200     1.0000 0.80010  0.38920  0.40367  Biso   1.000  C
  H134     1.0000 0.76890  0.38070  0.41270  Biso   1.000  H
  C201     1.0000 0.89050  0.41230  0.37949  Biso   1.000  C
  H135     1.0000 0.92220  0.42040  0.37100  Biso   1.000  H
  C202     1.0000 0.84960  0.42800  0.36259  Biso   1.000  C
  H136     1.0000 0.85300  0.44630  0.34280  Biso   1.000  H
  C203     1.0000 0.80340  0.41670  0.37469  Biso   1.000  C
  C204     1.0000 0.75850  0.43160  0.35722  Biso   1.000  C
  C205     1.0000 0.77870  0.53910  0.24261  Biso   1.000  C
  H137     1.0000 0.81030  0.54200  0.23380  Biso   1.000  H
  C206     1.0000 0.77480  0.50400  0.27058  Biso   1.000  C
  H138     1.0000 0.80350  0.48370  0.28080  Biso   1.000  H
  C207     1.0000 0.69570  0.56100  0.23960  Biso   1.000  C
  H139     1.0000 0.66760  0.58020  0.22870  Biso   1.000  H
  C208     1.0000 0.68840  0.52590  0.26744  Biso   1.000  C
  H140     1.0000 0.65620  0.52050  0.27530  Biso   1.000  H
  C209     1.0000 0.72910  0.49860  0.28360  Biso   1.000  C
  C210     1.0000 0.72370  0.46860  0.31431  Biso   1.000  C
  C211     1.0000 0.54010  0.40130  0.36105  Biso   1.000  C
  H141     1.0000 0.51180  0.39840  0.34890  Biso   1.000  H
  C212     1.0000 0.58540  0.41940  0.34845  Biso   1.000  C
  H142     1.0000 0.58790  0.43110  0.32810  Biso   1.000  H
  C213     1.0000 0.57450  0.39200  0.40628  Biso   1.000  C
  H143     1.0000 0.57080  0.38380  0.42670  Biso   1.000  H
  C214     1.0000 0.62090  0.40790  0.39538  Biso   1.000  C
  H144     1.0000 0.64860  0.41020  0.40800  Biso   1.000  H
  C215     1.0000 0.62690  0.42040  0.36570  Biso   1.000  C
  C216     1.0000 0.67620  0.43370  0.35291  Biso   1.000  C
  N61      1.0000 0.78750  0.42840  0.65852  Biso   1.000  N
  N62      1.0000 0.93700  0.01420  0.58479  Biso   1.000  N
  N63      1.0000 0.93274  0.43230  0.46951  Biso   1.000  N
  N64      1.0000 0.86330  0.68070  0.59359  Biso   1.000  N
  N65      1.0000 0.89548  0.68400  0.54564  Biso   1.000  N
  N66      1.0000 0.86001  0.53820  0.56403  Biso   1.000  N
  N67      1.0000 0.88765  0.38600  0.40758  Biso   1.000  N
  N68      1.0000 0.73950  0.56940  0.22738  Biso   1.000  N
  N69      1.0000 0.53459  0.38760  0.38963  Biso   1.000  N
  N70      1.0000 0.76518  0.45500  0.32924  Biso   1.000  N
  N71      1.0000 0.67829  0.45870  0.32462  Biso   1.000  N
  N72      1.0000 0.71493  0.42070  0.36997  Biso   1.000  N
  Zn19     1.0000 0.45069  0.13889  0.56858  Biso   1.000  Zn
  Zn20     1.0000 0.25254  0.14923  0.30985  Biso   1.000  Zn
  Zn21     1.0000 0.46719  0.34989  0.40729  Biso   1.000  Zn
  I37      1.0000 0.51754  0.04318  0.59457  Biso   1.000  I
  I38      1.0000 0.45468  0.32122  0.55760  Biso   1.000  I
  I39      1.0000 0.16129  0.16167  0.32207  Biso   1.000  I
  I40      1.0000 0.30394  0.30412  0.30255  Biso   1.000  I
  I41      1.0000 0.42038  0.27112  0.36589  Biso   1.000  I
  I42      1.0000 0.47976  0.26725  0.45624  Biso   1.000  I
  C217     1.0000 0.30780  0.11710  0.36408  Biso   1.000  C
  H145     1.0000 0.30800  0.18650  0.36430  Biso   1.000  H
  C218     1.0000 0.32830  0.06770  0.38699  Biso   1.000  C
  H146     1.0000 0.34230  0.10270  0.40280  Biso   1.000  H
  C219     1.0000 0.28770  0.97410  0.34169  Biso   1.000  C
  H147     1.0000 0.27310  0.94080  0.32580  Biso   1.000  H
  C220     1.0000 0.30780  0.91970  0.36367  Biso   1.000  C
  H148     1.0000 0.30740  0.85030  0.36290  Biso   1.000  H
  C221     1.0000 0.32860  0.96780  0.38693  Biso   1.000  C
  C222     1.0000 0.35130  0.91260  0.41134  Biso   1.000  C
  C223     1.0000 0.42880  0.54600  0.39305  Biso   1.000  C
  H149     1.0000 0.43570  0.52350  0.37390  Biso   1.000  H
  C224     1.0000 0.41100  0.63880  0.39642  Biso   1.000  C
  H150     1.0000 0.40510  0.67910  0.38000  Biso   1.000  H
  C225     1.0000 0.42670  0.51760  0.44143  Biso   1.000  C
  H151     1.0000 0.43120  0.47450  0.45740  Biso   1.000  H
  C226     1.0000 0.40960  0.60990  0.44690  Biso   1.000  C
  H152     1.0000 0.40340  0.63010  0.46630  Biso   1.000  H
  C227     1.0000 0.40150  0.67300  0.42424  Biso   1.000  C
  C228     1.0000 0.38530  0.77510  0.42872  Biso   1.000  C
  C229     1.0000 0.44600  0.97420  0.52599  Biso   1.000  C
  H153     1.0000 0.46710  0.94380  0.53980  Biso   1.000  H
  C230     1.0000 0.43070  0.92110  0.50277  Biso   1.000  C
  H154     1.0000 0.44110  0.85530  0.50040  Biso   1.000  H
  C231     1.0000 0.40370  0.11050  0.51092  Biso   1.000  C
  H155     1.0000 0.39460  0.17700  0.51350  Biso   1.000  H
  C232     1.0000 0.38620  0.05990  0.48672  Biso   1.000  C
  H156     1.0000 0.36510  0.09150  0.47320  Biso   1.000  H
  C233     1.0000 0.39960  0.96430  0.48241  Biso   1.000  C
  C234     1.0000 0.38320  0.90990  0.45630  Biso   1.000  C
  C235     1.0000 0.34290  0.12570  0.58096  Biso   1.000  C
  H157     1.0000 0.34040  0.14520  0.56120  Biso   1.000  H
  C236     1.0000 0.30010  0.11080  0.59633  Biso   1.000  C
  H158     1.0000 0.26890  0.11930  0.58730  Biso   1.000  H
  C237     1.0000 0.39050  0.08770  0.62051  Biso   1.000  C
  H159     1.0000 0.42220  0.07960  0.62900  Biso   1.000  H
  C238     1.0000 0.34960  0.07200  0.63741  Biso   1.000  C
  H160     1.0000 0.35300  0.05370  0.65720  Biso   1.000  H
  C239     1.0000 0.30340  0.08330  0.62531  Biso   1.000  C
  C240     1.0000 0.25850  0.06840  0.64278  Biso   1.000  C
  C241     1.0000 0.27870  0.96090  0.75739  Biso   1.000  C
  H161     1.0000 0.31030  0.95800  0.76620  Biso   1.000  H
  C242     1.0000 0.27480  0.99600  0.72942  Biso   1.000  C
  H162     1.0000 0.30350  0.01630  0.71920  Biso   1.000  H
  C243     1.0000 0.19570  0.93900  0.76040  Biso   1.000  C
  H163     1.0000 0.16760  0.91980  0.77130  Biso   1.000  H
  C244     1.0000 0.18840  0.97410  0.73256  Biso   1.000  C
  H164     1.0000 0.15620  0.97950  0.72470  Biso   1.000  H
  C245     1.0000 0.22910  0.00140  0.71640  Biso   1.000  C
  C246     1.0000 0.22370  0.03140  0.68569  Biso   1.000  C
  C247     1.0000 0.04010  0.09870  0.63895  Biso   1.000  C
  H165     1.0000 0.01180  0.10160  0.65110  Biso   1.000  H
  C248     1.0000 0.08540  0.08060  0.65155  Biso   1.000  C
  H166     1.0000 0.08790  0.06890  0.67190  Biso   1.000  H
  C249     1.0000 0.07450  0.10800  0.59372  Biso   1.000  C
  H167     1.0000 0.07080  0.11620  0.57330  Biso   1.000  H
  C250     1.0000 0.12090  0.09210  0.60462  Biso   1.000  C
  H168     1.0000 0.14860  0.08980  0.59200  Biso   1.000  H
  C251     1.0000 0.12690  0.07960  0.63430  Biso   1.000  C
  C252     1.0000 0.17620  0.06630  0.64709  Biso   1.000  C
  N73      1.0000 0.28750  0.07160  0.34148  Biso   1.000  N
  N74      1.0000 0.43700  0.48580  0.41521  Biso   1.000  N
  N75      1.0000 0.43274  0.06770  0.53049  Biso   1.000  N
  N76      1.0000 0.36330  0.81930  0.40641  Biso   1.000  N
  N77      1.0000 0.39548  0.81600  0.45436  Biso   1.000  N
  N78      1.0000 0.36001  0.96180  0.43597  Biso   1.000  N
  N79      1.0000 0.38765  0.11400  0.59242  Biso   1.000  N
  N80      1.0000 0.23950  0.93060  0.77262  Biso   1.000  N
  N81      1.0000 0.03459  0.11240  0.61037  Biso   1.000  N
  N82      1.0000 0.26518  0.04500  0.67076  Biso   1.000  N
  N83      1.0000 0.17829  0.04130  0.67538  Biso   1.000  N
  N84      1.0000 0.21493  0.07930  0.63003  Biso   1.000  N
  Zn22     1.0000 0.04931  0.86111  0.06858  Biso   1.000  Zn
  Zn23     1.0000 0.24746  0.85077  0.80985  Biso   1.000  Zn
  Zn24     1.0000 0.03281  0.65011  0.90729  Biso   1.000  Zn
  I43      1.0000 0.98246  0.95682  0.09457  Biso   1.000  I
  I44      1.0000 0.04532  0.67878  0.05760  Biso   1.000  I
  I45      1.0000 0.33871  0.83833  0.82207  Biso   1.000  I
  I46      1.0000 0.19606  0.69588  0.80255  Biso   1.000  I
  I47      1.0000 0.07962  0.72888  0.86589  Biso   1.000  I
  I48      1.0000 0.02024  0.73275  0.95624  Biso   1.000  I
  C253     1.0000 0.19220  0.88290  0.86408  Biso   1.000  C
  H169     1.0000 0.19200  0.81350  0.86430  Biso   1.000  H
  C254     1.0000 0.17170  0.93230  0.88699  Biso   1.000  C
  H170     1.0000 0.15770  0.89730  0.90280  Biso   1.000  H
  C255     1.0000 0.21230  0.02590  0.84169  Biso   1.000  C
  H171     1.0000 0.22690  0.05920  0.82580  Biso   1.000  H
  C256     1.0000 0.19220  0.08030  0.86367  Biso   1.000  C
  H172     1.0000 0.19260  0.14970  0.86290  Biso   1.000  H
  C257     1.0000 0.17140  0.03220  0.88693  Biso   1.000  C
  C258     1.0000 0.14870  0.08740  0.91134  Biso   1.000  C
  C259     1.0000 0.07120  0.45400  0.89305  Biso   1.000  C
  H173     1.0000 0.06430  0.47650  0.87390  Biso   1.000  H
  C260     1.0000 0.08900  0.36120  0.89642  Biso   1.000  C
  H174     1.0000 0.09490  0.32090  0.88000  Biso   1.000  H
  C261     1.0000 0.07330  0.48240  0.94143  Biso   1.000  C
  H175     1.0000 0.06880  0.52550  0.95740  Biso   1.000  H
  C262     1.0000 0.09040  0.39010  0.94690  Biso   1.000  C
  H176     1.0000 0.09660  0.36990  0.96630  Biso   1.000  H
  C263     1.0000 0.09850  0.32700  0.92424  Biso   1.000  C
  C264     1.0000 0.11470  0.22490  0.92872  Biso   1.000  C
  C265     1.0000 0.05400  0.02580  0.02599  Biso   1.000  C
  H177     1.0000 0.03290  0.05620  0.03980  Biso   1.000  H
  C266     1.0000 0.06930  0.07890  0.00277  Biso   1.000  C
  H178     1.0000 0.05890  0.14470  0.00040  Biso   1.000  H
  C267     1.0000 0.09630  0.88950  0.01092  Biso   1.000  C
  H179     1.0000 0.10540  0.82300  0.01350  Biso   1.000  H
  C268     1.0000 0.11380  0.94010  0.98672  Biso   1.000  C
  H180     1.0000 0.13490  0.90850  0.97320  Biso   1.000  H
  C269     1.0000 0.10040  0.03570  0.98241  Biso   1.000  C
  C270     1.0000 0.11680  0.09010  0.95630  Biso   1.000  C
  C271     1.0000 0.15710  0.87430  0.08096  Biso   1.000  C
  H181     1.0000 0.15960  0.85480  0.06120  Biso   1.000  H
  C272     1.0000 0.19990  0.88920  0.09633  Biso   1.000  C
  H182     1.0000 0.23110  0.88070  0.08730  Biso   1.000  H
  C273     1.0000 0.10950  0.91230  0.12051  Biso   1.000  C
  H183     1.0000 0.07780  0.92040  0.12900  Biso   1.000  H
  C274     1.0000 0.15040  0.92800  0.13741  Biso   1.000  C
  H184     1.0000 0.14700  0.94630  0.15720  Biso   1.000  H
  C275     1.0000 0.19660  0.91670  0.12531  Biso   1.000  C
  C276     1.0000 0.24150  0.93160  0.14278  Biso   1.000  C
  C277     1.0000 0.22130  0.03910  0.25739  Biso   1.000  C
  H185     1.0000 0.18970  0.04200  0.26620  Biso   1.000  H
  C278     1.0000 0.22520  0.00400  0.22942  Biso   1.000  C
  H186     1.0000 0.19650  0.98370  0.21920  Biso   1.000  H
  C279     1.0000 0.30430  0.06100  0.26040  Biso   1.000  C
  H187     1.0000 0.33240  0.08020  0.27130  Biso   1.000  H
  C280     1.0000 0.31160  0.02590  0.23256  Biso   1.000  C
  H188     1.0000 0.34380  0.02050  0.22470  Biso   1.000  H
  C281     1.0000 0.27090  0.99860  0.21640  Biso   1.000  C
  C282     1.0000 0.27630  0.96860  0.18569  Biso   1.000  C
  C283     1.0000 0.45990  0.90130  0.13895  Biso   1.000  C
  H189     1.0000 0.48820  0.89840  0.15110  Biso   1.000  H
  C284     1.0000 0.41460  0.91940  0.15155  Biso   1.000  C
  H190     1.0000 0.41210  0.93110  0.17190  Biso   1.000  H
  C285     1.0000 0.42550  0.89200  0.09372  Biso   1.000  C
  H191     1.0000 0.42920  0.88380  0.07330  Biso   1.000  H
  C286     1.0000 0.37910  0.90790  0.10462  Biso   1.000  C
  H192     1.0000 0.35140  0.91020  0.09200  Biso   1.000  H
  C287     1.0000 0.37310  0.92040  0.13430  Biso   1.000  C
  C288     1.0000 0.32380  0.93370  0.14709  Biso   1.000  C
  N85      1.0000 0.21250  0.92840  0.84148  Biso   1.000  N
  N86      1.0000 0.06300  0.51420  0.91521  Biso   1.000  N
  N87      1.0000 0.06726  0.93230  0.03049  Biso   1.000  N
  N88      1.0000 0.13670  0.18070  0.90641  Biso   1.000  N
  N89      1.0000 0.10452  0.18400  0.95436  Biso   1.000  N
  N90      1.0000 0.13999  0.03820  0.93597  Biso   1.000  N
  N91      1.0000 0.11235  0.88600  0.09242  Biso   1.000  N
  N92      1.0000 0.26050  0.06940  0.27262  Biso   1.000  N
  N93      1.0000 0.46541  0.88760  0.11037  Biso   1.000  N
  N94      1.0000 0.23482  0.95500  0.17076  Biso   1.000  N
  N95      1.0000 0.32171  0.95870  0.17538  Biso   1.000  N
  N96      1.0000 0.28507  0.92070  0.13003  Biso   1.000  N
