data_image0
_cell_length_a       13.673
_cell_length_b       27.59
_cell_length_c       45.606
_cell_angle_alpha    90
_cell_angle_beta     90
_cell_angle_gamma    90

_symmetry_space_group_name_H-M    P 1
_symmetry_int_tables_number       1

loop_
  _symmetry_equiv_pos_as_xyz
  'x, y, z'

loop_
  _atom_site_label
  _atom_site_occupancy
  _atom_site_fract_x
  _atom_site_fract_y
  _atom_site_fract_z
  _atom_site_thermal_displace_type
  _atom_site_B_iso_or_equiv
  _atom_site_type_symbol
  Zn1      1.0000 0.34896  0.25609  0.68756  Biso   1.000  Zn
  Zn2      1.0000 0.34246  0.44340  0.42650  Biso   1.000  Zn
  Zn3      1.0000 0.14697  0.46953  0.58612  Biso   1.000  Zn
  Zn4      1.0000 0.65104  0.24391  0.18756  Biso   1.000  Zn
  Zn5      1.0000 0.65754  0.05660  0.92650  Biso   1.000  Zn
  Zn6      1.0000 0.85303  0.03047  0.08612  Biso   1.000  Zn
  Zn7      1.0000 0.84896  0.74391  0.81244  Biso   1.000  Zn
  Zn8      1.0000 0.84246  0.55660  0.07350  Biso   1.000  Zn
  Zn9      1.0000 0.64697  0.53047  0.91388  Biso   1.000  Zn
  Zn10     1.0000 0.15104  0.75609  0.31244  Biso   1.000  Zn
  Zn11     1.0000 0.15754  0.94340  0.57350  Biso   1.000  Zn
  Zn12     1.0000 0.35303  0.96953  0.41388  Biso   1.000  Zn
  H1       1.0000 0.30750  0.39850  0.48550  Biso   1.000  H
  H2       1.0000 0.39310  0.37570  0.52730  Biso   1.000  H
  H3       1.0000 0.54060  0.46150  0.45270  Biso   1.000  H
  H4       1.0000 0.63180  0.44120  0.49380  Biso   1.000  H
  H5       1.0000 0.99870  0.46160  0.53740  Biso   1.000  H
  H6       1.0000 0.84040  0.43430  0.52960  Biso   1.000  H
  H7       1.0000 0.99580  0.41200  0.61830  Biso   1.000  H
  H8       1.0000 0.83840  0.38250  0.61250  Biso   1.000  H
  H9       1.0000 0.55810  0.28990  0.67580  Biso   1.000  H
  H10      1.0000 0.64570  0.32680  0.63830  Biso   1.000  H
  H11      1.0000 0.31350  0.30270  0.63140  Biso   1.000  H
  H12      1.0000 0.39520  0.33860  0.59240  Biso   1.000  H
  H13      1.0000 0.39650  0.33770  0.72840  Biso   1.000  H
  H14      1.0000 0.46030  0.35000  0.77490  Biso   1.000  H
  H15      1.0000 0.46740  0.19960  0.73080  Biso   1.000  H
  H16      1.0000 0.52590  0.20750  0.77820  Biso   1.000  H
  H17      1.0000 0.58460  0.08650  0.86660  Biso   1.000  H
  H18      1.0000 0.55680  0.15570  0.83940  Biso   1.000  H
  H19      1.0000 0.64960  0.16440  0.93630  Biso   1.000  H
  H20      1.0000 0.62010  0.23560  0.91120  Biso   1.000  H
  H21      1.0000 0.61430  0.42660  0.92950  Biso   1.000  H
  H22      1.0000 0.58900  0.35220  0.90790  Biso   1.000  H
  H23      1.0000 0.60700  0.49160  0.85310  Biso   1.000  H
  H24      1.0000 0.58090  0.41850  0.82940  Biso   1.000  H
  H25      1.0000 0.69250  0.10150  0.98550  Biso   1.000  H
  H26      1.0000 0.60690  0.12430  0.02730  Biso   1.000  H
  H27      1.0000 0.45940  0.03850  0.95270  Biso   1.000  H
  H28      1.0000 0.36820  0.05880  0.99380  Biso   1.000  H
  H29      1.0000 0.00130  0.03840  0.03740  Biso   1.000  H
  H30      1.0000 0.15960  0.06570  0.02960  Biso   1.000  H
  H31      1.0000 0.00420  0.08800  0.11830  Biso   1.000  H
  H32      1.0000 0.16160  0.11750  0.11250  Biso   1.000  H
  H33      1.0000 0.44190  0.21010  0.17580  Biso   1.000  H
  H34      1.0000 0.35430  0.17320  0.13830  Biso   1.000  H
  H35      1.0000 0.68650  0.19730  0.13140  Biso   1.000  H
  H36      1.0000 0.60480  0.16140  0.09240  Biso   1.000  H
  H37      1.0000 0.60350  0.16230  0.22840  Biso   1.000  H
  H38      1.0000 0.53970  0.15000  0.27490  Biso   1.000  H
  H39      1.0000 0.53260  0.30040  0.23080  Biso   1.000  H
  H40      1.0000 0.47410  0.29250  0.27820  Biso   1.000  H
  H41      1.0000 0.41540  0.41350  0.36660  Biso   1.000  H
  H42      1.0000 0.44320  0.34430  0.33940  Biso   1.000  H
  H43      1.0000 0.35040  0.33560  0.43630  Biso   1.000  H
  H44      1.0000 0.37990  0.26440  0.41120  Biso   1.000  H
  H45      1.0000 0.38570  0.07340  0.42950  Biso   1.000  H
  H46      1.0000 0.41100  0.14780  0.40790  Biso   1.000  H
  H47      1.0000 0.39300  0.00840  0.35310  Biso   1.000  H
  H48      1.0000 0.41910  0.08150  0.32940  Biso   1.000  H
  H49      1.0000 0.80750  0.60150  0.01450  Biso   1.000  H
  H50      1.0000 0.89310  0.62430  0.97270  Biso   1.000  H
  H51      1.0000 0.04060  0.53850  0.04730  Biso   1.000  H
  H52      1.0000 0.13180  0.55880  0.00620  Biso   1.000  H
  H53      1.0000 0.49870  0.53840  0.96260  Biso   1.000  H
  H54      1.0000 0.34040  0.56570  0.97040  Biso   1.000  H
  H55      1.0000 0.49580  0.58800  0.88170  Biso   1.000  H
  H56      1.0000 0.33840  0.61750  0.88750  Biso   1.000  H
  H57      1.0000 0.05810  0.71010  0.82420  Biso   1.000  H
  H58      1.0000 0.14570  0.67320  0.86170  Biso   1.000  H
  H59      1.0000 0.81350  0.69730  0.86860  Biso   1.000  H
  H60      1.0000 0.89520  0.66140  0.90760  Biso   1.000  H
  H61      1.0000 0.89650  0.66230  0.77160  Biso   1.000  H
  H62      1.0000 0.96030  0.65000  0.72510  Biso   1.000  H
  H63      1.0000 0.96740  0.80040  0.76920  Biso   1.000  H
  H64      1.0000 0.02590  0.79250  0.72180  Biso   1.000  H
  H65      1.0000 0.08460  0.91350  0.63340  Biso   1.000  H
  H66      1.0000 0.05680  0.84430  0.66060  Biso   1.000  H
  H67      1.0000 0.14960  0.83560  0.56370  Biso   1.000  H
  H68      1.0000 0.12010  0.76440  0.58880  Biso   1.000  H
  H69      1.0000 0.11430  0.57340  0.57050  Biso   1.000  H
  H70      1.0000 0.08900  0.64780  0.59210  Biso   1.000  H
  H71      1.0000 0.10700  0.50840  0.64690  Biso   1.000  H
  H72      1.0000 0.08090  0.58150  0.67060  Biso   1.000  H
  H73      1.0000 0.19250  0.89850  0.51450  Biso   1.000  H
  H74      1.0000 0.10690  0.87570  0.47270  Biso   1.000  H
  H75      1.0000 0.95940  0.96150  0.54730  Biso   1.000  H
  H76      1.0000 0.86820  0.94120  0.50620  Biso   1.000  H
  H77      1.0000 0.50130  0.96160  0.46260  Biso   1.000  H
  H78      1.0000 0.65960  0.93430  0.47040  Biso   1.000  H
  H79      1.0000 0.50420  0.91200  0.38170  Biso   1.000  H
  H80      1.0000 0.66160  0.88250  0.38750  Biso   1.000  H
  H81      1.0000 0.94190  0.78990  0.32420  Biso   1.000  H
  H82      1.0000 0.85430  0.82680  0.36170  Biso   1.000  H
  H83      1.0000 0.18650  0.80270  0.36860  Biso   1.000  H
  H84      1.0000 0.10480  0.83860  0.40760  Biso   1.000  H
  H85      1.0000 0.10350  0.83770  0.27160  Biso   1.000  H
  H86      1.0000 0.03970  0.85000  0.22510  Biso   1.000  H
  H87      1.0000 0.03260  0.69960  0.26920  Biso   1.000  H
  H88      1.0000 0.97410  0.70750  0.22180  Biso   1.000  H
  H89      1.0000 0.91540  0.58650  0.13340  Biso   1.000  H
  H90      1.0000 0.94320  0.65570  0.16060  Biso   1.000  H
  H91      1.0000 0.85040  0.66440  0.06370  Biso   1.000  H
  H92      1.0000 0.87990  0.73560  0.08880  Biso   1.000  H
  H93      1.0000 0.88570  0.92660  0.07050  Biso   1.000  H
  H94      1.0000 0.91100  0.85220  0.09210  Biso   1.000  H
  H95      1.0000 0.89300  0.99160  0.14690  Biso   1.000  H
  H96      1.0000 0.91910  0.91850  0.17060  Biso   1.000  H
  C1       1.0000 0.37470  0.40677  0.48714  Biso   1.000  C
  C2       1.0000 0.42520  0.39309  0.51215  Biso   1.000  C
  C3       1.0000 0.51050  0.44356  0.46806  Biso   1.000  C
  C4       1.0000 0.56530  0.43145  0.49238  Biso   1.000  C
  C5       1.0000 0.52280  0.40507  0.51463  Biso   1.000  C
  C6       1.0000 0.57930  0.39110  0.54111  Biso   1.000  C
  C7       1.0000 0.96510  0.44582  0.55294  Biso   1.000  C
  C8       1.0000 0.87120  0.42942  0.54808  Biso   1.000  C
  C9       1.0000 0.96350  0.41674  0.60012  Biso   1.000  C
  C10      1.0000 0.86970  0.39904  0.59681  Biso   1.000  C
  C11      1.0000 0.82240  0.40573  0.57052  Biso   1.000  C
  C12      1.0000 0.71860  0.39056  0.56690  Biso   1.000  C
  C13      1.0000 0.52460  0.29970  0.65853  Biso   1.000  C
  C14      1.0000 0.57730  0.32164  0.63620  Biso   1.000  C
  C15      1.0000 0.38240  0.30704  0.63261  Biso   1.000  C
  C16      1.0000 0.43050  0.32872  0.60937  Biso   1.000  C
  C17      1.0000 0.52980  0.33584  0.61104  Biso   1.000  C
  C18      1.0000 0.58240  0.35839  0.58638  Biso   1.000  C
  C19      1.0000 0.42360  0.31093  0.73872  Biso   1.000  C
  C20      1.0000 0.46060  0.31851  0.76651  Biso   1.000  C
  C21      1.0000 0.46400  0.23028  0.74017  Biso   1.000  C
  C22      1.0000 0.49990  0.23487  0.76822  Biso   1.000  C
  C23      1.0000 0.49790  0.27967  0.78183  Biso   1.000  C
  C24      1.0000 0.53090  0.28422  0.81239  Biso   1.000  C
  C25      1.0000 0.59280  0.11724  0.87564  Biso   1.000  C
  C26      1.0000 0.57580  0.15825  0.85938  Biso   1.000  C
  C27      1.0000 0.63020  0.16277  0.91631  Biso   1.000  C
  C28      1.0000 0.61340  0.20527  0.90154  Biso   1.000  C
  C29      1.0000 0.58650  0.20325  0.87224  Biso   1.000  C
  C30      1.0000 0.57010  0.24825  0.85518  Biso   1.000  C
  C31      1.0000 0.60790  0.42496  0.90875  Biso   1.000  C
  C32      1.0000 0.59270  0.38046  0.89603  Biso   1.000  C
  C33      1.0000 0.60350  0.46273  0.86444  Biso   1.000  C
  C34      1.0000 0.58790  0.41923  0.85012  Biso   1.000  C
  C35      1.0000 0.58260  0.37701  0.86606  Biso   1.000  C
  C36      1.0000 0.56930  0.32953  0.85197  Biso   1.000  C
  C37      1.0000 0.62530  0.09323  0.98714  Biso   1.000  C
  C38      1.0000 0.57480  0.10691  0.01215  Biso   1.000  C
  C39      1.0000 0.48950  0.05644  0.96806  Biso   1.000  C
  C40      1.0000 0.43470  0.06855  0.99238  Biso   1.000  C
  C41      1.0000 0.47720  0.09493  0.01463  Biso   1.000  C
  C42      1.0000 0.42070  0.10890  0.04111  Biso   1.000  C
  C43      1.0000 0.03490  0.05418  0.05294  Biso   1.000  C
  C44      1.0000 0.12880  0.07058  0.04808  Biso   1.000  C
  C45      1.0000 0.03650  0.08326  0.10012  Biso   1.000  C
  C46      1.0000 0.13030  0.10096  0.09681  Biso   1.000  C
  C47      1.0000 0.17760  0.09427  0.07052  Biso   1.000  C
  C48      1.0000 0.28140  0.10944  0.06690  Biso   1.000  C
  C49      1.0000 0.47540  0.20030  0.15853  Biso   1.000  C
  C50      1.0000 0.42270  0.17836  0.13620  Biso   1.000  C
  C51      1.0000 0.61760  0.19296  0.13261  Biso   1.000  C
  C52      1.0000 0.56950  0.17128  0.10937  Biso   1.000  C
  C53      1.0000 0.47020  0.16416  0.11104  Biso   1.000  C
  C54      1.0000 0.41760  0.14161  0.08638  Biso   1.000  C
  C55      1.0000 0.57640  0.18907  0.23872  Biso   1.000  C
  C56      1.0000 0.53940  0.18149  0.26651  Biso   1.000  C
  C57      1.0000 0.53600  0.26972  0.24017  Biso   1.000  C
  C58      1.0000 0.50010  0.26513  0.26822  Biso   1.000  C
  C59      1.0000 0.50210  0.22033  0.28183  Biso   1.000  C
  C60      1.0000 0.46910  0.21578  0.31239  Biso   1.000  C
  C61      1.0000 0.40720  0.38276  0.37564  Biso   1.000  C
  C62      1.0000 0.42420  0.34175  0.35938  Biso   1.000  C
  C63      1.0000 0.36980  0.33723  0.41631  Biso   1.000  C
  C64      1.0000 0.38660  0.29473  0.40154  Biso   1.000  C
  C65      1.0000 0.41350  0.29675  0.37224  Biso   1.000  C
  C66      1.0000 0.42990  0.25175  0.35518  Biso   1.000  C
  C67      1.0000 0.39210  0.07504  0.40875  Biso   1.000  C
  C68      1.0000 0.40730  0.11954  0.39603  Biso   1.000  C
  C69      1.0000 0.39650  0.03727  0.36444  Biso   1.000  C
  C70      1.0000 0.41210  0.08077  0.35012  Biso   1.000  C
  C71      1.0000 0.41740  0.12299  0.36606  Biso   1.000  C
  C72      1.0000 0.43070  0.17047  0.35197  Biso   1.000  C
  C73      1.0000 0.87470  0.59323  0.01286  Biso   1.000  C
  C74      1.0000 0.92520  0.60691  0.98785  Biso   1.000  C
  C75      1.0000 0.01050  0.55644  0.03194  Biso   1.000  C
  C76      1.0000 0.06530  0.56855  0.00762  Biso   1.000  C
  C77      1.0000 0.02280  0.59493  0.98537  Biso   1.000  C
  C78      1.0000 0.07930  0.60890  0.95889  Biso   1.000  C
  C79      1.0000 0.46510  0.55418  0.94706  Biso   1.000  C
  C80      1.0000 0.37120  0.57058  0.95192  Biso   1.000  C
  C81      1.0000 0.46350  0.58326  0.89988  Biso   1.000  C
  C82      1.0000 0.36970  0.60096  0.90319  Biso   1.000  C
  C83      1.0000 0.32240  0.59427  0.92948  Biso   1.000  C
  C84      1.0000 0.21860  0.60944  0.93310  Biso   1.000  C
  C85      1.0000 0.02460  0.70030  0.84147  Biso   1.000  C
  C86      1.0000 0.07730  0.67836  0.86380  Biso   1.000  C
  C87      1.0000 0.88240  0.69296  0.86739  Biso   1.000  C
  C88      1.0000 0.93050  0.67128  0.89063  Biso   1.000  C
  C89      1.0000 0.02980  0.66416  0.88896  Biso   1.000  C
  C90      1.0000 0.08240  0.64161  0.91362  Biso   1.000  C
  C91      1.0000 0.92360  0.68907  0.76128  Biso   1.000  C
  C92      1.0000 0.96060  0.68149  0.73349  Biso   1.000  C
  C93      1.0000 0.96400  0.76972  0.75983  Biso   1.000  C
  C94      1.0000 0.99990  0.76513  0.73178  Biso   1.000  C
  C95      1.0000 0.99790  0.72033  0.71817  Biso   1.000  C
  C96      1.0000 0.03090  0.71578  0.68761  Biso   1.000  C
  C97      1.0000 0.09280  0.88276  0.62436  Biso   1.000  C
  C98      1.0000 0.07580  0.84175  0.64062  Biso   1.000  C
  C99      1.0000 0.13020  0.83723  0.58369  Biso   1.000  C
  C100     1.0000 0.11340  0.79473  0.59846  Biso   1.000  C
  C101     1.0000 0.08650  0.79675  0.62776  Biso   1.000  C
  C102     1.0000 0.07010  0.75175  0.64482  Biso   1.000  C
  C103     1.0000 0.10790  0.57504  0.59125  Biso   1.000  C
  C104     1.0000 0.09270  0.61954  0.60397  Biso   1.000  C
  C105     1.0000 0.10350  0.53727  0.63556  Biso   1.000  C
  C106     1.0000 0.08790  0.58077  0.64988  Biso   1.000  C
  C107     1.0000 0.08260  0.62299  0.63394  Biso   1.000  C
  C108     1.0000 0.06930  0.67047  0.64803  Biso   1.000  C
  C109     1.0000 0.12530  0.90677  0.51286  Biso   1.000  C
  C110     1.0000 0.07480  0.89309  0.48785  Biso   1.000  C
  C111     1.0000 0.98950  0.94356  0.53194  Biso   1.000  C
  C112     1.0000 0.93470  0.93145  0.50762  Biso   1.000  C
  C113     1.0000 0.97720  0.90507  0.48537  Biso   1.000  C
  C114     1.0000 0.92070  0.89110  0.45889  Biso   1.000  C
  C115     1.0000 0.53490  0.94582  0.44706  Biso   1.000  C
  C116     1.0000 0.62880  0.92942  0.45192  Biso   1.000  C
  C117     1.0000 0.53650  0.91674  0.39988  Biso   1.000  C
  C118     1.0000 0.63030  0.89904  0.40319  Biso   1.000  C
  C119     1.0000 0.67760  0.90573  0.42948  Biso   1.000  C
  C120     1.0000 0.78140  0.89056  0.43310  Biso   1.000  C
  C121     1.0000 0.97540  0.79970  0.34147  Biso   1.000  C
  C122     1.0000 0.92270  0.82164  0.36380  Biso   1.000  C
  C123     1.0000 0.11760  0.80704  0.36739  Biso   1.000  C
  C124     1.0000 0.06950  0.82872  0.39063  Biso   1.000  C
  C125     1.0000 0.97020  0.83584  0.38896  Biso   1.000  C
  C126     1.0000 0.91760  0.85839  0.41362  Biso   1.000  C
  C127     1.0000 0.07640  0.81093  0.26128  Biso   1.000  C
  C128     1.0000 0.03940  0.81851  0.23349  Biso   1.000  C
  C129     1.0000 0.03600  0.73028  0.25983  Biso   1.000  C
  C130     1.0000 0.00010  0.73487  0.23178  Biso   1.000  C
  C131     1.0000 0.00210  0.77967  0.21817  Biso   1.000  C
  C132     1.0000 0.96910  0.78422  0.18761  Biso   1.000  C
  C133     1.0000 0.90720  0.61724  0.12436  Biso   1.000  C
  C134     1.0000 0.92420  0.65825  0.14062  Biso   1.000  C
  C135     1.0000 0.86980  0.66277  0.08369  Biso   1.000  C
  C136     1.0000 0.88660  0.70527  0.09846  Biso   1.000  C
  C137     1.0000 0.91350  0.70325  0.12776  Biso   1.000  C
  C138     1.0000 0.92990  0.74825  0.14482  Biso   1.000  C
  C139     1.0000 0.89210  0.92496  0.09125  Biso   1.000  C
  C140     1.0000 0.90730  0.88046  0.10397  Biso   1.000  C
  C141     1.0000 0.89650  0.96273  0.13556  Biso   1.000  C
  C142     1.0000 0.91210  0.91923  0.14988  Biso   1.000  C
  C143     1.0000 0.91740  0.87701  0.13394  Biso   1.000  C
  C144     1.0000 0.93070  0.82953  0.14803  Biso   1.000  C
  I1       1.0000 0.18591  0.30115  0.69094  Biso   1.000  I
  I2       1.0000 0.34397  0.16577  0.67654  Biso   1.000  I
  I3       1.0000 0.42587  0.51193  0.39937  Biso   1.000  I
  I4       1.0000 0.16064  0.43608  0.43744  Biso   1.000  I
  I5       1.0000 0.22199  0.48848  0.53632  Biso   1.000  I
  I6       1.0000 0.23169  0.41833  0.62439  Biso   1.000  I
  I7       1.0000 0.81409  0.19885  0.19094  Biso   1.000  I
  I8       1.0000 0.65603  0.33423  0.17654  Biso   1.000  I
  I9       1.0000 0.57413  0.98807  0.89937  Biso   1.000  I
  I10      1.0000 0.83936  0.06392  0.93744  Biso   1.000  I
  I11      1.0000 0.77801  0.01152  0.03632  Biso   1.000  I
  I12      1.0000 0.76831  0.08167  0.12439  Biso   1.000  I
  I13      1.0000 0.68591  0.69885  0.80906  Biso   1.000  I
  I14      1.0000 0.84397  0.83423  0.82346  Biso   1.000  I
  I15      1.0000 0.92587  0.48807  0.10063  Biso   1.000  I
  I16      1.0000 0.66064  0.56392  0.06256  Biso   1.000  I
  I17      1.0000 0.72199  0.51152  0.96368  Biso   1.000  I
  I18      1.0000 0.73169  0.58167  0.87561  Biso   1.000  I
  I19      1.0000 0.31409  0.80115  0.30906  Biso   1.000  I
  I20      1.0000 0.15603  0.66577  0.32346  Biso   1.000  I
  I21      1.0000 0.07413  0.01193  0.60063  Biso   1.000  I
  I22      1.0000 0.33936  0.93608  0.56256  Biso   1.000  I
  I23      1.0000 0.27801  0.98848  0.46368  Biso   1.000  I
  I24      1.0000 0.26831  0.91833  0.37561  Biso   1.000  I
  N1       1.0000 0.41680  0.43101  0.46528  Biso   1.000  N
  N2       1.0000 0.01080  0.44030  0.57872  Biso   1.000  N
  N3       1.0000 0.42890  0.29197  0.65660  Biso   1.000  N
  N4       1.0000 0.67340  0.40280  0.54198  Biso   1.000  N
  N5       1.0000 0.67740  0.36779  0.58957  Biso   1.000  N
  N6       1.0000 0.52970  0.36865  0.56238  Biso   1.000  N
  N7       1.0000 0.42430  0.26763  0.72571  Biso   1.000  N
  N8       1.0000 0.62050  0.11902  0.90376  Biso   1.000  N
  N9       1.0000 0.61400  0.46580  0.89344  Biso   1.000  N
  N10      1.0000 0.54440  0.24280  0.82716  Biso   1.000  N
  N11      1.0000 0.58340  0.29044  0.86861  Biso   1.000  N
  N12      1.0000 0.54340  0.32871  0.82362  Biso   1.000  N
  N13      1.0000 0.58320  0.06899  0.96528  Biso   1.000  N
  N14      1.0000 0.98920  0.05970  0.07872  Biso   1.000  N
  N15      1.0000 0.57110  0.20803  0.15660  Biso   1.000  N
  N16      1.0000 0.32660  0.09720  0.04198  Biso   1.000  N
  N17      1.0000 0.32260  0.13221  0.08957  Biso   1.000  N
  N18      1.0000 0.47030  0.13135  0.06238  Biso   1.000  N
  N19      1.0000 0.57570  0.23237  0.22571  Biso   1.000  N
  N20      1.0000 0.37950  0.38098  0.40376  Biso   1.000  N
  N21      1.0000 0.38600  0.03420  0.39344  Biso   1.000  N
  N22      1.0000 0.45560  0.25720  0.32716  Biso   1.000  N
  N23      1.0000 0.41660  0.20956  0.36861  Biso   1.000  N
  N24      1.0000 0.45660  0.17129  0.32362  Biso   1.000  N
  N25      1.0000 0.91680  0.56899  0.03472  Biso   1.000  N
  N26      1.0000 0.51080  0.55970  0.92128  Biso   1.000  N
  N27      1.0000 0.92890  0.70803  0.84340  Biso   1.000  N
  N28      1.0000 0.17340  0.59720  0.95802  Biso   1.000  N
  N29      1.0000 0.17740  0.63221  0.91043  Biso   1.000  N
  N30      1.0000 0.02970  0.63135  0.93762  Biso   1.000  N
  N31      1.0000 0.92430  0.73237  0.77429  Biso   1.000  N
  N32      1.0000 0.12050  0.88098  0.59624  Biso   1.000  N
  N33      1.0000 0.11400  0.53420  0.60656  Biso   1.000  N
  N34      1.0000 0.04440  0.75720  0.67284  Biso   1.000  N
  N35      1.0000 0.08340  0.70956  0.63139  Biso   1.000  N
  N36      1.0000 0.04340  0.67129  0.67638  Biso   1.000  N
  N37      1.0000 0.08320  0.93101  0.53472  Biso   1.000  N
  N38      1.0000 0.48920  0.94030  0.42128  Biso   1.000  N
  N39      1.0000 0.07110  0.79197  0.34340  Biso   1.000  N
  N40      1.0000 0.82660  0.90280  0.45802  Biso   1.000  N
  N41      1.0000 0.82260  0.86779  0.41043  Biso   1.000  N
  N42      1.0000 0.97030  0.86865  0.43762  Biso   1.000  N
  N43      1.0000 0.07570  0.76763  0.27429  Biso   1.000  N
  N44      1.0000 0.87950  0.61902  0.09624  Biso   1.000  N
  N45      1.0000 0.88600  0.96580  0.10656  Biso   1.000  N
  N46      1.0000 0.95560  0.74280  0.17284  Biso   1.000  N
  N47      1.0000 0.91660  0.79044  0.13139  Biso   1.000  N
  N48      1.0000 0.95660  0.82871  0.17638  Biso   1.000  N
  Zn13     1.0000 0.65104  0.74391  0.31244  Biso   1.000  Zn
  Zn14     1.0000 0.65754  0.55660  0.57350  Biso   1.000  Zn
  Zn15     1.0000 0.85303  0.53047  0.41388  Biso   1.000  Zn
  Zn16     1.0000 0.34896  0.75609  0.81244  Biso   1.000  Zn
  Zn17     1.0000 0.34246  0.94340  0.07350  Biso   1.000  Zn
  Zn18     1.0000 0.14697  0.96953  0.91388  Biso   1.000  Zn
  Zn19     1.0000 0.15104  0.25609  0.18756  Biso   1.000  Zn
  Zn20     1.0000 0.15754  0.44340  0.92650  Biso   1.000  Zn
  Zn21     1.0000 0.35303  0.46953  0.08612  Biso   1.000  Zn
  Zn22     1.0000 0.84896  0.24391  0.68756  Biso   1.000  Zn
  Zn23     1.0000 0.84246  0.05660  0.42650  Biso   1.000  Zn
  Zn24     1.0000 0.64697  0.03047  0.58612  Biso   1.000  Zn
  H97      1.0000 0.69250  0.60150  0.51450  Biso   1.000  H
  H98      1.0000 0.60690  0.62430  0.47270  Biso   1.000  H
  H99      1.0000 0.45940  0.53850  0.54730  Biso   1.000  H
  H100     1.0000 0.36820  0.55880  0.50620  Biso   1.000  H
  H101     1.0000 0.00130  0.53840  0.46260  Biso   1.000  H
  H102     1.0000 0.15960  0.56570  0.47040  Biso   1.000  H
  H103     1.0000 0.00420  0.58800  0.38170  Biso   1.000  H
  H104     1.0000 0.16160  0.61750  0.38750  Biso   1.000  H
  H105     1.0000 0.44190  0.71010  0.32420  Biso   1.000  H
  H106     1.0000 0.35430  0.67320  0.36170  Biso   1.000  H
  H107     1.0000 0.68650  0.69730  0.36860  Biso   1.000  H
  H108     1.0000 0.60480  0.66140  0.40760  Biso   1.000  H
  H109     1.0000 0.60350  0.66230  0.27160  Biso   1.000  H
  H110     1.0000 0.53970  0.65000  0.22510  Biso   1.000  H
  H111     1.0000 0.53260  0.80040  0.26920  Biso   1.000  H
  H112     1.0000 0.47410  0.79250  0.22180  Biso   1.000  H
  H113     1.0000 0.41540  0.91350  0.13340  Biso   1.000  H
  H114     1.0000 0.44320  0.84430  0.16060  Biso   1.000  H
  H115     1.0000 0.35040  0.83560  0.06370  Biso   1.000  H
  H116     1.0000 0.37990  0.76440  0.08880  Biso   1.000  H
  H117     1.0000 0.38570  0.57340  0.07050  Biso   1.000  H
  H118     1.0000 0.41100  0.64780  0.09210  Biso   1.000  H
  H119     1.0000 0.39300  0.50840  0.14690  Biso   1.000  H
  H120     1.0000 0.41910  0.58150  0.17060  Biso   1.000  H
  H121     1.0000 0.30750  0.89850  0.01450  Biso   1.000  H
  H122     1.0000 0.39310  0.87570  0.97270  Biso   1.000  H
  H123     1.0000 0.54060  0.96150  0.04730  Biso   1.000  H
  H124     1.0000 0.63180  0.94120  0.00620  Biso   1.000  H
  H125     1.0000 0.99870  0.96160  0.96260  Biso   1.000  H
  H126     1.0000 0.84040  0.93430  0.97040  Biso   1.000  H
  H127     1.0000 0.99580  0.91200  0.88170  Biso   1.000  H
  H128     1.0000 0.83840  0.88250  0.88750  Biso   1.000  H
  H129     1.0000 0.55810  0.78990  0.82420  Biso   1.000  H
  H130     1.0000 0.64570  0.82680  0.86170  Biso   1.000  H
  H131     1.0000 0.31350  0.80270  0.86860  Biso   1.000  H
  H132     1.0000 0.39520  0.83860  0.90760  Biso   1.000  H
  H133     1.0000 0.39650  0.83770  0.77160  Biso   1.000  H
  H134     1.0000 0.46030  0.85000  0.72510  Biso   1.000  H
  H135     1.0000 0.46740  0.69960  0.76920  Biso   1.000  H
  H136     1.0000 0.52590  0.70750  0.72180  Biso   1.000  H
  H137     1.0000 0.58460  0.58650  0.63340  Biso   1.000  H
  H138     1.0000 0.55680  0.65570  0.66060  Biso   1.000  H
  H139     1.0000 0.64960  0.66440  0.56370  Biso   1.000  H
  H140     1.0000 0.62010  0.73560  0.58880  Biso   1.000  H
  H141     1.0000 0.61430  0.92660  0.57050  Biso   1.000  H
  H142     1.0000 0.58900  0.85220  0.59210  Biso   1.000  H
  H143     1.0000 0.60700  0.99160  0.64690  Biso   1.000  H
  H144     1.0000 0.58090  0.91850  0.67060  Biso   1.000  H
  H145     1.0000 0.19250  0.39850  0.98550  Biso   1.000  H
  H146     1.0000 0.10690  0.37570  0.02730  Biso   1.000  H
  H147     1.0000 0.95940  0.46150  0.95270  Biso   1.000  H
  H148     1.0000 0.86820  0.44120  0.99380  Biso   1.000  H
  H149     1.0000 0.50130  0.46160  0.03740  Biso   1.000  H
  H150     1.0000 0.65960  0.43430  0.02960  Biso   1.000  H
  H151     1.0000 0.50420  0.41200  0.11830  Biso   1.000  H
  H152     1.0000 0.66160  0.38250  0.11250  Biso   1.000  H
  H153     1.0000 0.94190  0.28990  0.17580  Biso   1.000  H
  H154     1.0000 0.85430  0.32680  0.13830  Biso   1.000  H
  H155     1.0000 0.18650  0.30270  0.13140  Biso   1.000  H
  H156     1.0000 0.10480  0.33860  0.09240  Biso   1.000  H
  H157     1.0000 0.10350  0.33770  0.22840  Biso   1.000  H
  H158     1.0000 0.03970  0.35000  0.27490  Biso   1.000  H
  H159     1.0000 0.03260  0.19960  0.23080  Biso   1.000  H
  H160     1.0000 0.97410  0.20750  0.27820  Biso   1.000  H
  H161     1.0000 0.91540  0.08650  0.36660  Biso   1.000  H
  H162     1.0000 0.94320  0.15570  0.33940  Biso   1.000  H
  H163     1.0000 0.85040  0.16440  0.43630  Biso   1.000  H
  H164     1.0000 0.87990  0.23560  0.41120  Biso   1.000  H
  H165     1.0000 0.88570  0.42660  0.42950  Biso   1.000  H
  H166     1.0000 0.91100  0.35220  0.40790  Biso   1.000  H
  H167     1.0000 0.89300  0.49160  0.35310  Biso   1.000  H
  H168     1.0000 0.91910  0.41850  0.32940  Biso   1.000  H
  H169     1.0000 0.80750  0.10150  0.48550  Biso   1.000  H
  H170     1.0000 0.89310  0.12430  0.52730  Biso   1.000  H
  H171     1.0000 0.04060  0.03850  0.45270  Biso   1.000  H
  H172     1.0000 0.13180  0.05880  0.49380  Biso   1.000  H
  H173     1.0000 0.49870  0.03840  0.53740  Biso   1.000  H
  H174     1.0000 0.34040  0.06570  0.52960  Biso   1.000  H
  H175     1.0000 0.49580  0.08800  0.61830  Biso   1.000  H
  H176     1.0000 0.33840  0.11750  0.61250  Biso   1.000  H
  H177     1.0000 0.05810  0.21010  0.67580  Biso   1.000  H
  H178     1.0000 0.14570  0.17320  0.63830  Biso   1.000  H
  H179     1.0000 0.81350  0.19730  0.63140  Biso   1.000  H
  H180     1.0000 0.89520  0.16140  0.59240  Biso   1.000  H
  H181     1.0000 0.89650  0.16230  0.72840  Biso   1.000  H
  H182     1.0000 0.96030  0.15000  0.77490  Biso   1.000  H
  H183     1.0000 0.96740  0.30040  0.73080  Biso   1.000  H
  H184     1.0000 0.02590  0.29250  0.77820  Biso   1.000  H
  H185     1.0000 0.08460  0.41350  0.86660  Biso   1.000  H
  H186     1.0000 0.05680  0.34430  0.83940  Biso   1.000  H
  H187     1.0000 0.14960  0.33560  0.93630  Biso   1.000  H
  H188     1.0000 0.12010  0.26440  0.91120  Biso   1.000  H
  H189     1.0000 0.11430  0.07340  0.92950  Biso   1.000  H
  H190     1.0000 0.08900  0.14780  0.90790  Biso   1.000  H
  H191     1.0000 0.10700  0.00840  0.85310  Biso   1.000  H
  H192     1.0000 0.08090  0.08150  0.82940  Biso   1.000  H
  C145     1.0000 0.62530  0.59323  0.51286  Biso   1.000  C
  C146     1.0000 0.57480  0.60691  0.48785  Biso   1.000  C
  C147     1.0000 0.48950  0.55644  0.53194  Biso   1.000  C
  C148     1.0000 0.43470  0.56855  0.50762  Biso   1.000  C
  C149     1.0000 0.47720  0.59493  0.48537  Biso   1.000  C
  C150     1.0000 0.42070  0.60890  0.45889  Biso   1.000  C
  C151     1.0000 0.03490  0.55418  0.44706  Biso   1.000  C
  C152     1.0000 0.12880  0.57058  0.45192  Biso   1.000  C
  C153     1.0000 0.03650  0.58326  0.39988  Biso   1.000  C
  C154     1.0000 0.13030  0.60096  0.40319  Biso   1.000  C
  C155     1.0000 0.17760  0.59427  0.42948  Biso   1.000  C
  C156     1.0000 0.28140  0.60944  0.43310  Biso   1.000  C
  C157     1.0000 0.47540  0.70030  0.34147  Biso   1.000  C
  C158     1.0000 0.42270  0.67836  0.36380  Biso   1.000  C
  C159     1.0000 0.61760  0.69296  0.36739  Biso   1.000  C
  C160     1.0000 0.56950  0.67128  0.39063  Biso   1.000  C
  C161     1.0000 0.47020  0.66416  0.38896  Biso   1.000  C
  C162     1.0000 0.41760  0.64161  0.41362  Biso   1.000  C
  C163     1.0000 0.57640  0.68907  0.26128  Biso   1.000  C
  C164     1.0000 0.53940  0.68149  0.23349  Biso   1.000  C
  C165     1.0000 0.53600  0.76972  0.25983  Biso   1.000  C
  C166     1.0000 0.50010  0.76513  0.23178  Biso   1.000  C
  C167     1.0000 0.50210  0.72033  0.21817  Biso   1.000  C
  C168     1.0000 0.46910  0.71578  0.18761  Biso   1.000  C
  C169     1.0000 0.40720  0.88276  0.12436  Biso   1.000  C
  C170     1.0000 0.42420  0.84175  0.14062  Biso   1.000  C
  C171     1.0000 0.36980  0.83723  0.08369  Biso   1.000  C
  C172     1.0000 0.38660  0.79473  0.09846  Biso   1.000  C
  C173     1.0000 0.41350  0.79675  0.12776  Biso   1.000  C
  C174     1.0000 0.42990  0.75175  0.14482  Biso   1.000  C
  C175     1.0000 0.39210  0.57504  0.09125  Biso   1.000  C
  C176     1.0000 0.40730  0.61954  0.10397  Biso   1.000  C
  C177     1.0000 0.39650  0.53727  0.13556  Biso   1.000  C
  C178     1.0000 0.41210  0.58077  0.14988  Biso   1.000  C
  C179     1.0000 0.41740  0.62299  0.13394  Biso   1.000  C
  C180     1.0000 0.43070  0.67047  0.14803  Biso   1.000  C
  C181     1.0000 0.37470  0.90677  0.01286  Biso   1.000  C
  C182     1.0000 0.42520  0.89309  0.98785  Biso   1.000  C
  C183     1.0000 0.51050  0.94356  0.03194  Biso   1.000  C
  C184     1.0000 0.56530  0.93145  0.00762  Biso   1.000  C
  C185     1.0000 0.52280  0.90507  0.98537  Biso   1.000  C
  C186     1.0000 0.57930  0.89110  0.95889  Biso   1.000  C
  C187     1.0000 0.96510  0.94582  0.94706  Biso   1.000  C
  C188     1.0000 0.87120  0.92942  0.95192  Biso   1.000  C
  C189     1.0000 0.96350  0.91674  0.89988  Biso   1.000  C
  C190     1.0000 0.86970  0.89904  0.90319  Biso   1.000  C
  C191     1.0000 0.82240  0.90573  0.92948  Biso   1.000  C
  C192     1.0000 0.71860  0.89056  0.93310  Biso   1.000  C
  C193     1.0000 0.52460  0.79970  0.84147  Biso   1.000  C
  C194     1.0000 0.57730  0.82164  0.86380  Biso   1.000  C
  C195     1.0000 0.38240  0.80704  0.86739  Biso   1.000  C
  C196     1.0000 0.43050  0.82872  0.89063  Biso   1.000  C
  C197     1.0000 0.52980  0.83584  0.88896  Biso   1.000  C
  C198     1.0000 0.58240  0.85839  0.91362  Biso   1.000  C
  C199     1.0000 0.42360  0.81093  0.76128  Biso   1.000  C
  C200     1.0000 0.46060  0.81851  0.73349  Biso   1.000  C
  C201     1.0000 0.46400  0.73028  0.75983  Biso   1.000  C
  C202     1.0000 0.49990  0.73487  0.73178  Biso   1.000  C
  C203     1.0000 0.49790  0.77967  0.71817  Biso   1.000  C
  C204     1.0000 0.53090  0.78422  0.68761  Biso   1.000  C
  C205     1.0000 0.59280  0.61724  0.62436  Biso   1.000  C
  C206     1.0000 0.57580  0.65825  0.64062  Biso   1.000  C
  C207     1.0000 0.63020  0.66277  0.58369  Biso   1.000  C
  C208     1.0000 0.61340  0.70527  0.59846  Biso   1.000  C
  C209     1.0000 0.58650  0.70325  0.62776  Biso   1.000  C
  C210     1.0000 0.57010  0.74825  0.64482  Biso   1.000  C
  C211     1.0000 0.60790  0.92496  0.59125  Biso   1.000  C
  C212     1.0000 0.59270  0.88046  0.60397  Biso   1.000  C
  C213     1.0000 0.60350  0.96273  0.63556  Biso   1.000  C
  C214     1.0000 0.58790  0.91923  0.64988  Biso   1.000  C
  C215     1.0000 0.58260  0.87701  0.63394  Biso   1.000  C
  C216     1.0000 0.56930  0.82953  0.64803  Biso   1.000  C
  C217     1.0000 0.12530  0.40677  0.98714  Biso   1.000  C
  C218     1.0000 0.07480  0.39309  0.01215  Biso   1.000  C
  C219     1.0000 0.98950  0.44356  0.96806  Biso   1.000  C
  C220     1.0000 0.93470  0.43145  0.99238  Biso   1.000  C
  C221     1.0000 0.97720  0.40507  0.01463  Biso   1.000  C
  C222     1.0000 0.92070  0.39110  0.04111  Biso   1.000  C
  C223     1.0000 0.53490  0.44582  0.05294  Biso   1.000  C
  C224     1.0000 0.62880  0.42942  0.04808  Biso   1.000  C
  C225     1.0000 0.53650  0.41674  0.10012  Biso   1.000  C
  C226     1.0000 0.63030  0.39904  0.09681  Biso   1.000  C
  C227     1.0000 0.67760  0.40573  0.07052  Biso   1.000  C
  C228     1.0000 0.78140  0.39056  0.06690  Biso   1.000  C
  C229     1.0000 0.97540  0.29970  0.15853  Biso   1.000  C
  C230     1.0000 0.92270  0.32164  0.13620  Biso   1.000  C
  C231     1.0000 0.11760  0.30704  0.13261  Biso   1.000  C
  C232     1.0000 0.06950  0.32872  0.10937  Biso   1.000  C
  C233     1.0000 0.97020  0.33584  0.11104  Biso   1.000  C
  C234     1.0000 0.91760  0.35839  0.08638  Biso   1.000  C
  C235     1.0000 0.07640  0.31093  0.23872  Biso   1.000  C
  C236     1.0000 0.03940  0.31851  0.26651  Biso   1.000  C
  C237     1.0000 0.03600  0.23028  0.24017  Biso   1.000  C
  C238     1.0000 0.00010  0.23487  0.26822  Biso   1.000  C
  C239     1.0000 0.00210  0.27967  0.28183  Biso   1.000  C
  C240     1.0000 0.96910  0.28422  0.31239  Biso   1.000  C
  C241     1.0000 0.90720  0.11724  0.37564  Biso   1.000  C
  C242     1.0000 0.92420  0.15825  0.35938  Biso   1.000  C
  C243     1.0000 0.86980  0.16277  0.41631  Biso   1.000  C
  C244     1.0000 0.88660  0.20527  0.40154  Biso   1.000  C
  C245     1.0000 0.91350  0.20325  0.37224  Biso   1.000  C
  C246     1.0000 0.92990  0.24825  0.35518  Biso   1.000  C
  C247     1.0000 0.89210  0.42496  0.40875  Biso   1.000  C
  C248     1.0000 0.90730  0.38046  0.39603  Biso   1.000  C
  C249     1.0000 0.89650  0.46273  0.36444  Biso   1.000  C
  C250     1.0000 0.91210  0.41923  0.35012  Biso   1.000  C
  C251     1.0000 0.91740  0.37701  0.36606  Biso   1.000  C
  C252     1.0000 0.93070  0.32953  0.35197  Biso   1.000  C
  C253     1.0000 0.87470  0.09323  0.48714  Biso   1.000  C
  C254     1.0000 0.92520  0.10691  0.51215  Biso   1.000  C
  C255     1.0000 0.01050  0.05644  0.46806  Biso   1.000  C
  C256     1.0000 0.06530  0.06855  0.49238  Biso   1.000  C
  C257     1.0000 0.02280  0.09493  0.51463  Biso   1.000  C
  C258     1.0000 0.07930  0.10890  0.54111  Biso   1.000  C
  C259     1.0000 0.46510  0.05418  0.55294  Biso   1.000  C
  C260     1.0000 0.37120  0.07058  0.54808  Biso   1.000  C
  C261     1.0000 0.46350  0.08326  0.60012  Biso   1.000  C
  C262     1.0000 0.36970  0.10096  0.59681  Biso   1.000  C
  C263     1.0000 0.32240  0.09427  0.57052  Biso   1.000  C
  C264     1.0000 0.21860  0.10944  0.56690  Biso   1.000  C
  C265     1.0000 0.02460  0.20030  0.65853  Biso   1.000  C
  C266     1.0000 0.07730  0.17836  0.63620  Biso   1.000  C
  C267     1.0000 0.88240  0.19296  0.63261  Biso   1.000  C
  C268     1.0000 0.93050  0.17128  0.60937  Biso   1.000  C
  C269     1.0000 0.02980  0.16416  0.61104  Biso   1.000  C
  C270     1.0000 0.08240  0.14161  0.58638  Biso   1.000  C
  C271     1.0000 0.92360  0.18907  0.73872  Biso   1.000  C
  C272     1.0000 0.96060  0.18149  0.76651  Biso   1.000  C
  C273     1.0000 0.96400  0.26972  0.74017  Biso   1.000  C
  C274     1.0000 0.99990  0.26513  0.76822  Biso   1.000  C
  C275     1.0000 0.99790  0.22033  0.78183  Biso   1.000  C
  C276     1.0000 0.03090  0.21578  0.81239  Biso   1.000  C
  C277     1.0000 0.09280  0.38276  0.87564  Biso   1.000  C
  C278     1.0000 0.07580  0.34175  0.85938  Biso   1.000  C
  C279     1.0000 0.13020  0.33723  0.91631  Biso   1.000  C
  C280     1.0000 0.11340  0.29473  0.90154  Biso   1.000  C
  C281     1.0000 0.08650  0.29675  0.87224  Biso   1.000  C
  C282     1.0000 0.07010  0.25175  0.85518  Biso   1.000  C
  C283     1.0000 0.10790  0.07504  0.90875  Biso   1.000  C
  C284     1.0000 0.09270  0.11954  0.89603  Biso   1.000  C
  C285     1.0000 0.10350  0.03727  0.86444  Biso   1.000  C
  C286     1.0000 0.08790  0.08077  0.85012  Biso   1.000  C
  C287     1.0000 0.08260  0.12299  0.86606  Biso   1.000  C
  C288     1.0000 0.06930  0.17047  0.85197  Biso   1.000  C
  I25      1.0000 0.81409  0.69885  0.30906  Biso   1.000  I
  I26      1.0000 0.65603  0.83423  0.32346  Biso   1.000  I
  I27      1.0000 0.57413  0.48807  0.60063  Biso   1.000  I
  I28      1.0000 0.83936  0.56392  0.56256  Biso   1.000  I
  I29      1.0000 0.77801  0.51152  0.46368  Biso   1.000  I
  I30      1.0000 0.76831  0.58167  0.37561  Biso   1.000  I
  I31      1.0000 0.18591  0.80115  0.80906  Biso   1.000  I
  I32      1.0000 0.34397  0.66577  0.82346  Biso   1.000  I
  I33      1.0000 0.42587  0.01193  0.10063  Biso   1.000  I
  I34      1.0000 0.16064  0.93608  0.06256  Biso   1.000  I
  I35      1.0000 0.22199  0.98848  0.96368  Biso   1.000  I
  I36      1.0000 0.23169  0.91833  0.87561  Biso   1.000  I
  I37      1.0000 0.31409  0.30115  0.19094  Biso   1.000  I
  I38      1.0000 0.15603  0.16577  0.17654  Biso   1.000  I
  I39      1.0000 0.07413  0.51193  0.89937  Biso   1.000  I
  I40      1.0000 0.33936  0.43608  0.93744  Biso   1.000  I
  I41      1.0000 0.27801  0.48848  0.03632  Biso   1.000  I
  I42      1.0000 0.26831  0.41833  0.12439  Biso   1.000  I
  I43      1.0000 0.68591  0.19885  0.69094  Biso   1.000  I
  I44      1.0000 0.84397  0.33423  0.67654  Biso   1.000  I
  I45      1.0000 0.92587  0.98807  0.39937  Biso   1.000  I
  I46      1.0000 0.66064  0.06392  0.43744  Biso   1.000  I
  I47      1.0000 0.72199  0.01152  0.53632  Biso   1.000  I
  I48      1.0000 0.73169  0.08167  0.62439  Biso   1.000  I
  N49      1.0000 0.58320  0.56899  0.53472  Biso   1.000  N
  N50      1.0000 0.98920  0.55970  0.42128  Biso   1.000  N
  N51      1.0000 0.57110  0.70803  0.34340  Biso   1.000  N
  N52      1.0000 0.32660  0.59720  0.45802  Biso   1.000  N
  N53      1.0000 0.32260  0.63221  0.41043  Biso   1.000  N
  N54      1.0000 0.47030  0.63135  0.43762  Biso   1.000  N
  N55      1.0000 0.57570  0.73237  0.27429  Biso   1.000  N
  N56      1.0000 0.37950  0.88098  0.09624  Biso   1.000  N
  N57      1.0000 0.38600  0.53420  0.10656  Biso   1.000  N
  N58      1.0000 0.45560  0.75720  0.17284  Biso   1.000  N
  N59      1.0000 0.41660  0.70956  0.13139  Biso   1.000  N
  N60      1.0000 0.45660  0.67129  0.17638  Biso   1.000  N
  N61      1.0000 0.41680  0.93101  0.03472  Biso   1.000  N
  N62      1.0000 0.01080  0.94030  0.92128  Biso   1.000  N
  N63      1.0000 0.42890  0.79197  0.84340  Biso   1.000  N
  N64      1.0000 0.67340  0.90280  0.95802  Biso   1.000  N
  N65      1.0000 0.67740  0.86779  0.91043  Biso   1.000  N
  N66      1.0000 0.52970  0.86865  0.93762  Biso   1.000  N
  N67      1.0000 0.42430  0.76763  0.77429  Biso   1.000  N
  N68      1.0000 0.62050  0.61902  0.59624  Biso   1.000  N
  N69      1.0000 0.61400  0.96580  0.60656  Biso   1.000  N
  N70      1.0000 0.54440  0.74280  0.67284  Biso   1.000  N
  N71      1.0000 0.58340  0.79044  0.63139  Biso   1.000  N
  N72      1.0000 0.54340  0.82871  0.67638  Biso   1.000  N
  N73      1.0000 0.08320  0.43101  0.96528  Biso   1.000  N
  N74      1.0000 0.48920  0.44030  0.07872  Biso   1.000  N
  N75      1.0000 0.07110  0.29197  0.15660  Biso   1.000  N
  N76      1.0000 0.82660  0.40280  0.04198  Biso   1.000  N
  N77      1.0000 0.82260  0.36779  0.08957  Biso   1.000  N
  N78      1.0000 0.97030  0.36865  0.06238  Biso   1.000  N
  N79      1.0000 0.07570  0.26763  0.22571  Biso   1.000  N
  N80      1.0000 0.87950  0.11902  0.40376  Biso   1.000  N
  N81      1.0000 0.88600  0.46580  0.39344  Biso   1.000  N
  N82      1.0000 0.95560  0.24280  0.32716  Biso   1.000  N
  N83      1.0000 0.91660  0.29044  0.36861  Biso   1.000  N
  N84      1.0000 0.95660  0.32871  0.32362  Biso   1.000  N
  N85      1.0000 0.91680  0.06899  0.46528  Biso   1.000  N
  N86      1.0000 0.51080  0.05970  0.57872  Biso   1.000  N
  N87      1.0000 0.92890  0.20803  0.65660  Biso   1.000  N
  N88      1.0000 0.17340  0.09720  0.54198  Biso   1.000  N
  N89      1.0000 0.17740  0.13221  0.58957  Biso   1.000  N
  N90      1.0000 0.02970  0.13135  0.56238  Biso   1.000  N
  N91      1.0000 0.92430  0.23237  0.72571  Biso   1.000  N
  N92      1.0000 0.12050  0.38098  0.90376  Biso   1.000  N
  N93      1.0000 0.11400  0.03420  0.89344  Biso   1.000  N
  N94      1.0000 0.04440  0.25720  0.82716  Biso   1.000  N
  N95      1.0000 0.08340  0.20956  0.86861  Biso   1.000  N
  N96      1.0000 0.04340  0.17129  0.82362  Biso   1.000  N
