data_image0
_cell_length_a       13.675
_cell_length_b       27.881
_cell_length_c       45.714
_cell_angle_alpha    90
_cell_angle_beta     90
_cell_angle_gamma    90

_symmetry_space_group_name_H-M    P 1
_symmetry_int_tables_number       1

loop_
  _symmetry_equiv_pos_as_xyz
  'x, y, z'

loop_
  _atom_site_label
  _atom_site_occupancy
  _atom_site_fract_x
  _atom_site_fract_y
  _atom_site_fract_z
  _atom_site_thermal_displace_type
  _atom_site_B_iso_or_equiv
  _atom_site_type_symbol
  Zn1      1.0000 0.14480  0.74404  0.18894  Biso   1.000  Zn
  Zn2      1.0000 0.16089  0.55725  0.92953  Biso   1.000  Zn
  Zn3      1.0000 0.35031  0.52777  0.08720  Biso   1.000  Zn
  Zn4      1.0000 0.85520  0.75596  0.68894  Biso   1.000  Zn
  Zn5      1.0000 0.83911  0.94275  0.42953  Biso   1.000  Zn
  Zn6      1.0000 0.64969  0.97223  0.58720  Biso   1.000  Zn
  Zn7      1.0000 0.64480  0.25596  0.31106  Biso   1.000  Zn
  Zn8      1.0000 0.66089  0.44275  0.57047  Biso   1.000  Zn
  Zn9      1.0000 0.85031  0.47223  0.41280  Biso   1.000  Zn
  Zn10     1.0000 0.35520  0.24404  0.81106  Biso   1.000  Zn
  Zn11     1.0000 0.33911  0.05725  0.07046  Biso   1.000  Zn
  Zn12     1.0000 0.14969  0.02777  0.91280  Biso   1.000  Zn
  H1       1.0000 0.18240  0.68890  0.13580  Biso   1.000  H
  H2       1.0000 0.10080  0.65350  0.09650  Biso   1.000  H
  H3       1.0000 0.93310  0.71860  0.17450  Biso   1.000  H
  H4       1.0000 0.84500  0.68290  0.13690  Biso   1.000  H
  H5       1.0000 0.49920  0.58700  0.11940  Biso   1.000  H
  H6       1.0000 0.65500  0.61710  0.11360  Biso   1.000  H
  H7       1.0000 0.50000  0.53570  0.03890  Biso   1.000  H
  H8       1.0000 0.65640  0.56490  0.03090  Biso   1.000  H
  H9       1.0000 0.96160  0.53750  0.95540  Biso   1.000  H
  H10      1.0000 0.86720  0.55780  0.99540  Biso   1.000  H
  H11      1.0000 0.19080  0.60380  0.98820  Biso   1.000  H
  H12      1.0000 0.10180  0.62720  0.02900  Biso   1.000  H
  H13      1.0000 0.84580  0.83570  0.43850  Biso   1.000  H
  H14      1.0000 0.87670  0.76550  0.41310  Biso   1.000  H
  H15      1.0000 0.91240  0.91390  0.36970  Biso   1.000  H
  H16      1.0000 0.93950  0.84610  0.34170  Biso   1.000  H
  H17      1.0000 0.02950  0.80320  0.23210  Biso   1.000  H
  H18      1.0000 0.96970  0.79580  0.27960  Biso   1.000  H
  H19      1.0000 0.08350  0.66430  0.22840  Biso   1.000  H
  H20      1.0000 0.02130  0.65330  0.27530  Biso   1.000  H
  H21      1.0000 0.89300  0.51270  0.35290  Biso   1.000  H
  H22      1.0000 0.92120  0.58580  0.33000  Biso   1.000  H
  H23      1.0000 0.88250  0.57530  0.43000  Biso   1.000  H
  H24      1.0000 0.90650  0.64970  0.40880  Biso   1.000  H
  H25      1.0000 0.81760  0.81110  0.63580  Biso   1.000  H
  H26      1.0000 0.89920  0.84650  0.59650  Biso   1.000  H
  H27      1.0000 0.06690  0.78140  0.67450  Biso   1.000  H
  H28      1.0000 0.15500  0.81710  0.63690  Biso   1.000  H
  H29      1.0000 0.50080  0.91300  0.61940  Biso   1.000  H
  H30      1.0000 0.34500  0.88290  0.61360  Biso   1.000  H
  H31      1.0000 0.50000  0.96430  0.53890  Biso   1.000  H
  H32      1.0000 0.34360  0.93510  0.53090  Biso   1.000  H
  H33      1.0000 0.03840  0.96250  0.45540  Biso   1.000  H
  H34      1.0000 0.13280  0.94220  0.49540  Biso   1.000  H
  H35      1.0000 0.80920  0.89620  0.48820  Biso   1.000  H
  H36      1.0000 0.89820  0.87280  0.52900  Biso   1.000  H
  H37      1.0000 0.15420  0.66430  0.93850  Biso   1.000  H
  H38      1.0000 0.12330  0.73450  0.91310  Biso   1.000  H
  H39      1.0000 0.08760  0.58610  0.86970  Biso   1.000  H
  H40      1.0000 0.06050  0.65390  0.84170  Biso   1.000  H
  H41      1.0000 0.97050  0.69680  0.73210  Biso   1.000  H
  H42      1.0000 0.03030  0.70420  0.77960  Biso   1.000  H
  H43      1.0000 0.91650  0.83570  0.72840  Biso   1.000  H
  H44      1.0000 0.97870  0.84670  0.77530  Biso   1.000  H
  H45      1.0000 0.10700  0.98730  0.85290  Biso   1.000  H
  H46      1.0000 0.07880  0.91420  0.83000  Biso   1.000  H
  H47      1.0000 0.11750  0.92470  0.93000  Biso   1.000  H
  H48      1.0000 0.09350  0.85030  0.90880  Biso   1.000  H
  H49      1.0000 0.68240  0.31110  0.36420  Biso   1.000  H
  H50      1.0000 0.60080  0.34650  0.40350  Biso   1.000  H
  H51      1.0000 0.43310  0.28140  0.32550  Biso   1.000  H
  H52      1.0000 0.34500  0.31710  0.36310  Biso   1.000  H
  H53      1.0000 0.99920  0.41300  0.38060  Biso   1.000  H
  H54      1.0000 0.15500  0.38290  0.38640  Biso   1.000  H
  H55      1.0000 0.00000  0.46430  0.46110  Biso   1.000  H
  H56      1.0000 0.15640  0.43510  0.46910  Biso   1.000  H
  H57      1.0000 0.46160  0.46250  0.54460  Biso   1.000  H
  H58      1.0000 0.36720  0.44220  0.50460  Biso   1.000  H
  H59      1.0000 0.69080  0.39620  0.51180  Biso   1.000  H
  H60      1.0000 0.60180  0.37280  0.47100  Biso   1.000  H
  H61      1.0000 0.34580  0.16430  0.06150  Biso   1.000  H
  H62      1.0000 0.37670  0.23450  0.08690  Biso   1.000  H
  H63      1.0000 0.41240  0.08610  0.13030  Biso   1.000  H
  H64      1.0000 0.43950  0.15390  0.15830  Biso   1.000  H
  H65      1.0000 0.52950  0.19680  0.26790  Biso   1.000  H
  H66      1.0000 0.46970  0.20420  0.22040  Biso   1.000  H
  H67      1.0000 0.58350  0.33570  0.27160  Biso   1.000  H
  H68      1.0000 0.52130  0.34670  0.22470  Biso   1.000  H
  H69      1.0000 0.39300  0.48730  0.14710  Biso   1.000  H
  H70      1.0000 0.42120  0.41420  0.17000  Biso   1.000  H
  H71      1.0000 0.38250  0.42470  0.07000  Biso   1.000  H
  H72      1.0000 0.40650  0.35030  0.09120  Biso   1.000  H
  H73      1.0000 0.31760  0.18890  0.86420  Biso   1.000  H
  H74      1.0000 0.39920  0.15350  0.90350  Biso   1.000  H
  H75      1.0000 0.56690  0.21860  0.82550  Biso   1.000  H
  H76      1.0000 0.65500  0.18290  0.86310  Biso   1.000  H
  H77      1.0000 0.00080  0.08700  0.88060  Biso   1.000  H
  H78      1.0000 0.84500  0.11710  0.88640  Biso   1.000  H
  H79      1.0000 0.00000  0.03570  0.96110  Biso   1.000  H
  H80      1.0000 0.84360  0.06490  0.96910  Biso   1.000  H
  H81      1.0000 0.53840  0.03750  0.04460  Biso   1.000  H
  H82      1.0000 0.63280  0.05780  0.00460  Biso   1.000  H
  H83      1.0000 0.30920  0.10380  0.01180  Biso   1.000  H
  H84      1.0000 0.39820  0.12720  0.97100  Biso   1.000  H
  H85      1.0000 0.65420  0.33570  0.56150  Biso   1.000  H
  H86      1.0000 0.62330  0.26550  0.58690  Biso   1.000  H
  H87      1.0000 0.58760  0.41390  0.63030  Biso   1.000  H
  H88      1.0000 0.56050  0.34610  0.65830  Biso   1.000  H
  H89      1.0000 0.47050  0.30320  0.76790  Biso   1.000  H
  H90      1.0000 0.53030  0.29580  0.72040  Biso   1.000  H
  H91      1.0000 0.41650  0.16430  0.77160  Biso   1.000  H
  H92      1.0000 0.47870  0.15330  0.72470  Biso   1.000  H
  H93      1.0000 0.60700  0.01270  0.64710  Biso   1.000  H
  H94      1.0000 0.57880  0.08580  0.67000  Biso   1.000  H
  H95      1.0000 0.61750  0.07530  0.57000  Biso   1.000  H
  H96      1.0000 0.59350  0.14970  0.59120  Biso   1.000  H
  C1       1.0000 0.11300  0.68830  0.13570  Biso   1.000  C
  C2       1.0000 0.06480  0.66677  0.11229  Biso   1.000  C
  C3       1.0000 0.96740  0.70540  0.15830  Biso   1.000  C
  C4       1.0000 0.91430  0.68423  0.13601  Biso   1.000  C
  C5       1.0000 0.96430  0.66501  0.11243  Biso   1.000  C
  C6       1.0000 0.91160  0.64220  0.08762  Biso   1.000  C
  C7       1.0000 0.53210  0.58220  0.10130  Biso   1.000  C
  C8       1.0000 0.62470  0.60020  0.09807  Biso   1.000  C
  C9       1.0000 0.53260  0.55225  0.05421  Biso   1.000  C
  C10      1.0000 0.62550  0.56940  0.04929  Biso   1.000  C
  C11      1.0000 0.67360  0.59346  0.07176  Biso   1.000  C
  C12      1.0000 0.77660  0.60938  0.06828  Biso   1.000  C
  C13      1.0000 0.99000  0.55625  0.97049  Biso   1.000  C
  C14      1.0000 0.93320  0.56827  0.99419  Biso   1.000  C
  C15      1.0000 0.12370  0.59510  0.98952  Biso   1.000  C
  C16      1.0000 0.07120  0.60900  0.01399  Biso   1.000  C
  C17      1.0000 0.97400  0.59614  0.01642  Biso   1.000  C
  C18      1.0000 0.91620  0.60981  0.04268  Biso   1.000  C
  C19      1.0000 0.86580  0.83760  0.41858  Biso   1.000  C
  C20      1.0000 0.88280  0.79561  0.40357  Biso   1.000  C
  C21      1.0000 0.90390  0.88327  0.37839  Biso   1.000  C
  C22      1.0000 0.92050  0.84312  0.36157  Biso   1.000  C
  C23      1.0000 0.90900  0.79818  0.37427  Biso   1.000  C
  C24      1.0000 0.92390  0.75396  0.35678  Biso   1.000  C
  C25      1.0000 0.02940  0.77256  0.24127  Biso   1.000  C
  C26      1.0000 0.99320  0.76838  0.26946  Biso   1.000  C
  C27      1.0000 0.06050  0.69128  0.23904  Biso   1.000  C
  C28      1.0000 0.02400  0.68453  0.26701  Biso   1.000  C
  C29      1.0000 0.99180  0.72379  0.28268  Biso   1.000  C
  C30      1.0000 0.96050  0.71901  0.31372  Biso   1.000  C
  C31      1.0000 0.89600  0.54095  0.36446  Biso   1.000  C
  C32      1.0000 0.91200  0.58452  0.35057  Biso   1.000  C
  C33      1.0000 0.88930  0.57737  0.40940  Biso   1.000  C
  C34      1.0000 0.90380  0.62188  0.39681  Biso   1.000  C
  C35      1.0000 0.91420  0.62594  0.36715  Biso   1.000  C
  C36      1.0000 0.92660  0.67329  0.35318  Biso   1.000  C
  C37      1.0000 0.88700  0.81170  0.63570  Biso   1.000  C
  C38      1.0000 0.93520  0.83323  0.61229  Biso   1.000  C
  C39      1.0000 0.03260  0.79460  0.65830  Biso   1.000  C
  C40      1.0000 0.08570  0.81577  0.63601  Biso   1.000  C
  C41      1.0000 0.03570  0.83499  0.61243  Biso   1.000  C
  C42      1.0000 0.08840  0.85780  0.58762  Biso   1.000  C
  C43      1.0000 0.46790  0.91780  0.60130  Biso   1.000  C
  C44      1.0000 0.37530  0.89980  0.59807  Biso   1.000  C
  C45      1.0000 0.46740  0.94775  0.55421  Biso   1.000  C
  C46      1.0000 0.37450  0.93060  0.54929  Biso   1.000  C
  C47      1.0000 0.32640  0.90654  0.57176  Biso   1.000  C
  C48      1.0000 0.22340  0.89062  0.56828  Biso   1.000  C
  C49      1.0000 0.01000  0.94375  0.47049  Biso   1.000  C
  C50      1.0000 0.06680  0.93173  0.49419  Biso   1.000  C
  C51      1.0000 0.87630  0.90490  0.48952  Biso   1.000  C
  C52      1.0000 0.92880  0.89100  0.51399  Biso   1.000  C
  C53      1.0000 0.02600  0.90386  0.51642  Biso   1.000  C
  C54      1.0000 0.08380  0.89019  0.54268  Biso   1.000  C
  C55      1.0000 0.13420  0.66240  0.91858  Biso   1.000  C
  C56      1.0000 0.11720  0.70439  0.90357  Biso   1.000  C
  C57      1.0000 0.09610  0.61673  0.87839  Biso   1.000  C
  C58      1.0000 0.07950  0.65688  0.86157  Biso   1.000  C
  C59      1.0000 0.09100  0.70182  0.87427  Biso   1.000  C
  C60      1.0000 0.07610  0.74604  0.85678  Biso   1.000  C
  C61      1.0000 0.97060  0.72744  0.74127  Biso   1.000  C
  C62      1.0000 0.00680  0.73162  0.76946  Biso   1.000  C
  C63      1.0000 0.93950  0.80872  0.73904  Biso   1.000  C
  C64      1.0000 0.97600  0.81547  0.76701  Biso   1.000  C
  C65      1.0000 0.00820  0.77621  0.78268  Biso   1.000  C
  C66      1.0000 0.03950  0.78099  0.81372  Biso   1.000  C
  C67      1.0000 0.10400  0.95905  0.86446  Biso   1.000  C
  C68      1.0000 0.08800  0.91548  0.85057  Biso   1.000  C
  C69      1.0000 0.11070  0.92263  0.90940  Biso   1.000  C
  C70      1.0000 0.09620  0.87812  0.89681  Biso   1.000  C
  C71      1.0000 0.08580  0.87406  0.86715  Biso   1.000  C
  C72      1.0000 0.07340  0.82671  0.85318  Biso   1.000  C
  C73      1.0000 0.61300  0.31170  0.36430  Biso   1.000  C
  C74      1.0000 0.56480  0.33323  0.38771  Biso   1.000  C
  C75      1.0000 0.46740  0.29460  0.34170  Biso   1.000  C
  C76      1.0000 0.41430  0.31577  0.36399  Biso   1.000  C
  C77      1.0000 0.46430  0.33499  0.38757  Biso   1.000  C
  C78      1.0000 0.41160  0.35780  0.41238  Biso   1.000  C
  C79      1.0000 0.03210  0.41780  0.39870  Biso   1.000  C
  C80      1.0000 0.12470  0.39980  0.40193  Biso   1.000  C
  C81      1.0000 0.03260  0.44775  0.44579  Biso   1.000  C
  C82      1.0000 0.12550  0.43060  0.45071  Biso   1.000  C
  C83      1.0000 0.17360  0.40654  0.42824  Biso   1.000  C
  C84      1.0000 0.27660  0.39062  0.43172  Biso   1.000  C
  C85      1.0000 0.49000  0.44375  0.52951  Biso   1.000  C
  C86      1.0000 0.43320  0.43173  0.50581  Biso   1.000  C
  C87      1.0000 0.62370  0.40490  0.51048  Biso   1.000  C
  C88      1.0000 0.57120  0.39100  0.48601  Biso   1.000  C
  C89      1.0000 0.47400  0.40386  0.48358  Biso   1.000  C
  C90      1.0000 0.41620  0.39019  0.45732  Biso   1.000  C
  C91      1.0000 0.36580  0.16240  0.08142  Biso   1.000  C
  C92      1.0000 0.38280  0.20439  0.09643  Biso   1.000  C
  C93      1.0000 0.40390  0.11673  0.12161  Biso   1.000  C
  C94      1.0000 0.42050  0.15688  0.13843  Biso   1.000  C
  C95      1.0000 0.40900  0.20182  0.12573  Biso   1.000  C
  C96      1.0000 0.42390  0.24604  0.14322  Biso   1.000  C
  C97      1.0000 0.52940  0.22744  0.25873  Biso   1.000  C
  C98      1.0000 0.49320  0.23162  0.23054  Biso   1.000  C
  C99      1.0000 0.56050  0.30872  0.26096  Biso   1.000  C
  C100     1.0000 0.52400  0.31547  0.23299  Biso   1.000  C
  C101     1.0000 0.49180  0.27621  0.21732  Biso   1.000  C
  C102     1.0000 0.46050  0.28099  0.18628  Biso   1.000  C
  C103     1.0000 0.39600  0.45905  0.13554  Biso   1.000  C
  C104     1.0000 0.41200  0.41548  0.14943  Biso   1.000  C
  C105     1.0000 0.38930  0.42263  0.09060  Biso   1.000  C
  C106     1.0000 0.40380  0.37812  0.10319  Biso   1.000  C
  C107     1.0000 0.41420  0.37406  0.13285  Biso   1.000  C
  C108     1.0000 0.42660  0.32671  0.14682  Biso   1.000  C
  C109     1.0000 0.38700  0.18830  0.86430  Biso   1.000  C
  C110     1.0000 0.43520  0.16677  0.88771  Biso   1.000  C
  C111     1.0000 0.53260  0.20540  0.84170  Biso   1.000  C
  C112     1.0000 0.58570  0.18423  0.86399  Biso   1.000  C
  C113     1.0000 0.53570  0.16501  0.88757  Biso   1.000  C
  C114     1.0000 0.58840  0.14220  0.91238  Biso   1.000  C
  C115     1.0000 0.96790  0.08220  0.89870  Biso   1.000  C
  C116     1.0000 0.87530  0.10020  0.90193  Biso   1.000  C
  C117     1.0000 0.96740  0.05225  0.94579  Biso   1.000  C
  C118     1.0000 0.87450  0.06940  0.95071  Biso   1.000  C
  C119     1.0000 0.82640  0.09346  0.92824  Biso   1.000  C
  C120     1.0000 0.72340  0.10938  0.93172  Biso   1.000  C
  C121     1.0000 0.51000  0.05625  0.02951  Biso   1.000  C
  C122     1.0000 0.56680  0.06827  0.00581  Biso   1.000  C
  C123     1.0000 0.37630  0.09510  0.01048  Biso   1.000  C
  C124     1.0000 0.42880  0.10900  0.98601  Biso   1.000  C
  C125     1.0000 0.52600  0.09614  0.98358  Biso   1.000  C
  C126     1.0000 0.58380  0.10981  0.95732  Biso   1.000  C
  C127     1.0000 0.63420  0.33760  0.58142  Biso   1.000  C
  C128     1.0000 0.61720  0.29561  0.59643  Biso   1.000  C
  C129     1.0000 0.59610  0.38327  0.62161  Biso   1.000  C
  C130     1.0000 0.57950  0.34312  0.63843  Biso   1.000  C
  C131     1.0000 0.59100  0.29818  0.62573  Biso   1.000  C
  C132     1.0000 0.57610  0.25396  0.64322  Biso   1.000  C
  C133     1.0000 0.47060  0.27256  0.75873  Biso   1.000  C
  C134     1.0000 0.50680  0.26838  0.73054  Biso   1.000  C
  C135     1.0000 0.43950  0.19128  0.76096  Biso   1.000  C
  C136     1.0000 0.47600  0.18453  0.73299  Biso   1.000  C
  C137     1.0000 0.50820  0.22379  0.71732  Biso   1.000  C
  C138     1.0000 0.53950  0.21901  0.68628  Biso   1.000  C
  C139     1.0000 0.60400  0.04095  0.63554  Biso   1.000  C
  C140     1.0000 0.58800  0.08452  0.64943  Biso   1.000  C
  C141     1.0000 0.61070  0.07737  0.59060  Biso   1.000  C
  C142     1.0000 0.59620  0.12188  0.60319  Biso   1.000  C
  C143     1.0000 0.58580  0.12594  0.63285  Biso   1.000  C
  C144     1.0000 0.57340  0.17329  0.64682  Biso   1.000  C
  I1       1.0000 0.30308  0.69652  0.19544  Biso   1.000  I
  I2       1.0000 0.15294  0.83302  0.17684  Biso   1.000  I
  I3       1.0000 0.34189  0.56653  0.94140  Biso   1.000  I
  I4       1.0000 0.07902  0.48930  0.90204  Biso   1.000  I
  I5       1.0000 0.27402  0.51072  0.03748  Biso   1.000  I
  I6       1.0000 0.26602  0.57649  0.12691  Biso   1.000  I
  I7       1.0000 0.69692  0.80348  0.69544  Biso   1.000  I
  I8       1.0000 0.84706  0.66698  0.67684  Biso   1.000  I
  I9       1.0000 0.65811  0.93347  0.44140  Biso   1.000  I
  I10      1.0000 0.92098  0.01070  0.40204  Biso   1.000  I
  I11      1.0000 0.72598  0.98928  0.53748  Biso   1.000  I
  I12      1.0000 0.73398  0.92351  0.62691  Biso   1.000  I
  I13      1.0000 0.80308  0.30348  0.30456  Biso   1.000  I
  I14      1.0000 0.65294  0.16698  0.32316  Biso   1.000  I
  I15      1.0000 0.84189  0.43347  0.55860  Biso   1.000  I
  I16      1.0000 0.57902  0.51070  0.59796  Biso   1.000  I
  I17      1.0000 0.77402  0.48928  0.46252  Biso   1.000  I
  I18      1.0000 0.76602  0.42351  0.37309  Biso   1.000  I
  I19      1.0000 0.19692  0.19652  0.80456  Biso   1.000  I
  I20      1.0000 0.34706  0.33302  0.82316  Biso   1.000  I
  I21      1.0000 0.15811  0.06653  0.05860  Biso   1.000  I
  I22      1.0000 0.42098  0.98930  0.09796  Biso   1.000  I
  I23      1.0000 0.22598  0.01072  0.96252  Biso   1.000  I
  I24      1.0000 0.23398  0.07649  0.87309  Biso   1.000  I
  N1       1.0000 0.06490  0.70801  0.15794  Biso   1.000  N
  N2       1.0000 0.48590  0.55795  0.07991  Biso   1.000  N
  N3       1.0000 0.08370  0.56985  0.96773  Biso   1.000  N
  N4       1.0000 0.81680  0.63230  0.09088  Biso   1.000  N
  N5       1.0000 0.82190  0.59791  0.04341  Biso   1.000  N
  N6       1.0000 0.96490  0.63208  0.06399  Biso   1.000  N
  N7       1.0000 0.87610  0.88099  0.40650  Biso   1.000  N
  N8       1.0000 0.06420  0.73478  0.22656  Biso   1.000  N
  N9       1.0000 0.88450  0.53702  0.39346  Biso   1.000  N
  N10      1.0000 0.94780  0.75982  0.32852  Biso   1.000  N
  N11      1.0000 0.95120  0.67472  0.32483  Biso   1.000  N
  N12      1.0000 0.91270  0.71192  0.37017  Biso   1.000  N
  N13      1.0000 0.93510  0.79199  0.65794  Biso   1.000  N
  N14      1.0000 0.51410  0.94205  0.57991  Biso   1.000  N
  N15      1.0000 0.91630  0.93015  0.46773  Biso   1.000  N
  N16      1.0000 0.18320  0.86770  0.59088  Biso   1.000  N
  N17      1.0000 0.17810  0.90209  0.54341  Biso   1.000  N
  N18      1.0000 0.03510  0.86792  0.56399  Biso   1.000  N
  N19      1.0000 0.12390  0.61901  0.90650  Biso   1.000  N
  N20      1.0000 0.93580  0.76522  0.72656  Biso   1.000  N
  N21      1.0000 0.11550  0.96298  0.89346  Biso   1.000  N
  N22      1.0000 0.05220  0.74018  0.82852  Biso   1.000  N
  N23      1.0000 0.04880  0.82528  0.82483  Biso   1.000  N
  N24      1.0000 0.08730  0.78808  0.87017  Biso   1.000  N
  N25      1.0000 0.56490  0.29199  0.34206  Biso   1.000  N
  N26      1.0000 0.98590  0.44205  0.42009  Biso   1.000  N
  N27      1.0000 0.58370  0.43015  0.53227  Biso   1.000  N
  N28      1.0000 0.31680  0.36770  0.40912  Biso   1.000  N
  N29      1.0000 0.32190  0.40209  0.45659  Biso   1.000  N
  N30      1.0000 0.46490  0.36792  0.43601  Biso   1.000  N
  N31      1.0000 0.37610  0.11901  0.09350  Biso   1.000  N
  N32      1.0000 0.56420  0.26522  0.27344  Biso   1.000  N
  N33      1.0000 0.38450  0.46298  0.10654  Biso   1.000  N
  N34      1.0000 0.44780  0.24018  0.17148  Biso   1.000  N
  N35      1.0000 0.45120  0.32528  0.17517  Biso   1.000  N
  N36      1.0000 0.41270  0.28808  0.12983  Biso   1.000  N
  N37      1.0000 0.43510  0.20801  0.84206  Biso   1.000  N
  N38      1.0000 0.01410  0.05795  0.92009  Biso   1.000  N
  N39      1.0000 0.41630  0.06985  0.03227  Biso   1.000  N
  N40      1.0000 0.68320  0.13230  0.90912  Biso   1.000  N
  N41      1.0000 0.67810  0.09791  0.95659  Biso   1.000  N
  N42      1.0000 0.53510  0.13208  0.93601  Biso   1.000  N
  N43      1.0000 0.62390  0.38099  0.59350  Biso   1.000  N
  N44      1.0000 0.43580  0.23478  0.77344  Biso   1.000  N
  N45      1.0000 0.61550  0.03702  0.60654  Biso   1.000  N
  N46      1.0000 0.55220  0.25982  0.67148  Biso   1.000  N
  N47      1.0000 0.54880  0.17472  0.67517  Biso   1.000  N
  N48      1.0000 0.58730  0.21192  0.62983  Biso   1.000  N
  Zn13     1.0000 0.85520  0.25596  0.81106  Biso   1.000  Zn
  Zn14     1.0000 0.83911  0.44275  0.07046  Biso   1.000  Zn
  Zn15     1.0000 0.64969  0.47223  0.91280  Biso   1.000  Zn
  Zn16     1.0000 0.14480  0.24404  0.31106  Biso   1.000  Zn
  Zn17     1.0000 0.16089  0.05725  0.57047  Biso   1.000  Zn
  Zn18     1.0000 0.35031  0.02777  0.41280  Biso   1.000  Zn
  Zn19     1.0000 0.35520  0.74404  0.68894  Biso   1.000  Zn
  Zn20     1.0000 0.33911  0.55725  0.42953  Biso   1.000  Zn
  Zn21     1.0000 0.14969  0.52777  0.58720  Biso   1.000  Zn
  Zn22     1.0000 0.64480  0.75596  0.18894  Biso   1.000  Zn
  Zn23     1.0000 0.66089  0.94275  0.92953  Biso   1.000  Zn
  Zn24     1.0000 0.85031  0.97223  0.08720  Biso   1.000  Zn
  H97      1.0000 0.81760  0.31110  0.86420  Biso   1.000  H
  H98      1.0000 0.89920  0.34650  0.90350  Biso   1.000  H
  H99      1.0000 0.06690  0.28140  0.82550  Biso   1.000  H
  H100     1.0000 0.15500  0.31710  0.86310  Biso   1.000  H
  H101     1.0000 0.50080  0.41300  0.88060  Biso   1.000  H
  H102     1.0000 0.34500  0.38290  0.88640  Biso   1.000  H
  H103     1.0000 0.50000  0.46430  0.96110  Biso   1.000  H
  H104     1.0000 0.34360  0.43510  0.96910  Biso   1.000  H
  H105     1.0000 0.03840  0.46250  0.04460  Biso   1.000  H
  H106     1.0000 0.13280  0.44220  0.00460  Biso   1.000  H
  H107     1.0000 0.80920  0.39620  0.01180  Biso   1.000  H
  H108     1.0000 0.89820  0.37280  0.97100  Biso   1.000  H
  H109     1.0000 0.15420  0.16430  0.56150  Biso   1.000  H
  H110     1.0000 0.12330  0.23450  0.58690  Biso   1.000  H
  H111     1.0000 0.08760  0.08610  0.63030  Biso   1.000  H
  H112     1.0000 0.06050  0.15390  0.65830  Biso   1.000  H
  H113     1.0000 0.97050  0.19680  0.76790  Biso   1.000  H
  H114     1.0000 0.03030  0.20420  0.72040  Biso   1.000  H
  H115     1.0000 0.91650  0.33570  0.77160  Biso   1.000  H
  H116     1.0000 0.97870  0.34670  0.72470  Biso   1.000  H
  H117     1.0000 0.10700  0.48730  0.64710  Biso   1.000  H
  H118     1.0000 0.07880  0.41420  0.67000  Biso   1.000  H
  H119     1.0000 0.11750  0.42470  0.57000  Biso   1.000  H
  H120     1.0000 0.09350  0.35030  0.59120  Biso   1.000  H
  H121     1.0000 0.18240  0.18890  0.36420  Biso   1.000  H
  H122     1.0000 0.10080  0.15350  0.40350  Biso   1.000  H
  H123     1.0000 0.93310  0.21860  0.32550  Biso   1.000  H
  H124     1.0000 0.84500  0.18290  0.36310  Biso   1.000  H
  H125     1.0000 0.49920  0.08700  0.38060  Biso   1.000  H
  H126     1.0000 0.65500  0.11710  0.38640  Biso   1.000  H
  H127     1.0000 0.50000  0.03570  0.46110  Biso   1.000  H
  H128     1.0000 0.65640  0.06490  0.46910  Biso   1.000  H
  H129     1.0000 0.96160  0.03750  0.54460  Biso   1.000  H
  H130     1.0000 0.86720  0.05780  0.50460  Biso   1.000  H
  H131     1.0000 0.19080  0.10380  0.51180  Biso   1.000  H
  H132     1.0000 0.10180  0.12720  0.47100  Biso   1.000  H
  H133     1.0000 0.84580  0.33570  0.06150  Biso   1.000  H
  H134     1.0000 0.87670  0.26550  0.08690  Biso   1.000  H
  H135     1.0000 0.91240  0.41390  0.13030  Biso   1.000  H
  H136     1.0000 0.93950  0.34610  0.15830  Biso   1.000  H
  H137     1.0000 0.02950  0.30320  0.26790  Biso   1.000  H
  H138     1.0000 0.96970  0.29580  0.22040  Biso   1.000  H
  H139     1.0000 0.08350  0.16430  0.27160  Biso   1.000  H
  H140     1.0000 0.02130  0.15330  0.22470  Biso   1.000  H
  H141     1.0000 0.89300  0.01270  0.14710  Biso   1.000  H
  H142     1.0000 0.92120  0.08580  0.17000  Biso   1.000  H
  H143     1.0000 0.88250  0.07530  0.07000  Biso   1.000  H
  H144     1.0000 0.90650  0.14970  0.09120  Biso   1.000  H
  H145     1.0000 0.31760  0.68890  0.63580  Biso   1.000  H
  H146     1.0000 0.39920  0.65350  0.59650  Biso   1.000  H
  H147     1.0000 0.56690  0.71860  0.67450  Biso   1.000  H
  H148     1.0000 0.65500  0.68290  0.63690  Biso   1.000  H
  H149     1.0000 0.00080  0.58700  0.61940  Biso   1.000  H
  H150     1.0000 0.84500  0.61710  0.61360  Biso   1.000  H
  H151     1.0000 0.00000  0.53570  0.53890  Biso   1.000  H
  H152     1.0000 0.84360  0.56490  0.53090  Biso   1.000  H
  H153     1.0000 0.53840  0.53750  0.45540  Biso   1.000  H
  H154     1.0000 0.63280  0.55780  0.49540  Biso   1.000  H
  H155     1.0000 0.30920  0.60380  0.48820  Biso   1.000  H
  H156     1.0000 0.39820  0.62720  0.52900  Biso   1.000  H
  H157     1.0000 0.65420  0.83570  0.93850  Biso   1.000  H
  H158     1.0000 0.62330  0.76550  0.91310  Biso   1.000  H
  H159     1.0000 0.58760  0.91390  0.86970  Biso   1.000  H
  H160     1.0000 0.56050  0.84610  0.84170  Biso   1.000  H
  H161     1.0000 0.47050  0.80320  0.73210  Biso   1.000  H
  H162     1.0000 0.53030  0.79580  0.77960  Biso   1.000  H
  H163     1.0000 0.41650  0.66430  0.72840  Biso   1.000  H
  H164     1.0000 0.47870  0.65330  0.77530  Biso   1.000  H
  H165     1.0000 0.60700  0.51270  0.85290  Biso   1.000  H
  H166     1.0000 0.57880  0.58580  0.83000  Biso   1.000  H
  H167     1.0000 0.61750  0.57530  0.93000  Biso   1.000  H
  H168     1.0000 0.59350  0.64970  0.90880  Biso   1.000  H
  H169     1.0000 0.68240  0.81110  0.13580  Biso   1.000  H
  H170     1.0000 0.60080  0.84650  0.09650  Biso   1.000  H
  H171     1.0000 0.43310  0.78140  0.17450  Biso   1.000  H
  H172     1.0000 0.34500  0.81710  0.13690  Biso   1.000  H
  H173     1.0000 0.99920  0.91300  0.11940  Biso   1.000  H
  H174     1.0000 0.15500  0.88290  0.11360  Biso   1.000  H
  H175     1.0000 0.00000  0.96430  0.03890  Biso   1.000  H
  H176     1.0000 0.15640  0.93510  0.03090  Biso   1.000  H
  H177     1.0000 0.46160  0.96250  0.95540  Biso   1.000  H
  H178     1.0000 0.36720  0.94220  0.99540  Biso   1.000  H
  H179     1.0000 0.69080  0.89620  0.98820  Biso   1.000  H
  H180     1.0000 0.60180  0.87280  0.02900  Biso   1.000  H
  H181     1.0000 0.34580  0.66430  0.43850  Biso   1.000  H
  H182     1.0000 0.37670  0.73450  0.41310  Biso   1.000  H
  H183     1.0000 0.41240  0.58610  0.36970  Biso   1.000  H
  H184     1.0000 0.43950  0.65390  0.34170  Biso   1.000  H
  H185     1.0000 0.52950  0.69680  0.23210  Biso   1.000  H
  H186     1.0000 0.46970  0.70420  0.27960  Biso   1.000  H
  H187     1.0000 0.58350  0.83570  0.22840  Biso   1.000  H
  H188     1.0000 0.52130  0.84670  0.27530  Biso   1.000  H
  H189     1.0000 0.39300  0.98730  0.35290  Biso   1.000  H
  H190     1.0000 0.42120  0.91420  0.33000  Biso   1.000  H
  H191     1.0000 0.38250  0.92470  0.43000  Biso   1.000  H
  H192     1.0000 0.40650  0.85030  0.40880  Biso   1.000  H
  C145     1.0000 0.88700  0.31170  0.86430  Biso   1.000  C
  C146     1.0000 0.93520  0.33323  0.88771  Biso   1.000  C
  C147     1.0000 0.03260  0.29460  0.84170  Biso   1.000  C
  C148     1.0000 0.08570  0.31577  0.86399  Biso   1.000  C
  C149     1.0000 0.03570  0.33499  0.88757  Biso   1.000  C
  C150     1.0000 0.08840  0.35780  0.91238  Biso   1.000  C
  C151     1.0000 0.46790  0.41780  0.89870  Biso   1.000  C
  C152     1.0000 0.37530  0.39980  0.90193  Biso   1.000  C
  C153     1.0000 0.46740  0.44775  0.94579  Biso   1.000  C
  C154     1.0000 0.37450  0.43060  0.95071  Biso   1.000  C
  C155     1.0000 0.32640  0.40654  0.92824  Biso   1.000  C
  C156     1.0000 0.22340  0.39062  0.93172  Biso   1.000  C
  C157     1.0000 0.01000  0.44375  0.02951  Biso   1.000  C
  C158     1.0000 0.06680  0.43173  0.00581  Biso   1.000  C
  C159     1.0000 0.87630  0.40490  0.01048  Biso   1.000  C
  C160     1.0000 0.92880  0.39100  0.98601  Biso   1.000  C
  C161     1.0000 0.02600  0.40386  0.98358  Biso   1.000  C
  C162     1.0000 0.08380  0.39019  0.95732  Biso   1.000  C
  C163     1.0000 0.13420  0.16240  0.58142  Biso   1.000  C
  C164     1.0000 0.11720  0.20439  0.59643  Biso   1.000  C
  C165     1.0000 0.09610  0.11673  0.62161  Biso   1.000  C
  C166     1.0000 0.07950  0.15688  0.63843  Biso   1.000  C
  C167     1.0000 0.09100  0.20182  0.62573  Biso   1.000  C
  C168     1.0000 0.07610  0.24604  0.64322  Biso   1.000  C
  C169     1.0000 0.97060  0.22744  0.75873  Biso   1.000  C
  C170     1.0000 0.00680  0.23162  0.73054  Biso   1.000  C
  C171     1.0000 0.93950  0.30872  0.76096  Biso   1.000  C
  C172     1.0000 0.97600  0.31547  0.73299  Biso   1.000  C
  C173     1.0000 0.00820  0.27621  0.71732  Biso   1.000  C
  C174     1.0000 0.03950  0.28099  0.68628  Biso   1.000  C
  C175     1.0000 0.10400  0.45905  0.63554  Biso   1.000  C
  C176     1.0000 0.08800  0.41548  0.64943  Biso   1.000  C
  C177     1.0000 0.11070  0.42263  0.59060  Biso   1.000  C
  C178     1.0000 0.09620  0.37812  0.60319  Biso   1.000  C
  C179     1.0000 0.08580  0.37406  0.63285  Biso   1.000  C
  C180     1.0000 0.07340  0.32671  0.64682  Biso   1.000  C
  C181     1.0000 0.11300  0.18830  0.36430  Biso   1.000  C
  C182     1.0000 0.06480  0.16677  0.38771  Biso   1.000  C
  C183     1.0000 0.96740  0.20540  0.34170  Biso   1.000  C
  C184     1.0000 0.91430  0.18423  0.36399  Biso   1.000  C
  C185     1.0000 0.96430  0.16501  0.38757  Biso   1.000  C
  C186     1.0000 0.91160  0.14220  0.41238  Biso   1.000  C
  C187     1.0000 0.53210  0.08220  0.39870  Biso   1.000  C
  C188     1.0000 0.62470  0.10020  0.40193  Biso   1.000  C
  C189     1.0000 0.53260  0.05225  0.44579  Biso   1.000  C
  C190     1.0000 0.62550  0.06940  0.45071  Biso   1.000  C
  C191     1.0000 0.67360  0.09346  0.42824  Biso   1.000  C
  C192     1.0000 0.77660  0.10938  0.43172  Biso   1.000  C
  C193     1.0000 0.99000  0.05625  0.52951  Biso   1.000  C
  C194     1.0000 0.93320  0.06827  0.50581  Biso   1.000  C
  C195     1.0000 0.12370  0.09510  0.51048  Biso   1.000  C
  C196     1.0000 0.07120  0.10900  0.48601  Biso   1.000  C
  C197     1.0000 0.97400  0.09614  0.48358  Biso   1.000  C
  C198     1.0000 0.91620  0.10981  0.45732  Biso   1.000  C
  C199     1.0000 0.86580  0.33760  0.08142  Biso   1.000  C
  C200     1.0000 0.88280  0.29561  0.09643  Biso   1.000  C
  C201     1.0000 0.90390  0.38327  0.12161  Biso   1.000  C
  C202     1.0000 0.92050  0.34312  0.13843  Biso   1.000  C
  C203     1.0000 0.90900  0.29818  0.12573  Biso   1.000  C
  C204     1.0000 0.92390  0.25396  0.14322  Biso   1.000  C
  C205     1.0000 0.02940  0.27256  0.25873  Biso   1.000  C
  C206     1.0000 0.99320  0.26838  0.23054  Biso   1.000  C
  C207     1.0000 0.06050  0.19128  0.26096  Biso   1.000  C
  C208     1.0000 0.02400  0.18453  0.23299  Biso   1.000  C
  C209     1.0000 0.99180  0.22379  0.21732  Biso   1.000  C
  C210     1.0000 0.96050  0.21901  0.18628  Biso   1.000  C
  C211     1.0000 0.89600  0.04095  0.13554  Biso   1.000  C
  C212     1.0000 0.91200  0.08452  0.14943  Biso   1.000  C
  C213     1.0000 0.88930  0.07737  0.09060  Biso   1.000  C
  C214     1.0000 0.90380  0.12188  0.10319  Biso   1.000  C
  C215     1.0000 0.91420  0.12594  0.13285  Biso   1.000  C
  C216     1.0000 0.92660  0.17329  0.14682  Biso   1.000  C
  C217     1.0000 0.38700  0.68830  0.63570  Biso   1.000  C
  C218     1.0000 0.43520  0.66677  0.61229  Biso   1.000  C
  C219     1.0000 0.53260  0.70540  0.65830  Biso   1.000  C
  C220     1.0000 0.58570  0.68423  0.63601  Biso   1.000  C
  C221     1.0000 0.53570  0.66501  0.61243  Biso   1.000  C
  C222     1.0000 0.58840  0.64220  0.58762  Biso   1.000  C
  C223     1.0000 0.96790  0.58220  0.60130  Biso   1.000  C
  C224     1.0000 0.87530  0.60020  0.59807  Biso   1.000  C
  C225     1.0000 0.96740  0.55225  0.55421  Biso   1.000  C
  C226     1.0000 0.87450  0.56940  0.54929  Biso   1.000  C
  C227     1.0000 0.82640  0.59346  0.57176  Biso   1.000  C
  C228     1.0000 0.72340  0.60938  0.56828  Biso   1.000  C
  C229     1.0000 0.51000  0.55625  0.47049  Biso   1.000  C
  C230     1.0000 0.56680  0.56827  0.49419  Biso   1.000  C
  C231     1.0000 0.37630  0.59510  0.48952  Biso   1.000  C
  C232     1.0000 0.42880  0.60900  0.51399  Biso   1.000  C
  C233     1.0000 0.52600  0.59614  0.51642  Biso   1.000  C
  C234     1.0000 0.58380  0.60981  0.54268  Biso   1.000  C
  C235     1.0000 0.63420  0.83760  0.91858  Biso   1.000  C
  C236     1.0000 0.61720  0.79561  0.90357  Biso   1.000  C
  C237     1.0000 0.59610  0.88327  0.87839  Biso   1.000  C
  C238     1.0000 0.57950  0.84312  0.86157  Biso   1.000  C
  C239     1.0000 0.59100  0.79818  0.87427  Biso   1.000  C
  C240     1.0000 0.57610  0.75396  0.85678  Biso   1.000  C
  C241     1.0000 0.47060  0.77256  0.74127  Biso   1.000  C
  C242     1.0000 0.50680  0.76838  0.76946  Biso   1.000  C
  C243     1.0000 0.43950  0.69128  0.73904  Biso   1.000  C
  C244     1.0000 0.47600  0.68453  0.76701  Biso   1.000  C
  C245     1.0000 0.50820  0.72379  0.78268  Biso   1.000  C
  C246     1.0000 0.53950  0.71901  0.81372  Biso   1.000  C
  C247     1.0000 0.60400  0.54095  0.86446  Biso   1.000  C
  C248     1.0000 0.58800  0.58452  0.85057  Biso   1.000  C
  C249     1.0000 0.61070  0.57737  0.90940  Biso   1.000  C
  C250     1.0000 0.59620  0.62188  0.89681  Biso   1.000  C
  C251     1.0000 0.58580  0.62594  0.86715  Biso   1.000  C
  C252     1.0000 0.57340  0.67329  0.85318  Biso   1.000  C
  C253     1.0000 0.61300  0.81170  0.13570  Biso   1.000  C
  C254     1.0000 0.56480  0.83323  0.11229  Biso   1.000  C
  C255     1.0000 0.46740  0.79460  0.15830  Biso   1.000  C
  C256     1.0000 0.41430  0.81577  0.13601  Biso   1.000  C
  C257     1.0000 0.46430  0.83499  0.11243  Biso   1.000  C
  C258     1.0000 0.41160  0.85780  0.08762  Biso   1.000  C
  C259     1.0000 0.03210  0.91780  0.10130  Biso   1.000  C
  C260     1.0000 0.12470  0.89980  0.09807  Biso   1.000  C
  C261     1.0000 0.03260  0.94775  0.05421  Biso   1.000  C
  C262     1.0000 0.12550  0.93060  0.04929  Biso   1.000  C
  C263     1.0000 0.17360  0.90654  0.07176  Biso   1.000  C
  C264     1.0000 0.27660  0.89062  0.06828  Biso   1.000  C
  C265     1.0000 0.49000  0.94375  0.97049  Biso   1.000  C
  C266     1.0000 0.43320  0.93173  0.99419  Biso   1.000  C
  C267     1.0000 0.62370  0.90490  0.98952  Biso   1.000  C
  C268     1.0000 0.57120  0.89100  0.01399  Biso   1.000  C
  C269     1.0000 0.47400  0.90386  0.01642  Biso   1.000  C
  C270     1.0000 0.41620  0.89019  0.04268  Biso   1.000  C
  C271     1.0000 0.36580  0.66240  0.41858  Biso   1.000  C
  C272     1.0000 0.38280  0.70439  0.40357  Biso   1.000  C
  C273     1.0000 0.40390  0.61673  0.37839  Biso   1.000  C
  C274     1.0000 0.42050  0.65688  0.36157  Biso   1.000  C
  C275     1.0000 0.40900  0.70182  0.37427  Biso   1.000  C
  C276     1.0000 0.42390  0.74604  0.35678  Biso   1.000  C
  C277     1.0000 0.52940  0.72744  0.24127  Biso   1.000  C
  C278     1.0000 0.49320  0.73162  0.26946  Biso   1.000  C
  C279     1.0000 0.56050  0.80872  0.23904  Biso   1.000  C
  C280     1.0000 0.52400  0.81547  0.26701  Biso   1.000  C
  C281     1.0000 0.49180  0.77621  0.28268  Biso   1.000  C
  C282     1.0000 0.46050  0.78099  0.31372  Biso   1.000  C
  C283     1.0000 0.39600  0.95905  0.36446  Biso   1.000  C
  C284     1.0000 0.41200  0.91548  0.35057  Biso   1.000  C
  C285     1.0000 0.38930  0.92263  0.40940  Biso   1.000  C
  C286     1.0000 0.40380  0.87812  0.39681  Biso   1.000  C
  C287     1.0000 0.41420  0.87406  0.36715  Biso   1.000  C
  C288     1.0000 0.42660  0.82671  0.35318  Biso   1.000  C
  I25      1.0000 0.69692  0.30348  0.80456  Biso   1.000  I
  I26      1.0000 0.84706  0.16698  0.82316  Biso   1.000  I
  I27      1.0000 0.65811  0.43347  0.05860  Biso   1.000  I
  I28      1.0000 0.92098  0.51070  0.09796  Biso   1.000  I
  I29      1.0000 0.72598  0.48928  0.96252  Biso   1.000  I
  I30      1.0000 0.73398  0.42351  0.87309  Biso   1.000  I
  I31      1.0000 0.30308  0.19652  0.30456  Biso   1.000  I
  I32      1.0000 0.15294  0.33302  0.32316  Biso   1.000  I
  I33      1.0000 0.34189  0.06653  0.55860  Biso   1.000  I
  I34      1.0000 0.07902  0.98930  0.59796  Biso   1.000  I
  I35      1.0000 0.27402  0.01072  0.46252  Biso   1.000  I
  I36      1.0000 0.26602  0.07649  0.37309  Biso   1.000  I
  I37      1.0000 0.19692  0.69652  0.69544  Biso   1.000  I
  I38      1.0000 0.34706  0.83302  0.67684  Biso   1.000  I
  I39      1.0000 0.15811  0.56653  0.44140  Biso   1.000  I
  I40      1.0000 0.42098  0.48930  0.40204  Biso   1.000  I
  I41      1.0000 0.22598  0.51072  0.53748  Biso   1.000  I
  I42      1.0000 0.23398  0.57649  0.62691  Biso   1.000  I
  I43      1.0000 0.80308  0.80348  0.19544  Biso   1.000  I
  I44      1.0000 0.65294  0.66698  0.17684  Biso   1.000  I
  I45      1.0000 0.84189  0.93347  0.94140  Biso   1.000  I
  I46      1.0000 0.57902  0.01070  0.90204  Biso   1.000  I
  I47      1.0000 0.77402  0.98928  0.03748  Biso   1.000  I
  I48      1.0000 0.76602  0.92351  0.12691  Biso   1.000  I
  N49      1.0000 0.93510  0.29199  0.84206  Biso   1.000  N
  N50      1.0000 0.51410  0.44205  0.92009  Biso   1.000  N
  N51      1.0000 0.91630  0.43015  0.03227  Biso   1.000  N
  N52      1.0000 0.18320  0.36770  0.90912  Biso   1.000  N
  N53      1.0000 0.17810  0.40209  0.95659  Biso   1.000  N
  N54      1.0000 0.03510  0.36792  0.93601  Biso   1.000  N
  N55      1.0000 0.12390  0.11901  0.59350  Biso   1.000  N
  N56      1.0000 0.93580  0.26522  0.77344  Biso   1.000  N
  N57      1.0000 0.11550  0.46298  0.60654  Biso   1.000  N
  N58      1.0000 0.05220  0.24018  0.67148  Biso   1.000  N
  N59      1.0000 0.04880  0.32528  0.67517  Biso   1.000  N
  N60      1.0000 0.08730  0.28808  0.62983  Biso   1.000  N
  N61      1.0000 0.06490  0.20801  0.34206  Biso   1.000  N
  N62      1.0000 0.48590  0.05795  0.42009  Biso   1.000  N
  N63      1.0000 0.08370  0.06985  0.53227  Biso   1.000  N
  N64      1.0000 0.81680  0.13230  0.40912  Biso   1.000  N
  N65      1.0000 0.82190  0.09791  0.45659  Biso   1.000  N
  N66      1.0000 0.96490  0.13208  0.43601  Biso   1.000  N
  N67      1.0000 0.87610  0.38099  0.09350  Biso   1.000  N
  N68      1.0000 0.06420  0.23478  0.27344  Biso   1.000  N
  N69      1.0000 0.88450  0.03702  0.10654  Biso   1.000  N
  N70      1.0000 0.94780  0.25982  0.17148  Biso   1.000  N
  N71      1.0000 0.95120  0.17472  0.17517  Biso   1.000  N
  N72      1.0000 0.91270  0.21192  0.12983  Biso   1.000  N
  N73      1.0000 0.43510  0.70801  0.65794  Biso   1.000  N
  N74      1.0000 0.01410  0.55795  0.57991  Biso   1.000  N
  N75      1.0000 0.41630  0.56985  0.46773  Biso   1.000  N
  N76      1.0000 0.68320  0.63230  0.59088  Biso   1.000  N
  N77      1.0000 0.67810  0.59791  0.54341  Biso   1.000  N
  N78      1.0000 0.53510  0.63208  0.56399  Biso   1.000  N
  N79      1.0000 0.62390  0.88099  0.90650  Biso   1.000  N
  N80      1.0000 0.43580  0.73478  0.72656  Biso   1.000  N
  N81      1.0000 0.61550  0.53702  0.89346  Biso   1.000  N
  N82      1.0000 0.55220  0.75982  0.82852  Biso   1.000  N
  N83      1.0000 0.54880  0.67472  0.82483  Biso   1.000  N
  N84      1.0000 0.58730  0.71192  0.87017  Biso   1.000  N
  N85      1.0000 0.56490  0.79199  0.15794  Biso   1.000  N
  N86      1.0000 0.98590  0.94205  0.07991  Biso   1.000  N
  N87      1.0000 0.58370  0.93015  0.96773  Biso   1.000  N
  N88      1.0000 0.31680  0.86770  0.09088  Biso   1.000  N
  N89      1.0000 0.32190  0.90209  0.04341  Biso   1.000  N
  N90      1.0000 0.46490  0.86792  0.06399  Biso   1.000  N
  N91      1.0000 0.37610  0.61901  0.40650  Biso   1.000  N
  N92      1.0000 0.56420  0.76522  0.22656  Biso   1.000  N
  N93      1.0000 0.38450  0.96298  0.39346  Biso   1.000  N
  N94      1.0000 0.44780  0.74018  0.32852  Biso   1.000  N
  N95      1.0000 0.45120  0.82528  0.32483  Biso   1.000  N
  N96      1.0000 0.41270  0.78808  0.37017  Biso   1.000  N
