data_image0
_cell_length_a       26.3238
_cell_length_b       26.3238
_cell_length_c       26.3238
_cell_angle_alpha    90
_cell_angle_beta     90
_cell_angle_gamma    90

_symmetry_space_group_name_H-M    "P 1"
_symmetry_int_tables_number       1

loop_
  _symmetry_equiv_pos_as_xyz
  'x, y, z'

loop_
  _atom_site_label
  _atom_site_occupancy
  _atom_site_fract_x
  _atom_site_fract_y
  _atom_site_fract_z
  _atom_site_thermal_displace_type
  _atom_site_B_iso_or_equiv
  _atom_site_type_symbol
  O1       1.0000 0.24322  0.31680  0.05246  Biso   1.000  O
  O2       1.0000 0.24322  0.81680  0.55246  Biso   1.000  O
  O3       1.0000 0.74322  0.31680  0.55246  Biso   1.000  O
  O4       1.0000 0.74322  0.81680  0.05246  Biso   1.000  O
  O5       1.0000 0.75678  0.68320  0.05246  Biso   1.000  O
  O6       1.0000 0.75678  0.18320  0.55246  Biso   1.000  O
  O7       1.0000 0.25678  0.68320  0.55246  Biso   1.000  O
  O8       1.0000 0.25678  0.18320  0.05246  Biso   1.000  O
  O9       1.0000 0.75678  0.31680  0.94754  Biso   1.000  O
  O10      1.0000 0.75678  0.81680  0.44754  Biso   1.000  O
  O11      1.0000 0.25678  0.31680  0.44754  Biso   1.000  O
  O12      1.0000 0.25678  0.81680  0.94754  Biso   1.000  O
  O13      1.0000 0.24322  0.68320  0.94754  Biso   1.000  O
  O14      1.0000 0.24322  0.18320  0.44754  Biso   1.000  O
  O15      1.0000 0.74322  0.68320  0.44754  Biso   1.000  O
  O16      1.0000 0.74322  0.18320  0.94754  Biso   1.000  O
  O17      1.0000 0.05246  0.24322  0.31680  Biso   1.000  O
  O18      1.0000 0.05246  0.74322  0.81680  Biso   1.000  O
  O19      1.0000 0.55246  0.24322  0.81680  Biso   1.000  O
  O20      1.0000 0.55246  0.74322  0.31680  Biso   1.000  O
  O21      1.0000 0.05246  0.75678  0.68320  Biso   1.000  O
  O22      1.0000 0.05246  0.25678  0.18320  Biso   1.000  O
  O23      1.0000 0.55246  0.75678  0.18320  Biso   1.000  O
  O24      1.0000 0.55246  0.25678  0.68320  Biso   1.000  O
  O25      1.0000 0.94754  0.75678  0.31680  Biso   1.000  O
  O26      1.0000 0.94754  0.25678  0.81680  Biso   1.000  O
  O27      1.0000 0.44754  0.75678  0.81680  Biso   1.000  O
  O28      1.0000 0.44754  0.25678  0.31680  Biso   1.000  O
  O29      1.0000 0.94754  0.24322  0.68320  Biso   1.000  O
  O30      1.0000 0.94754  0.74322  0.18320  Biso   1.000  O
  O31      1.0000 0.44754  0.24322  0.18320  Biso   1.000  O
  O32      1.0000 0.44754  0.74322  0.68320  Biso   1.000  O
  O33      1.0000 0.31680  0.05246  0.24322  Biso   1.000  O
  O34      1.0000 0.31680  0.55246  0.74322  Biso   1.000  O
  O35      1.0000 0.81680  0.05246  0.74322  Biso   1.000  O
  O36      1.0000 0.81680  0.55246  0.24322  Biso   1.000  O
  O37      1.0000 0.68320  0.05246  0.75678  Biso   1.000  O
  O38      1.0000 0.68320  0.55246  0.25678  Biso   1.000  O
  O39      1.0000 0.18320  0.05246  0.25678  Biso   1.000  O
  O40      1.0000 0.18320  0.55246  0.75678  Biso   1.000  O
  O41      1.0000 0.31680  0.94754  0.75678  Biso   1.000  O
  O42      1.0000 0.31680  0.44754  0.25678  Biso   1.000  O
  O43      1.0000 0.81680  0.94754  0.25678  Biso   1.000  O
  O44      1.0000 0.81680  0.44754  0.75678  Biso   1.000  O
  O45      1.0000 0.68320  0.94754  0.24322  Biso   1.000  O
  O46      1.0000 0.68320  0.44754  0.74322  Biso   1.000  O
  O47      1.0000 0.18320  0.94754  0.74322  Biso   1.000  O
  O48      1.0000 0.18320  0.44754  0.24322  Biso   1.000  O
  O49      1.0000 0.31680  0.24322  0.94754  Biso   1.000  O
  O50      1.0000 0.31680  0.74322  0.44754  Biso   1.000  O
  O51      1.0000 0.81680  0.24322  0.44754  Biso   1.000  O
  O52      1.0000 0.81680  0.74322  0.94754  Biso   1.000  O
  O53      1.0000 0.68320  0.75678  0.94754  Biso   1.000  O
  O54      1.0000 0.68320  0.25678  0.44754  Biso   1.000  O
  O55      1.0000 0.18320  0.75678  0.44754  Biso   1.000  O
  O56      1.0000 0.18320  0.25678  0.94754  Biso   1.000  O
  O57      1.0000 0.31680  0.75678  0.05246  Biso   1.000  O
  O58      1.0000 0.31680  0.25678  0.55246  Biso   1.000  O
  O59      1.0000 0.81680  0.75678  0.55246  Biso   1.000  O
  O60      1.0000 0.81680  0.25678  0.05246  Biso   1.000  O
  O61      1.0000 0.68320  0.24322  0.05246  Biso   1.000  O
  O62      1.0000 0.68320  0.74322  0.55246  Biso   1.000  O
  O63      1.0000 0.18320  0.24322  0.55246  Biso   1.000  O
  O64      1.0000 0.18320  0.74322  0.05246  Biso   1.000  O
  O65      1.0000 0.24322  0.05246  0.68320  Biso   1.000  O
  O66      1.0000 0.24322  0.55246  0.18320  Biso   1.000  O
  O67      1.0000 0.74322  0.05246  0.18320  Biso   1.000  O
  O68      1.0000 0.74322  0.55246  0.68320  Biso   1.000  O
  O69      1.0000 0.75678  0.05246  0.31680  Biso   1.000  O
  O70      1.0000 0.75678  0.55246  0.81680  Biso   1.000  O
  O71      1.0000 0.25678  0.05246  0.81680  Biso   1.000  O
  O72      1.0000 0.25678  0.55246  0.31680  Biso   1.000  O
  O73      1.0000 0.75678  0.94754  0.68320  Biso   1.000  O
  O74      1.0000 0.75678  0.44754  0.18320  Biso   1.000  O
  O75      1.0000 0.25678  0.94754  0.18320  Biso   1.000  O
  O76      1.0000 0.25678  0.44754  0.68320  Biso   1.000  O
  O77      1.0000 0.24322  0.94754  0.31680  Biso   1.000  O
  O78      1.0000 0.24322  0.44754  0.81680  Biso   1.000  O
  O79      1.0000 0.74322  0.94754  0.81680  Biso   1.000  O
  O80      1.0000 0.74322  0.44754  0.31680  Biso   1.000  O
  O81      1.0000 0.05246  0.31680  0.75678  Biso   1.000  O
  O82      1.0000 0.05246  0.81680  0.25678  Biso   1.000  O
  O83      1.0000 0.55246  0.31680  0.25678  Biso   1.000  O
  O84      1.0000 0.55246  0.81680  0.75678  Biso   1.000  O
  O85      1.0000 0.05246  0.68320  0.24322  Biso   1.000  O
  O86      1.0000 0.05246  0.18320  0.74322  Biso   1.000  O
  O87      1.0000 0.55246  0.68320  0.74322  Biso   1.000  O
  O88      1.0000 0.55246  0.18320  0.24322  Biso   1.000  O
  O89      1.0000 0.94754  0.31680  0.24322  Biso   1.000  O
  O90      1.0000 0.94754  0.81680  0.74322  Biso   1.000  O
  O91      1.0000 0.44754  0.31680  0.74322  Biso   1.000  O
  O92      1.0000 0.44754  0.81680  0.24322  Biso   1.000  O
  O93      1.0000 0.94754  0.68320  0.75678  Biso   1.000  O
  O94      1.0000 0.94754  0.18320  0.25678  Biso   1.000  O
  O95      1.0000 0.44754  0.68320  0.25678  Biso   1.000  O
  O96      1.0000 0.44754  0.18320  0.75678  Biso   1.000  O
  O97      1.0000 0.75678  0.68320  0.94754  Biso   1.000  O
  O98      1.0000 0.75678  0.18320  0.44754  Biso   1.000  O
  O99      1.0000 0.25678  0.68320  0.44754  Biso   1.000  O
  O100     1.0000 0.25678  0.18320  0.94754  Biso   1.000  O
  O101     1.0000 0.24322  0.31680  0.94754  Biso   1.000  O
  O102     1.0000 0.24322  0.81680  0.44754  Biso   1.000  O
  O103     1.0000 0.74322  0.31680  0.44754  Biso   1.000  O
  O104     1.0000 0.74322  0.81680  0.94754  Biso   1.000  O
  O105     1.0000 0.24322  0.68320  0.05246  Biso   1.000  O
  O106     1.0000 0.24322  0.18320  0.55246  Biso   1.000  O
  O107     1.0000 0.74322  0.68320  0.55246  Biso   1.000  O
  O108     1.0000 0.74322  0.18320  0.05246  Biso   1.000  O
  O109     1.0000 0.75678  0.31680  0.05246  Biso   1.000  O
  O110     1.0000 0.75678  0.81680  0.55246  Biso   1.000  O
  O111     1.0000 0.25678  0.31680  0.55246  Biso   1.000  O
  O112     1.0000 0.25678  0.81680  0.05246  Biso   1.000  O
  O113     1.0000 0.94754  0.75678  0.68320  Biso   1.000  O
  O114     1.0000 0.94754  0.25678  0.18320  Biso   1.000  O
  O115     1.0000 0.44754  0.75678  0.18320  Biso   1.000  O
  O116     1.0000 0.44754  0.25678  0.68320  Biso   1.000  O
  O117     1.0000 0.94754  0.24322  0.31680  Biso   1.000  O
  O118     1.0000 0.94754  0.74322  0.81680  Biso   1.000  O
  O119     1.0000 0.44754  0.24322  0.81680  Biso   1.000  O
  O120     1.0000 0.44754  0.74322  0.31680  Biso   1.000  O
  O121     1.0000 0.05246  0.24322  0.68320  Biso   1.000  O
  O122     1.0000 0.05246  0.74322  0.18320  Biso   1.000  O
  O123     1.0000 0.55246  0.24322  0.18320  Biso   1.000  O
  O124     1.0000 0.55246  0.74322  0.68320  Biso   1.000  O
  O125     1.0000 0.05246  0.75678  0.31680  Biso   1.000  O
  O126     1.0000 0.05246  0.25678  0.81680  Biso   1.000  O
  O127     1.0000 0.55246  0.75678  0.81680  Biso   1.000  O
  O128     1.0000 0.55246  0.25678  0.31680  Biso   1.000  O
  O129     1.0000 0.68320  0.94754  0.75678  Biso   1.000  O
  O130     1.0000 0.68320  0.44754  0.25678  Biso   1.000  O
  O131     1.0000 0.18320  0.94754  0.25678  Biso   1.000  O
  O132     1.0000 0.18320  0.44754  0.75678  Biso   1.000  O
  O133     1.0000 0.31680  0.94754  0.24322  Biso   1.000  O
  O134     1.0000 0.31680  0.44754  0.74322  Biso   1.000  O
  O135     1.0000 0.81680  0.94754  0.74322  Biso   1.000  O
  O136     1.0000 0.81680  0.44754  0.24322  Biso   1.000  O
  O137     1.0000 0.68320  0.05246  0.24322  Biso   1.000  O
  O138     1.0000 0.68320  0.55246  0.74322  Biso   1.000  O
  O139     1.0000 0.18320  0.05246  0.74322  Biso   1.000  O
  O140     1.0000 0.18320  0.55246  0.24322  Biso   1.000  O
  O141     1.0000 0.31680  0.05246  0.75678  Biso   1.000  O
  O142     1.0000 0.31680  0.55246  0.25678  Biso   1.000  O
  O143     1.0000 0.81680  0.05246  0.25678  Biso   1.000  O
  O144     1.0000 0.81680  0.55246  0.75678  Biso   1.000  O
  O145     1.0000 0.68320  0.75678  0.05246  Biso   1.000  O
  O146     1.0000 0.68320  0.25678  0.55246  Biso   1.000  O
  O147     1.0000 0.18320  0.75678  0.55246  Biso   1.000  O
  O148     1.0000 0.18320  0.25678  0.05246  Biso   1.000  O
  O149     1.0000 0.31680  0.24322  0.05246  Biso   1.000  O
  O150     1.0000 0.31680  0.74322  0.55246  Biso   1.000  O
  O151     1.0000 0.81680  0.24322  0.55246  Biso   1.000  O
  O152     1.0000 0.81680  0.74322  0.05246  Biso   1.000  O
  O153     1.0000 0.68320  0.24322  0.94754  Biso   1.000  O
  O154     1.0000 0.68320  0.74322  0.44754  Biso   1.000  O
  O155     1.0000 0.18320  0.24322  0.44754  Biso   1.000  O
  O156     1.0000 0.18320  0.74322  0.94754  Biso   1.000  O
  O157     1.0000 0.31680  0.75678  0.94754  Biso   1.000  O
  O158     1.0000 0.31680  0.25678  0.44754  Biso   1.000  O
  O159     1.0000 0.81680  0.75678  0.44754  Biso   1.000  O
  O160     1.0000 0.81680  0.25678  0.94754  Biso   1.000  O
  O161     1.0000 0.75678  0.94754  0.31680  Biso   1.000  O
  O162     1.0000 0.75678  0.44754  0.81680  Biso   1.000  O
  O163     1.0000 0.25678  0.94754  0.81680  Biso   1.000  O
  O164     1.0000 0.25678  0.44754  0.31680  Biso   1.000  O
  O165     1.0000 0.24322  0.94754  0.68320  Biso   1.000  O
  O166     1.0000 0.24322  0.44754  0.18320  Biso   1.000  O
  O167     1.0000 0.74322  0.94754  0.18320  Biso   1.000  O
  O168     1.0000 0.74322  0.44754  0.68320  Biso   1.000  O
  O169     1.0000 0.24322  0.05246  0.31680  Biso   1.000  O
  O170     1.0000 0.24322  0.55246  0.81680  Biso   1.000  O
  O171     1.0000 0.74322  0.05246  0.81680  Biso   1.000  O
  O172     1.0000 0.74322  0.55246  0.31680  Biso   1.000  O
  O173     1.0000 0.75678  0.05246  0.68320  Biso   1.000  O
  O174     1.0000 0.75678  0.55246  0.18320  Biso   1.000  O
  O175     1.0000 0.25678  0.05246  0.18320  Biso   1.000  O
  O176     1.0000 0.25678  0.55246  0.68320  Biso   1.000  O
  O177     1.0000 0.94754  0.68320  0.24322  Biso   1.000  O
  O178     1.0000 0.94754  0.18320  0.74322  Biso   1.000  O
  O179     1.0000 0.44754  0.68320  0.74322  Biso   1.000  O
  O180     1.0000 0.44754  0.18320  0.24322  Biso   1.000  O
  O181     1.0000 0.94754  0.31680  0.75678  Biso   1.000  O
  O182     1.0000 0.94754  0.81680  0.25678  Biso   1.000  O
  O183     1.0000 0.44754  0.31680  0.25678  Biso   1.000  O
  O184     1.0000 0.44754  0.81680  0.75678  Biso   1.000  O
  O185     1.0000 0.05246  0.68320  0.75678  Biso   1.000  O
  O186     1.0000 0.05246  0.18320  0.25678  Biso   1.000  O
  O187     1.0000 0.55246  0.68320  0.25678  Biso   1.000  O
  O188     1.0000 0.55246  0.18320  0.75678  Biso   1.000  O
  O189     1.0000 0.05246  0.31680  0.24322  Biso   1.000  O
  O190     1.0000 0.05246  0.81680  0.74322  Biso   1.000  O
  O191     1.0000 0.55246  0.31680  0.74322  Biso   1.000  O
  O192     1.0000 0.55246  0.81680  0.24322  Biso   1.000  O
  Cu1      1.0000 0.28495  0.28495  0.00000  Biso   1.000  Cu
  O193     1.0000 0.34440  0.34440  0.00000  Biso   1.000  O
  Cu2      1.0000 0.28495  0.78495  0.50000  Biso   1.000  Cu
  O194     1.0000 0.34440  0.84440  0.50000  Biso   1.000  O
  Cu3      1.0000 0.78495  0.28495  0.50000  Biso   1.000  Cu
  O195     1.0000 0.84440  0.34440  0.50000  Biso   1.000  O
  Cu4      1.0000 0.78495  0.78495  0.00000  Biso   1.000  Cu
  O196     1.0000 0.84440  0.84440  0.00000  Biso   1.000  O
  Cu5      1.0000 0.71505  0.71505  0.00000  Biso   1.000  Cu
  O197     1.0000 0.65560  0.65560  0.00000  Biso   1.000  O
  Cu6      1.0000 0.71505  0.21505  0.50000  Biso   1.000  Cu
  O198     1.0000 0.65560  0.15560  0.50000  Biso   1.000  O
  Cu7      1.0000 0.21505  0.71505  0.50000  Biso   1.000  Cu
  O199     1.0000 0.15560  0.65560  0.50000  Biso   1.000  O
  Cu8      1.0000 0.21505  0.21505  0.00000  Biso   1.000  Cu
  O200     1.0000 0.15560  0.15560  0.00000  Biso   1.000  O
  Cu9      1.0000 0.71505  0.28495  0.00000  Biso   1.000  Cu
  O201     1.0000 0.65560  0.34440  0.00000  Biso   1.000  O
  Cu10     1.0000 0.71505  0.78495  0.50000  Biso   1.000  Cu
  O202     1.0000 0.65560  0.84440  0.50000  Biso   1.000  O
  Cu11     1.0000 0.21505  0.28495  0.50000  Biso   1.000  Cu
  O203     1.0000 0.15560  0.34440  0.50000  Biso   1.000  O
  Cu12     1.0000 0.21505  0.78495  0.00000  Biso   1.000  Cu
  O204     1.0000 0.15560  0.84440  0.00000  Biso   1.000  O
  Cu13     1.0000 0.28495  0.71505  0.00000  Biso   1.000  Cu
  O205     1.0000 0.34440  0.65560  0.00000  Biso   1.000  O
  Cu14     1.0000 0.28495  0.21505  0.50000  Biso   1.000  Cu
  O206     1.0000 0.34440  0.15560  0.50000  Biso   1.000  O
  Cu15     1.0000 0.78495  0.71505  0.50000  Biso   1.000  Cu
  O207     1.0000 0.84440  0.65560  0.50000  Biso   1.000  O
  Cu16     1.0000 0.78495  0.21505  0.00000  Biso   1.000  Cu
  O208     1.0000 0.84440  0.15560  0.00000  Biso   1.000  O
  Cu17     1.0000 0.00000  0.28495  0.28495  Biso   1.000  Cu
  O209     1.0000 0.00000  0.34440  0.34440  Biso   1.000  O
  Cu18     1.0000 0.00000  0.78495  0.78495  Biso   1.000  Cu
  O210     1.0000 0.00000  0.84440  0.84440  Biso   1.000  O
  Cu19     1.0000 0.50000  0.28495  0.78495  Biso   1.000  Cu
  O211     1.0000 0.50000  0.34440  0.84440  Biso   1.000  O
  Cu20     1.0000 0.50000  0.78495  0.28495  Biso   1.000  Cu
  O212     1.0000 0.50000  0.84440  0.34440  Biso   1.000  O
  Cu21     1.0000 0.00000  0.71505  0.71505  Biso   1.000  Cu
  O213     1.0000 0.00000  0.65560  0.65560  Biso   1.000  O
  Cu22     1.0000 0.00000  0.21505  0.21505  Biso   1.000  Cu
  O214     1.0000 0.00000  0.15560  0.15560  Biso   1.000  O
  Cu23     1.0000 0.50000  0.71505  0.21505  Biso   1.000  Cu
  O215     1.0000 0.50000  0.65560  0.15560  Biso   1.000  O
  Cu24     1.0000 0.50000  0.21505  0.71505  Biso   1.000  Cu
  O216     1.0000 0.50000  0.15560  0.65560  Biso   1.000  O
  Cu25     1.0000 0.00000  0.71505  0.28495  Biso   1.000  Cu
  O217     1.0000 0.00000  0.65560  0.34440  Biso   1.000  O
  Cu26     1.0000 0.00000  0.21505  0.78495  Biso   1.000  Cu
  O218     1.0000 0.00000  0.15560  0.84440  Biso   1.000  O
  Cu27     1.0000 0.50000  0.71505  0.78495  Biso   1.000  Cu
  O219     1.0000 0.50000  0.65560  0.84440  Biso   1.000  O
  Cu28     1.0000 0.50000  0.21505  0.28495  Biso   1.000  Cu
  O220     1.0000 0.50000  0.15560  0.34440  Biso   1.000  O
  Cu29     1.0000 0.00000  0.28495  0.71505  Biso   1.000  Cu
  O221     1.0000 0.00000  0.34440  0.65560  Biso   1.000  O
  Cu30     1.0000 0.00000  0.78495  0.21505  Biso   1.000  Cu
  O222     1.0000 0.00000  0.84440  0.15560  Biso   1.000  O
  Cu31     1.0000 0.50000  0.28495  0.21505  Biso   1.000  Cu
  O223     1.0000 0.50000  0.34440  0.15560  Biso   1.000  O
  Cu32     1.0000 0.50000  0.78495  0.71505  Biso   1.000  Cu
  O224     1.0000 0.50000  0.84440  0.65560  Biso   1.000  O
  Cu33     1.0000 0.28495  0.00000  0.28495  Biso   1.000  Cu
  O225     1.0000 0.34440  0.00000  0.34440  Biso   1.000  O
  Cu34     1.0000 0.28495  0.50000  0.78495  Biso   1.000  Cu
  O226     1.0000 0.34440  0.50000  0.84440  Biso   1.000  O
  Cu35     1.0000 0.78495  0.00000  0.78495  Biso   1.000  Cu
  O227     1.0000 0.84440  0.00000  0.84440  Biso   1.000  O
  Cu36     1.0000 0.78495  0.50000  0.28495  Biso   1.000  Cu
  O228     1.0000 0.84440  0.50000  0.34440  Biso   1.000  O
  Cu37     1.0000 0.71505  0.00000  0.71505  Biso   1.000  Cu
  O229     1.0000 0.65560  0.00000  0.65560  Biso   1.000  O
  Cu38     1.0000 0.71505  0.50000  0.21505  Biso   1.000  Cu
  O230     1.0000 0.65560  0.50000  0.15560  Biso   1.000  O
  Cu39     1.0000 0.21505  0.00000  0.21505  Biso   1.000  Cu
  O231     1.0000 0.15560  0.00000  0.15560  Biso   1.000  O
  Cu40     1.0000 0.21505  0.50000  0.71505  Biso   1.000  Cu
  O232     1.0000 0.15560  0.50000  0.65560  Biso   1.000  O
  Cu41     1.0000 0.28495  0.00000  0.71505  Biso   1.000  Cu
  O233     1.0000 0.34440  0.00000  0.65560  Biso   1.000  O
  Cu42     1.0000 0.28495  0.50000  0.21505  Biso   1.000  Cu
  O234     1.0000 0.34440  0.50000  0.15560  Biso   1.000  O
  Cu43     1.0000 0.78495  0.00000  0.21505  Biso   1.000  Cu
  O235     1.0000 0.84440  0.00000  0.15560  Biso   1.000  O
  Cu44     1.0000 0.78495  0.50000  0.71505  Biso   1.000  Cu
  O236     1.0000 0.84440  0.50000  0.65560  Biso   1.000  O
  Cu45     1.0000 0.71505  0.00000  0.28495  Biso   1.000  Cu
  O237     1.0000 0.65560  0.00000  0.34440  Biso   1.000  O
  Cu46     1.0000 0.71505  0.50000  0.78495  Biso   1.000  Cu
  O238     1.0000 0.65560  0.50000  0.84440  Biso   1.000  O
  Cu47     1.0000 0.21505  0.00000  0.78495  Biso   1.000  Cu
  O239     1.0000 0.15560  0.00000  0.84440  Biso   1.000  O
  Cu48     1.0000 0.21505  0.50000  0.28495  Biso   1.000  Cu
  O240     1.0000 0.15560  0.50000  0.34440  Biso   1.000  O
  C1       1.0000 0.17779  0.32221  0.11286  Biso   1.000  C
  C2       1.0000 0.20327  0.29673  0.06887  Biso   1.000  C
  C3       1.0000 0.17779  0.82221  0.61286  Biso   1.000  C
  C4       1.0000 0.20327  0.79673  0.56887  Biso   1.000  C
  C5       1.0000 0.82221  0.67779  0.11286  Biso   1.000  C
  C6       1.0000 0.79673  0.70327  0.06887  Biso   1.000  C
  C7       1.0000 0.82221  0.17779  0.61286  Biso   1.000  C
  C8       1.0000 0.79673  0.20327  0.56887  Biso   1.000  C
  C9       1.0000 0.32221  0.17779  0.11286  Biso   1.000  C
  C10      1.0000 0.29673  0.20327  0.06887  Biso   1.000  C
  C11      1.0000 0.82221  0.32221  0.88714  Biso   1.000  C
  C12      1.0000 0.79673  0.29673  0.93113  Biso   1.000  C
  C13      1.0000 0.82221  0.82221  0.38714  Biso   1.000  C
  C14      1.0000 0.79673  0.79673  0.43113  Biso   1.000  C
  C15      1.0000 0.32221  0.32221  0.38714  Biso   1.000  C
  C16      1.0000 0.29673  0.29673  0.43113  Biso   1.000  C
  C17      1.0000 0.17779  0.67779  0.88714  Biso   1.000  C
  C18      1.0000 0.20327  0.70327  0.93113  Biso   1.000  C
  C19      1.0000 0.17779  0.17779  0.38714  Biso   1.000  C
  C20      1.0000 0.20327  0.20327  0.43113  Biso   1.000  C
  C21      1.0000 0.11286  0.17779  0.32221  Biso   1.000  C
  C22      1.0000 0.06887  0.20327  0.29673  Biso   1.000  C
  C23      1.0000 0.61286  0.17779  0.82221  Biso   1.000  C
  C24      1.0000 0.56887  0.20327  0.79673  Biso   1.000  C
  C25      1.0000 0.11286  0.82221  0.67779  Biso   1.000  C
  C26      1.0000 0.06887  0.79673  0.70327  Biso   1.000  C
  C27      1.0000 0.11286  0.32221  0.17779  Biso   1.000  C
  C28      1.0000 0.06887  0.29673  0.20327  Biso   1.000  C
  C29      1.0000 0.61286  0.82221  0.17779  Biso   1.000  C
  C30      1.0000 0.56887  0.79673  0.20327  Biso   1.000  C
  C31      1.0000 0.88714  0.82221  0.32221  Biso   1.000  C
  C32      1.0000 0.93113  0.79673  0.29673  Biso   1.000  C
  C33      1.0000 0.38714  0.82221  0.82221  Biso   1.000  C
  C34      1.0000 0.43113  0.79673  0.79673  Biso   1.000  C
  C35      1.0000 0.38714  0.32221  0.32221  Biso   1.000  C
  C36      1.0000 0.43113  0.29673  0.29673  Biso   1.000  C
  C37      1.0000 0.88714  0.17779  0.67779  Biso   1.000  C
  C38      1.0000 0.93113  0.20327  0.70327  Biso   1.000  C
  C39      1.0000 0.38714  0.17779  0.17779  Biso   1.000  C
  C40      1.0000 0.43113  0.20327  0.20327  Biso   1.000  C
  C41      1.0000 0.32221  0.11286  0.17779  Biso   1.000  C
  C42      1.0000 0.29673  0.06887  0.20327  Biso   1.000  C
  C43      1.0000 0.32221  0.61286  0.67779  Biso   1.000  C
  C44      1.0000 0.29673  0.56887  0.70327  Biso   1.000  C
  C45      1.0000 0.67779  0.11286  0.82221  Biso   1.000  C
  C46      1.0000 0.70327  0.06887  0.79673  Biso   1.000  C
  C47      1.0000 0.67779  0.61286  0.32221  Biso   1.000  C
  C48      1.0000 0.70327  0.56887  0.29673  Biso   1.000  C
  C49      1.0000 0.17779  0.11286  0.32221  Biso   1.000  C
  C50      1.0000 0.20327  0.06887  0.29673  Biso   1.000  C
  C51      1.0000 0.32221  0.88714  0.82221  Biso   1.000  C
  C52      1.0000 0.29673  0.93113  0.79673  Biso   1.000  C
  C53      1.0000 0.32221  0.38714  0.32221  Biso   1.000  C
  C54      1.0000 0.29673  0.43113  0.29673  Biso   1.000  C
  C55      1.0000 0.67779  0.88714  0.17779  Biso   1.000  C
  C56      1.0000 0.70327  0.93113  0.20327  Biso   1.000  C
  C57      1.0000 0.67779  0.38714  0.67779  Biso   1.000  C
  C58      1.0000 0.70327  0.43113  0.70327  Biso   1.000  C
  C59      1.0000 0.17779  0.38714  0.17779  Biso   1.000  C
  C60      1.0000 0.20327  0.43113  0.20327  Biso   1.000  C
  C61      1.0000 0.32221  0.17779  0.88714  Biso   1.000  C
  C62      1.0000 0.29673  0.20327  0.93113  Biso   1.000  C
  C63      1.0000 0.32221  0.67779  0.38714  Biso   1.000  C
  C64      1.0000 0.29673  0.70327  0.43113  Biso   1.000  C
  C65      1.0000 0.67779  0.82221  0.88714  Biso   1.000  C
  C66      1.0000 0.70327  0.79673  0.93113  Biso   1.000  C
  C67      1.0000 0.67779  0.32221  0.38714  Biso   1.000  C
  C68      1.0000 0.70327  0.29673  0.43113  Biso   1.000  C
  C69      1.0000 0.17779  0.32221  0.88714  Biso   1.000  C
  C70      1.0000 0.20327  0.29673  0.93113  Biso   1.000  C
  C71      1.0000 0.32221  0.82221  0.11286  Biso   1.000  C
  C72      1.0000 0.29673  0.79673  0.06887  Biso   1.000  C
  C73      1.0000 0.32221  0.32221  0.61286  Biso   1.000  C
  C74      1.0000 0.29673  0.29673  0.56887  Biso   1.000  C
  C75      1.0000 0.67779  0.17779  0.11286  Biso   1.000  C
  C76      1.0000 0.70327  0.20327  0.06887  Biso   1.000  C
  C77      1.0000 0.67779  0.67779  0.61286  Biso   1.000  C
  C78      1.0000 0.70327  0.70327  0.56887  Biso   1.000  C
  C79      1.0000 0.17779  0.17779  0.61286  Biso   1.000  C
  C80      1.0000 0.20327  0.20327  0.56887  Biso   1.000  C
  C81      1.0000 0.17779  0.11286  0.67779  Biso   1.000  C
  C82      1.0000 0.20327  0.06887  0.70327  Biso   1.000  C
  C83      1.0000 0.17779  0.61286  0.17779  Biso   1.000  C
  C84      1.0000 0.20327  0.56887  0.20327  Biso   1.000  C
  C85      1.0000 0.82221  0.11286  0.32221  Biso   1.000  C
  C86      1.0000 0.79673  0.06887  0.29673  Biso   1.000  C
  C87      1.0000 0.82221  0.61286  0.82221  Biso   1.000  C
  C88      1.0000 0.79673  0.56887  0.79673  Biso   1.000  C
  C89      1.0000 0.32221  0.61286  0.32221  Biso   1.000  C
  C90      1.0000 0.29673  0.56887  0.29673  Biso   1.000  C
  C91      1.0000 0.82221  0.88714  0.67779  Biso   1.000  C
  C92      1.0000 0.79673  0.93113  0.70327  Biso   1.000  C
  C93      1.0000 0.82221  0.38714  0.17779  Biso   1.000  C
  C94      1.0000 0.79673  0.43113  0.20327  Biso   1.000  C
  C95      1.0000 0.32221  0.88714  0.17779  Biso   1.000  C
  C96      1.0000 0.29673  0.93113  0.20327  Biso   1.000  C
  C97      1.0000 0.17779  0.88714  0.32221  Biso   1.000  C
  C98      1.0000 0.20327  0.93113  0.29673  Biso   1.000  C
  C99      1.0000 0.17779  0.38714  0.82221  Biso   1.000  C
  C100     1.0000 0.20327  0.43113  0.79673  Biso   1.000  C
  C101     1.0000 0.11286  0.32221  0.82221  Biso   1.000  C
  C102     1.0000 0.06887  0.29673  0.79673  Biso   1.000  C
  C103     1.0000 0.61286  0.32221  0.32221  Biso   1.000  C
  C104     1.0000 0.56887  0.29673  0.29673  Biso   1.000  C
  C105     1.0000 0.11286  0.67779  0.17779  Biso   1.000  C
  C106     1.0000 0.06887  0.70327  0.20327  Biso   1.000  C
  C107     1.0000 0.61286  0.67779  0.67779  Biso   1.000  C
  C108     1.0000 0.56887  0.70327  0.70327  Biso   1.000  C
  C109     1.0000 0.61286  0.17779  0.17779  Biso   1.000  C
  C110     1.0000 0.56887  0.20327  0.20327  Biso   1.000  C
  C111     1.0000 0.88714  0.32221  0.17779  Biso   1.000  C
  C112     1.0000 0.93113  0.29673  0.20327  Biso   1.000  C
  C113     1.0000 0.38714  0.32221  0.67779  Biso   1.000  C
  C114     1.0000 0.43113  0.29673  0.70327  Biso   1.000  C
  C115     1.0000 0.88714  0.67779  0.82221  Biso   1.000  C
  C116     1.0000 0.93113  0.70327  0.79673  Biso   1.000  C
  C117     1.0000 0.88714  0.17779  0.32221  Biso   1.000  C
  C118     1.0000 0.93113  0.20327  0.29673  Biso   1.000  C
  C119     1.0000 0.38714  0.67779  0.32221  Biso   1.000  C
  C120     1.0000 0.43113  0.70327  0.29673  Biso   1.000  C
  C121     1.0000 0.82221  0.67779  0.88714  Biso   1.000  C
  C122     1.0000 0.79673  0.70327  0.93113  Biso   1.000  C
  C123     1.0000 0.82221  0.17779  0.38714  Biso   1.000  C
  C124     1.0000 0.79673  0.20327  0.43113  Biso   1.000  C
  C125     1.0000 0.17779  0.82221  0.38714  Biso   1.000  C
  C126     1.0000 0.20327  0.79673  0.43113  Biso   1.000  C
  C127     1.0000 0.17779  0.67779  0.11286  Biso   1.000  C
  C128     1.0000 0.20327  0.70327  0.06887  Biso   1.000  C
  C129     1.0000 0.82221  0.32221  0.11286  Biso   1.000  C
  C130     1.0000 0.79673  0.29673  0.06887  Biso   1.000  C
  C131     1.0000 0.82221  0.82221  0.61286  Biso   1.000  C
  C132     1.0000 0.79673  0.79673  0.56887  Biso   1.000  C
  C133     1.0000 0.88714  0.82221  0.67779  Biso   1.000  C
  C134     1.0000 0.93113  0.79673  0.70327  Biso   1.000  C
  C135     1.0000 0.38714  0.82221  0.17779  Biso   1.000  C
  C136     1.0000 0.43113  0.79673  0.20327  Biso   1.000  C
  C137     1.0000 0.38714  0.17779  0.82221  Biso   1.000  C
  C138     1.0000 0.43113  0.20327  0.79673  Biso   1.000  C
  C139     1.0000 0.11286  0.17779  0.67779  Biso   1.000  C
  C140     1.0000 0.06887  0.20327  0.70327  Biso   1.000  C
  C141     1.0000 0.11286  0.82221  0.32221  Biso   1.000  C
  C142     1.0000 0.06887  0.79673  0.29673  Biso   1.000  C
  C143     1.0000 0.61286  0.82221  0.82221  Biso   1.000  C
  C144     1.0000 0.56887  0.79673  0.79673  Biso   1.000  C
  C145     1.0000 0.67779  0.88714  0.82221  Biso   1.000  C
  C146     1.0000 0.70327  0.93113  0.79673  Biso   1.000  C
  C147     1.0000 0.67779  0.38714  0.32221  Biso   1.000  C
  C148     1.0000 0.70327  0.43113  0.29673  Biso   1.000  C
  C149     1.0000 0.32221  0.38714  0.67779  Biso   1.000  C
  C150     1.0000 0.29673  0.43113  0.70327  Biso   1.000  C
  C151     1.0000 0.67779  0.11286  0.17779  Biso   1.000  C
  C152     1.0000 0.70327  0.06887  0.20327  Biso   1.000  C
  C153     1.0000 0.67779  0.61286  0.67779  Biso   1.000  C
  C154     1.0000 0.70327  0.56887  0.70327  Biso   1.000  C
  C155     1.0000 0.32221  0.11286  0.82221  Biso   1.000  C
  C156     1.0000 0.29673  0.06887  0.79673  Biso   1.000  C
  C157     1.0000 0.67779  0.82221  0.11286  Biso   1.000  C
  C158     1.0000 0.70327  0.79673  0.06887  Biso   1.000  C
  C159     1.0000 0.67779  0.32221  0.61286  Biso   1.000  C
  C160     1.0000 0.70327  0.29673  0.56887  Biso   1.000  C
  C161     1.0000 0.32221  0.67779  0.61286  Biso   1.000  C
  C162     1.0000 0.29673  0.70327  0.56887  Biso   1.000  C
  C163     1.0000 0.67779  0.17779  0.88714  Biso   1.000  C
  C164     1.0000 0.70327  0.20327  0.93113  Biso   1.000  C
  C165     1.0000 0.67779  0.67779  0.38714  Biso   1.000  C
  C166     1.0000 0.70327  0.70327  0.43113  Biso   1.000  C
  C167     1.0000 0.32221  0.82221  0.88714  Biso   1.000  C
  C168     1.0000 0.29673  0.79673  0.93113  Biso   1.000  C
  C169     1.0000 0.82221  0.88714  0.32221  Biso   1.000  C
  C170     1.0000 0.79673  0.93113  0.29673  Biso   1.000  C
  C171     1.0000 0.82221  0.38714  0.82221  Biso   1.000  C
  C172     1.0000 0.79673  0.43113  0.79673  Biso   1.000  C
  C173     1.0000 0.17779  0.88714  0.67779  Biso   1.000  C
  C174     1.0000 0.20327  0.93113  0.70327  Biso   1.000  C
  C175     1.0000 0.17779  0.61286  0.82221  Biso   1.000  C
  C176     1.0000 0.20327  0.56887  0.79673  Biso   1.000  C
  C177     1.0000 0.82221  0.11286  0.67779  Biso   1.000  C
  C178     1.0000 0.79673  0.06887  0.70327  Biso   1.000  C
  C179     1.0000 0.82221  0.61286  0.17779  Biso   1.000  C
  C180     1.0000 0.79673  0.56887  0.20327  Biso   1.000  C
  C181     1.0000 0.88714  0.67779  0.17779  Biso   1.000  C
  C182     1.0000 0.93113  0.70327  0.20327  Biso   1.000  C
  C183     1.0000 0.38714  0.67779  0.67779  Biso   1.000  C
  C184     1.0000 0.43113  0.70327  0.70327  Biso   1.000  C
  C185     1.0000 0.88714  0.32221  0.82221  Biso   1.000  C
  C186     1.0000 0.93113  0.29673  0.79673  Biso   1.000  C
  C187     1.0000 0.11286  0.67779  0.82221  Biso   1.000  C
  C188     1.0000 0.06887  0.70327  0.79673  Biso   1.000  C
  C189     1.0000 0.61286  0.67779  0.32221  Biso   1.000  C
  C190     1.0000 0.56887  0.70327  0.29673  Biso   1.000  C
  C191     1.0000 0.61286  0.32221  0.67779  Biso   1.000  C
  C192     1.0000 0.56887  0.29673  0.70327  Biso   1.000  C
  C193     1.0000 0.13441  0.30095  0.13441  Biso   1.000  C
  H1       1.0000 0.11970  0.27240  0.11970  Biso   1.000  H
  C194     1.0000 0.13441  0.80095  0.63441  Biso   1.000  C
  H2       1.0000 0.11970  0.77240  0.61970  Biso   1.000  H
  C195     1.0000 0.63441  0.30095  0.63441  Biso   1.000  C
  H3       1.0000 0.61970  0.27240  0.61970  Biso   1.000  H
  C196     1.0000 0.63441  0.80095  0.13441  Biso   1.000  C
  H4       1.0000 0.61970  0.77240  0.11970  Biso   1.000  H
  C197     1.0000 0.86559  0.69905  0.13441  Biso   1.000  C
  H5       1.0000 0.88030  0.72760  0.11970  Biso   1.000  H
  C198     1.0000 0.86559  0.19905  0.63441  Biso   1.000  C
  H6       1.0000 0.88030  0.22760  0.61970  Biso   1.000  H
  C199     1.0000 0.36559  0.69905  0.63441  Biso   1.000  C
  H7       1.0000 0.38030  0.72760  0.61970  Biso   1.000  H
  C200     1.0000 0.36559  0.19905  0.13441  Biso   1.000  C
  H8       1.0000 0.38030  0.22760  0.11970  Biso   1.000  H
  C201     1.0000 0.86559  0.30095  0.86559  Biso   1.000  C
  H9       1.0000 0.88030  0.27240  0.88030  Biso   1.000  H
  C202     1.0000 0.86559  0.80095  0.36559  Biso   1.000  C
  H10      1.0000 0.88030  0.77240  0.38030  Biso   1.000  H
  C203     1.0000 0.36559  0.30095  0.36559  Biso   1.000  C
  H11      1.0000 0.38030  0.27240  0.38030  Biso   1.000  H
  C204     1.0000 0.36559  0.80095  0.86559  Biso   1.000  C
  H12      1.0000 0.38030  0.77240  0.88030  Biso   1.000  H
  C205     1.0000 0.13441  0.69905  0.86559  Biso   1.000  C
  H13      1.0000 0.11970  0.72760  0.88030  Biso   1.000  H
  C206     1.0000 0.13441  0.19905  0.36559  Biso   1.000  C
  H14      1.0000 0.11970  0.22760  0.38030  Biso   1.000  H
  C207     1.0000 0.63441  0.69905  0.36559  Biso   1.000  C
  H15      1.0000 0.61970  0.72760  0.38030  Biso   1.000  H
  C208     1.0000 0.63441  0.19905  0.86559  Biso   1.000  C
  H16      1.0000 0.61970  0.22760  0.88030  Biso   1.000  H
  C209     1.0000 0.13441  0.13441  0.30095  Biso   1.000  C
  H17      1.0000 0.11970  0.11970  0.27240  Biso   1.000  H
  C210     1.0000 0.13441  0.63441  0.80095  Biso   1.000  C
  H18      1.0000 0.11970  0.61970  0.77240  Biso   1.000  H
  C211     1.0000 0.63441  0.13441  0.80095  Biso   1.000  C
  H19      1.0000 0.61970  0.11970  0.77240  Biso   1.000  H
  C212     1.0000 0.63441  0.63441  0.30095  Biso   1.000  C
  H20      1.0000 0.61970  0.61970  0.27240  Biso   1.000  H
  C213     1.0000 0.13441  0.86559  0.69905  Biso   1.000  C
  H21      1.0000 0.11970  0.88030  0.72760  Biso   1.000  H
  C214     1.0000 0.13441  0.36559  0.19905  Biso   1.000  C
  H22      1.0000 0.11970  0.38030  0.22760  Biso   1.000  H
  C215     1.0000 0.63441  0.86559  0.19905  Biso   1.000  C
  H23      1.0000 0.61970  0.88030  0.22760  Biso   1.000  H
  C216     1.0000 0.63441  0.36559  0.69905  Biso   1.000  C
  H24      1.0000 0.61970  0.38030  0.72760  Biso   1.000  H
  C217     1.0000 0.86559  0.86559  0.30095  Biso   1.000  C
  H25      1.0000 0.88030  0.88030  0.27240  Biso   1.000  H
  C218     1.0000 0.86559  0.36559  0.80095  Biso   1.000  C
  H26      1.0000 0.88030  0.38030  0.77240  Biso   1.000  H
  C219     1.0000 0.36559  0.86559  0.80095  Biso   1.000  C
  H27      1.0000 0.38030  0.88030  0.77240  Biso   1.000  H
  C220     1.0000 0.36559  0.36559  0.30095  Biso   1.000  C
  H28      1.0000 0.38030  0.38030  0.27240  Biso   1.000  H
  C221     1.0000 0.86559  0.13441  0.69905  Biso   1.000  C
  H29      1.0000 0.88030  0.11970  0.72760  Biso   1.000  H
  C222     1.0000 0.86559  0.63441  0.19905  Biso   1.000  C
  H30      1.0000 0.88030  0.61970  0.22760  Biso   1.000  H
  C223     1.0000 0.36559  0.13441  0.19905  Biso   1.000  C
  H31      1.0000 0.38030  0.11970  0.22760  Biso   1.000  H
  C224     1.0000 0.36559  0.63441  0.69905  Biso   1.000  C
  H32      1.0000 0.38030  0.61970  0.72760  Biso   1.000  H
  C225     1.0000 0.30095  0.13441  0.13441  Biso   1.000  C
  H33      1.0000 0.27240  0.11970  0.11970  Biso   1.000  H
  C226     1.0000 0.30095  0.63441  0.63441  Biso   1.000  C
  H34      1.0000 0.27240  0.61970  0.61970  Biso   1.000  H
  C227     1.0000 0.80095  0.13441  0.63441  Biso   1.000  C
  H35      1.0000 0.77240  0.11970  0.61970  Biso   1.000  H
  C228     1.0000 0.80095  0.63441  0.13441  Biso   1.000  C
  H36      1.0000 0.77240  0.61970  0.11970  Biso   1.000  H
  C229     1.0000 0.69905  0.13441  0.86559  Biso   1.000  C
  H37      1.0000 0.72760  0.11970  0.88030  Biso   1.000  H
  C230     1.0000 0.69905  0.63441  0.36559  Biso   1.000  C
  H38      1.0000 0.72760  0.61970  0.38030  Biso   1.000  H
  C231     1.0000 0.19905  0.13441  0.36559  Biso   1.000  C
  H39      1.0000 0.22760  0.11970  0.38030  Biso   1.000  H
  C232     1.0000 0.19905  0.63441  0.86559  Biso   1.000  C
  H40      1.0000 0.22760  0.61970  0.88030  Biso   1.000  H
  C233     1.0000 0.30095  0.86559  0.86559  Biso   1.000  C
  H41      1.0000 0.27240  0.88030  0.88030  Biso   1.000  H
  C234     1.0000 0.30095  0.36559  0.36559  Biso   1.000  C
  H42      1.0000 0.27240  0.38030  0.38030  Biso   1.000  H
  C235     1.0000 0.80095  0.86559  0.36559  Biso   1.000  C
  H43      1.0000 0.77240  0.88030  0.38030  Biso   1.000  H
  C236     1.0000 0.80095  0.36559  0.86559  Biso   1.000  C
  H44      1.0000 0.77240  0.38030  0.88030  Biso   1.000  H
  C237     1.0000 0.69905  0.86559  0.13441  Biso   1.000  C
  H45      1.0000 0.72760  0.88030  0.11970  Biso   1.000  H
  C238     1.0000 0.69905  0.36559  0.63441  Biso   1.000  C
  H46      1.0000 0.72760  0.38030  0.61970  Biso   1.000  H
  C239     1.0000 0.19905  0.86559  0.63441  Biso   1.000  C
  H47      1.0000 0.22760  0.88030  0.61970  Biso   1.000  H
  C240     1.0000 0.19905  0.36559  0.13441  Biso   1.000  C
  H48      1.0000 0.22760  0.38030  0.11970  Biso   1.000  H
  C241     1.0000 0.30095  0.13441  0.86559  Biso   1.000  C
  H49      1.0000 0.27240  0.11970  0.88030  Biso   1.000  H
  C242     1.0000 0.30095  0.63441  0.36559  Biso   1.000  C
  H50      1.0000 0.27240  0.61970  0.38030  Biso   1.000  H
  C243     1.0000 0.80095  0.13441  0.36559  Biso   1.000  C
  H51      1.0000 0.77240  0.11970  0.38030  Biso   1.000  H
  C244     1.0000 0.80095  0.63441  0.86559  Biso   1.000  C
  H52      1.0000 0.77240  0.61970  0.88030  Biso   1.000  H
  C245     1.0000 0.69905  0.86559  0.86559  Biso   1.000  C
  H53      1.0000 0.72760  0.88030  0.88030  Biso   1.000  H
  C246     1.0000 0.69905  0.36559  0.36559  Biso   1.000  C
  H54      1.0000 0.72760  0.38030  0.38030  Biso   1.000  H
  C247     1.0000 0.19905  0.86559  0.36559  Biso   1.000  C
  H55      1.0000 0.22760  0.88030  0.38030  Biso   1.000  H
  C248     1.0000 0.19905  0.36559  0.86559  Biso   1.000  C
  H56      1.0000 0.22760  0.38030  0.88030  Biso   1.000  H
  C249     1.0000 0.30095  0.86559  0.13441  Biso   1.000  C
  H57      1.0000 0.27240  0.88030  0.11970  Biso   1.000  H
  C250     1.0000 0.30095  0.36559  0.63441  Biso   1.000  C
  H58      1.0000 0.27240  0.38030  0.61970  Biso   1.000  H
  C251     1.0000 0.80095  0.86559  0.63441  Biso   1.000  C
  H59      1.0000 0.77240  0.88030  0.61970  Biso   1.000  H
  C252     1.0000 0.80095  0.36559  0.13441  Biso   1.000  C
  H60      1.0000 0.77240  0.38030  0.11970  Biso   1.000  H
  C253     1.0000 0.69905  0.13441  0.13441  Biso   1.000  C
  H61      1.0000 0.72760  0.11970  0.11970  Biso   1.000  H
  C254     1.0000 0.69905  0.63441  0.63441  Biso   1.000  C
  H62      1.0000 0.72760  0.61970  0.61970  Biso   1.000  H
  C255     1.0000 0.19905  0.13441  0.63441  Biso   1.000  C
  H63      1.0000 0.22760  0.11970  0.61970  Biso   1.000  H
  C256     1.0000 0.19905  0.63441  0.13441  Biso   1.000  C
  H64      1.0000 0.22760  0.61970  0.11970  Biso   1.000  H
  C257     1.0000 0.13441  0.13441  0.69905  Biso   1.000  C
  H65      1.0000 0.11970  0.11970  0.72760  Biso   1.000  H
  C258     1.0000 0.13441  0.63441  0.19905  Biso   1.000  C
  H66      1.0000 0.11970  0.61970  0.22760  Biso   1.000  H
  C259     1.0000 0.63441  0.13441  0.19905  Biso   1.000  C
  H67      1.0000 0.61970  0.11970  0.22760  Biso   1.000  H
  C260     1.0000 0.63441  0.63441  0.69905  Biso   1.000  C
  H68      1.0000 0.61970  0.61970  0.72760  Biso   1.000  H
  C261     1.0000 0.86559  0.13441  0.30095  Biso   1.000  C
  H69      1.0000 0.88030  0.11970  0.27240  Biso   1.000  H
  C262     1.0000 0.86559  0.63441  0.80095  Biso   1.000  C
  H70      1.0000 0.88030  0.61970  0.77240  Biso   1.000  H
  C263     1.0000 0.36559  0.13441  0.80095  Biso   1.000  C
  H71      1.0000 0.38030  0.11970  0.77240  Biso   1.000  H
  C264     1.0000 0.36559  0.63441  0.30095  Biso   1.000  C
  H72      1.0000 0.38030  0.61970  0.27240  Biso   1.000  H
  C265     1.0000 0.86559  0.86559  0.69905  Biso   1.000  C
  H73      1.0000 0.88030  0.88030  0.72760  Biso   1.000  H
  C266     1.0000 0.86559  0.36559  0.19905  Biso   1.000  C
  H74      1.0000 0.88030  0.38030  0.22760  Biso   1.000  H
  C267     1.0000 0.36559  0.86559  0.19905  Biso   1.000  C
  H75      1.0000 0.38030  0.88030  0.22760  Biso   1.000  H
  C268     1.0000 0.36559  0.36559  0.69905  Biso   1.000  C
  H76      1.0000 0.38030  0.38030  0.72760  Biso   1.000  H
  C269     1.0000 0.13441  0.86559  0.30095  Biso   1.000  C
  H77      1.0000 0.11970  0.88030  0.27240  Biso   1.000  H
  C270     1.0000 0.13441  0.36559  0.80095  Biso   1.000  C
  H78      1.0000 0.11970  0.38030  0.77240  Biso   1.000  H
  C271     1.0000 0.63441  0.86559  0.80095  Biso   1.000  C
  H79      1.0000 0.61970  0.88030  0.77240  Biso   1.000  H
  C272     1.0000 0.63441  0.36559  0.30095  Biso   1.000  C
  H80      1.0000 0.61970  0.38030  0.27240  Biso   1.000  H
  C273     1.0000 0.13441  0.30095  0.86559  Biso   1.000  C
  H81      1.0000 0.11970  0.27240  0.88030  Biso   1.000  H
  C274     1.0000 0.13441  0.80095  0.36559  Biso   1.000  C
  H82      1.0000 0.11970  0.77240  0.38030  Biso   1.000  H
  C275     1.0000 0.63441  0.30095  0.36559  Biso   1.000  C
  H83      1.0000 0.61970  0.27240  0.38030  Biso   1.000  H
  C276     1.0000 0.63441  0.80095  0.86559  Biso   1.000  C
  H84      1.0000 0.61970  0.77240  0.88030  Biso   1.000  H
  C277     1.0000 0.13441  0.69905  0.13441  Biso   1.000  C
  H85      1.0000 0.11970  0.72760  0.11970  Biso   1.000  H
  C278     1.0000 0.13441  0.19905  0.63441  Biso   1.000  C
  H86      1.0000 0.11970  0.22760  0.61970  Biso   1.000  H
  C279     1.0000 0.63441  0.69905  0.63441  Biso   1.000  C
  H87      1.0000 0.61970  0.72760  0.61970  Biso   1.000  H
  C280     1.0000 0.63441  0.19905  0.13441  Biso   1.000  C
  H88      1.0000 0.61970  0.22760  0.11970  Biso   1.000  H
  C281     1.0000 0.86559  0.30095  0.13441  Biso   1.000  C
  H89      1.0000 0.88030  0.27240  0.11970  Biso   1.000  H
  C282     1.0000 0.86559  0.80095  0.63441  Biso   1.000  C
  H90      1.0000 0.88030  0.77240  0.61970  Biso   1.000  H
  C283     1.0000 0.36559  0.30095  0.63441  Biso   1.000  C
  H91      1.0000 0.38030  0.27240  0.61970  Biso   1.000  H
  C284     1.0000 0.36559  0.80095  0.13441  Biso   1.000  C
  H92      1.0000 0.38030  0.77240  0.11970  Biso   1.000  H
  C285     1.0000 0.86559  0.69905  0.86559  Biso   1.000  C
  H93      1.0000 0.88030  0.72760  0.88030  Biso   1.000  H
  C286     1.0000 0.86559  0.19905  0.36559  Biso   1.000  C
  H94      1.0000 0.88030  0.22760  0.38030  Biso   1.000  H
  C287     1.0000 0.36559  0.69905  0.36559  Biso   1.000  C
  H95      1.0000 0.38030  0.72760  0.38030  Biso   1.000  H
  C288     1.0000 0.36559  0.19905  0.86559  Biso   1.000  C
  H96      1.0000 0.38030  0.22760  0.88030  Biso   1.000  H
  C289     1.0000 0.39980  0.35080  0.00000  Biso   1.000  C
  C290     1.0000 0.43100  0.39900  0.00000  Biso   1.000  C
  C291     1.0000 0.42370  0.29900  0.00000  Biso   1.000  C
  C292     1.0000 0.39980  0.85080  0.50000  Biso   1.000  C
  C293     1.0000 0.43100  0.89900  0.50000  Biso   1.000  C
  C294     1.0000 0.42370  0.79900  0.50000  Biso   1.000  C
  C295     1.0000 0.89980  0.35080  0.50000  Biso   1.000  C
  C296     1.0000 0.93100  0.39900  0.50000  Biso   1.000  C
  C297     1.0000 0.92370  0.29900  0.50000  Biso   1.000  C
  C298     1.0000 0.89980  0.85080  0.00000  Biso   1.000  C
  C299     1.0000 0.93100  0.89900  0.00000  Biso   1.000  C
  C300     1.0000 0.92370  0.79900  0.00000  Biso   1.000  C
  C301     1.0000 0.60020  0.64920  0.00000  Biso   1.000  C
  C302     1.0000 0.56900  0.60100  0.00000  Biso   1.000  C
  C303     1.0000 0.57630  0.70100  0.00000  Biso   1.000  C
  C304     1.0000 0.60020  0.14920  0.50000  Biso   1.000  C
  C305     1.0000 0.56900  0.10100  0.50000  Biso   1.000  C
  C306     1.0000 0.57630  0.20100  0.50000  Biso   1.000  C
  C307     1.0000 0.10020  0.64920  0.50000  Biso   1.000  C
  C308     1.0000 0.06900  0.60100  0.50000  Biso   1.000  C
  C309     1.0000 0.07630  0.70100  0.50000  Biso   1.000  C
  C310     1.0000 0.10020  0.14920  0.00000  Biso   1.000  C
  C311     1.0000 0.06900  0.10100  0.00000  Biso   1.000  C
  C312     1.0000 0.07630  0.20100  0.00000  Biso   1.000  C
  C313     1.0000 0.60020  0.35080  0.00000  Biso   1.000  C
  C314     1.0000 0.56900  0.39900  0.00000  Biso   1.000  C
  C315     1.0000 0.57630  0.29900  0.00000  Biso   1.000  C
  C316     1.0000 0.60020  0.85080  0.50000  Biso   1.000  C
  C317     1.0000 0.56900  0.89900  0.50000  Biso   1.000  C
  C318     1.0000 0.57630  0.79900  0.50000  Biso   1.000  C
  C319     1.0000 0.10020  0.35080  0.50000  Biso   1.000  C
  C320     1.0000 0.06900  0.39900  0.50000  Biso   1.000  C
  C321     1.0000 0.07630  0.29900  0.50000  Biso   1.000  C
  C322     1.0000 0.10020  0.85080  0.00000  Biso   1.000  C
  C323     1.0000 0.06900  0.89900  0.00000  Biso   1.000  C
  C324     1.0000 0.07630  0.79900  0.00000  Biso   1.000  C
  C325     1.0000 0.39980  0.64920  0.00000  Biso   1.000  C
  C326     1.0000 0.43100  0.60100  0.00000  Biso   1.000  C
  C327     1.0000 0.42370  0.70100  0.00000  Biso   1.000  C
  C328     1.0000 0.39980  0.14920  0.50000  Biso   1.000  C
  C329     1.0000 0.43100  0.10100  0.50000  Biso   1.000  C
  C330     1.0000 0.42370  0.20100  0.50000  Biso   1.000  C
  C331     1.0000 0.89980  0.64920  0.50000  Biso   1.000  C
  C332     1.0000 0.93100  0.60100  0.50000  Biso   1.000  C
  C333     1.0000 0.92370  0.70100  0.50000  Biso   1.000  C
  C334     1.0000 0.89980  0.14920  0.00000  Biso   1.000  C
  C335     1.0000 0.93100  0.10100  0.00000  Biso   1.000  C
  C336     1.0000 0.92370  0.20100  0.00000  Biso   1.000  C
  C337     1.0000 0.00000  0.39980  0.35080  Biso   1.000  C
  C338     1.0000 0.00000  0.43100  0.39900  Biso   1.000  C
  C339     1.0000 0.00000  0.42370  0.29900  Biso   1.000  C
  C340     1.0000 0.00000  0.89980  0.85080  Biso   1.000  C
  C341     1.0000 0.00000  0.93100  0.89900  Biso   1.000  C
  C342     1.0000 0.00000  0.92370  0.79900  Biso   1.000  C
  C343     1.0000 0.50000  0.39980  0.85080  Biso   1.000  C
  C344     1.0000 0.50000  0.43100  0.89900  Biso   1.000  C
  C345     1.0000 0.50000  0.42370  0.79900  Biso   1.000  C
  C346     1.0000 0.50000  0.89980  0.35080  Biso   1.000  C
  C347     1.0000 0.50000  0.93100  0.39900  Biso   1.000  C
  C348     1.0000 0.50000  0.92370  0.29900  Biso   1.000  C
  C349     1.0000 0.00000  0.60020  0.64920  Biso   1.000  C
  C350     1.0000 0.00000  0.56900  0.60100  Biso   1.000  C
  C351     1.0000 0.00000  0.57630  0.70100  Biso   1.000  C
  C352     1.0000 0.00000  0.10020  0.14920  Biso   1.000  C
  C353     1.0000 0.00000  0.06900  0.10100  Biso   1.000  C
  C354     1.0000 0.00000  0.07630  0.20100  Biso   1.000  C
  C355     1.0000 0.50000  0.60020  0.14920  Biso   1.000  C
  C356     1.0000 0.50000  0.56900  0.10100  Biso   1.000  C
  C357     1.0000 0.50000  0.57630  0.20100  Biso   1.000  C
  C358     1.0000 0.50000  0.10020  0.64920  Biso   1.000  C
  C359     1.0000 0.50000  0.06900  0.60100  Biso   1.000  C
  C360     1.0000 0.50000  0.07630  0.70100  Biso   1.000  C
  C361     1.0000 0.00000  0.60020  0.35080  Biso   1.000  C
  C362     1.0000 0.00000  0.56900  0.39900  Biso   1.000  C
  C363     1.0000 0.00000  0.57630  0.29900  Biso   1.000  C
  C364     1.0000 0.00000  0.10020  0.85080  Biso   1.000  C
  C365     1.0000 0.00000  0.06900  0.89900  Biso   1.000  C
  C366     1.0000 0.00000  0.07630  0.79900  Biso   1.000  C
  C367     1.0000 0.50000  0.60020  0.85080  Biso   1.000  C
  C368     1.0000 0.50000  0.56900  0.89900  Biso   1.000  C
  C369     1.0000 0.50000  0.57630  0.79900  Biso   1.000  C
  C370     1.0000 0.50000  0.10020  0.35080  Biso   1.000  C
  C371     1.0000 0.50000  0.06900  0.39900  Biso   1.000  C
  C372     1.0000 0.50000  0.07630  0.29900  Biso   1.000  C
  C373     1.0000 0.00000  0.39980  0.64920  Biso   1.000  C
  C374     1.0000 0.00000  0.43100  0.60100  Biso   1.000  C
  C375     1.0000 0.00000  0.42370  0.70100  Biso   1.000  C
  C376     1.0000 0.00000  0.89980  0.14920  Biso   1.000  C
  C377     1.0000 0.00000  0.93100  0.10100  Biso   1.000  C
  C378     1.0000 0.00000  0.92370  0.20100  Biso   1.000  C
  C379     1.0000 0.50000  0.39980  0.14920  Biso   1.000  C
  C380     1.0000 0.50000  0.43100  0.10100  Biso   1.000  C
  C381     1.0000 0.50000  0.42370  0.20100  Biso   1.000  C
  C382     1.0000 0.50000  0.89980  0.64920  Biso   1.000  C
  C383     1.0000 0.50000  0.93100  0.60100  Biso   1.000  C
  C384     1.0000 0.50000  0.92370  0.70100  Biso   1.000  C
  C385     1.0000 0.35080  0.00000  0.39980  Biso   1.000  C
  C386     1.0000 0.39900  0.00000  0.43100  Biso   1.000  C
  C387     1.0000 0.29900  0.00000  0.42370  Biso   1.000  C
  C388     1.0000 0.35080  0.50000  0.89980  Biso   1.000  C
  C389     1.0000 0.39900  0.50000  0.93100  Biso   1.000  C
  C390     1.0000 0.29900  0.50000  0.92370  Biso   1.000  C
  C391     1.0000 0.85080  0.00000  0.89980  Biso   1.000  C
  C392     1.0000 0.89900  0.00000  0.93100  Biso   1.000  C
  C393     1.0000 0.79900  0.00000  0.92370  Biso   1.000  C
  C394     1.0000 0.85080  0.50000  0.39980  Biso   1.000  C
  C395     1.0000 0.89900  0.50000  0.43100  Biso   1.000  C
  C396     1.0000 0.79900  0.50000  0.42370  Biso   1.000  C
  C397     1.0000 0.64920  0.00000  0.60020  Biso   1.000  C
  C398     1.0000 0.60100  0.00000  0.56900  Biso   1.000  C
  C399     1.0000 0.70100  0.00000  0.57630  Biso   1.000  C
  C400     1.0000 0.64920  0.50000  0.10020  Biso   1.000  C
  C401     1.0000 0.60100  0.50000  0.06900  Biso   1.000  C
  C402     1.0000 0.70100  0.50000  0.07630  Biso   1.000  C
  C403     1.0000 0.14920  0.00000  0.10020  Biso   1.000  C
  C404     1.0000 0.10100  0.00000  0.06900  Biso   1.000  C
  C405     1.0000 0.20100  0.00000  0.07630  Biso   1.000  C
  C406     1.0000 0.14920  0.50000  0.60020  Biso   1.000  C
  C407     1.0000 0.10100  0.50000  0.56900  Biso   1.000  C
  C408     1.0000 0.20100  0.50000  0.57630  Biso   1.000  C
  C409     1.0000 0.35080  0.00000  0.60020  Biso   1.000  C
  C410     1.0000 0.39900  0.00000  0.56900  Biso   1.000  C
  C411     1.0000 0.29900  0.00000  0.57630  Biso   1.000  C
  C412     1.0000 0.35080  0.50000  0.10020  Biso   1.000  C
  C413     1.0000 0.39900  0.50000  0.06900  Biso   1.000  C
  C414     1.0000 0.29900  0.50000  0.07630  Biso   1.000  C
  C415     1.0000 0.85080  0.00000  0.10020  Biso   1.000  C
  C416     1.0000 0.89900  0.00000  0.06900  Biso   1.000  C
  C417     1.0000 0.79900  0.00000  0.07630  Biso   1.000  C
  C418     1.0000 0.85080  0.50000  0.60020  Biso   1.000  C
  C419     1.0000 0.89900  0.50000  0.56900  Biso   1.000  C
  C420     1.0000 0.79900  0.50000  0.57630  Biso   1.000  C
  C421     1.0000 0.64920  0.00000  0.39980  Biso   1.000  C
  C422     1.0000 0.60100  0.00000  0.43100  Biso   1.000  C
  C423     1.0000 0.70100  0.00000  0.42370  Biso   1.000  C
  C424     1.0000 0.64920  0.50000  0.89980  Biso   1.000  C
  C425     1.0000 0.60100  0.50000  0.93100  Biso   1.000  C
  C426     1.0000 0.70100  0.50000  0.92370  Biso   1.000  C
  C427     1.0000 0.14920  0.00000  0.89980  Biso   1.000  C
  C428     1.0000 0.10100  0.00000  0.93100  Biso   1.000  C
  C429     1.0000 0.20100  0.00000  0.92370  Biso   1.000  C
  C430     1.0000 0.14920  0.50000  0.39980  Biso   1.000  C
  C431     1.0000 0.10100  0.50000  0.43100  Biso   1.000  C
  C432     1.0000 0.20100  0.50000  0.42370  Biso   1.000  C
  C433     1.0000 0.35080  0.39980  0.00000  Biso   1.000  C
  C434     1.0000 0.39900  0.43100  0.00000  Biso   1.000  C
  C435     1.0000 0.29900  0.42370  0.00000  Biso   1.000  C
  C436     1.0000 0.35080  0.89980  0.50000  Biso   1.000  C
  C437     1.0000 0.39900  0.93100  0.50000  Biso   1.000  C
  C438     1.0000 0.29900  0.92370  0.50000  Biso   1.000  C
  C439     1.0000 0.85080  0.39980  0.50000  Biso   1.000  C
  C440     1.0000 0.89900  0.43100  0.50000  Biso   1.000  C
  C441     1.0000 0.79900  0.42370  0.50000  Biso   1.000  C
  C442     1.0000 0.85080  0.89980  0.00000  Biso   1.000  C
  C443     1.0000 0.89900  0.93100  0.00000  Biso   1.000  C
  C444     1.0000 0.79900  0.92370  0.00000  Biso   1.000  C
  C445     1.0000 0.64920  0.60020  0.00000  Biso   1.000  C
  C446     1.0000 0.60100  0.56900  0.00000  Biso   1.000  C
  C447     1.0000 0.70100  0.57630  0.00000  Biso   1.000  C
  C448     1.0000 0.64920  0.10020  0.50000  Biso   1.000  C
  C449     1.0000 0.60100  0.06900  0.50000  Biso   1.000  C
  C450     1.0000 0.70100  0.07630  0.50000  Biso   1.000  C
  C451     1.0000 0.14920  0.60020  0.50000  Biso   1.000  C
  C452     1.0000 0.10100  0.56900  0.50000  Biso   1.000  C
  C453     1.0000 0.20100  0.57630  0.50000  Biso   1.000  C
  C454     1.0000 0.14920  0.10020  0.00000  Biso   1.000  C
  C455     1.0000 0.10100  0.06900  0.00000  Biso   1.000  C
  C456     1.0000 0.20100  0.07630  0.00000  Biso   1.000  C
  C457     1.0000 0.35080  0.60020  0.00000  Biso   1.000  C
  C458     1.0000 0.39900  0.56900  0.00000  Biso   1.000  C
  C459     1.0000 0.29900  0.57630  0.00000  Biso   1.000  C
  C460     1.0000 0.35080  0.10020  0.50000  Biso   1.000  C
  C461     1.0000 0.39900  0.06900  0.50000  Biso   1.000  C
  C462     1.0000 0.29900  0.07630  0.50000  Biso   1.000  C
  C463     1.0000 0.85080  0.60020  0.50000  Biso   1.000  C
  C464     1.0000 0.89900  0.56900  0.50000  Biso   1.000  C
  C465     1.0000 0.79900  0.57630  0.50000  Biso   1.000  C
  C466     1.0000 0.85080  0.10020  0.00000  Biso   1.000  C
  C467     1.0000 0.89900  0.06900  0.00000  Biso   1.000  C
  C468     1.0000 0.79900  0.07630  0.00000  Biso   1.000  C
  C469     1.0000 0.64920  0.39980  0.00000  Biso   1.000  C
  C470     1.0000 0.60100  0.43100  0.00000  Biso   1.000  C
  C471     1.0000 0.70100  0.42370  0.00000  Biso   1.000  C
  C472     1.0000 0.64920  0.89980  0.50000  Biso   1.000  C
  C473     1.0000 0.60100  0.93100  0.50000  Biso   1.000  C
  C474     1.0000 0.70100  0.92370  0.50000  Biso   1.000  C
  C475     1.0000 0.14920  0.39980  0.50000  Biso   1.000  C
  C476     1.0000 0.10100  0.43100  0.50000  Biso   1.000  C
  C477     1.0000 0.20100  0.42370  0.50000  Biso   1.000  C
  C478     1.0000 0.14920  0.89980  0.00000  Biso   1.000  C
  C479     1.0000 0.10100  0.93100  0.00000  Biso   1.000  C
  C480     1.0000 0.20100  0.92370  0.00000  Biso   1.000  C
  C481     1.0000 0.39980  0.00000  0.64920  Biso   1.000  C
  C482     1.0000 0.43100  0.00000  0.60100  Biso   1.000  C
  C483     1.0000 0.42370  0.00000  0.70100  Biso   1.000  C
  C484     1.0000 0.39980  0.50000  0.14920  Biso   1.000  C
  C485     1.0000 0.43100  0.50000  0.10100  Biso   1.000  C
  C486     1.0000 0.42370  0.50000  0.20100  Biso   1.000  C
  C487     1.0000 0.89980  0.00000  0.14920  Biso   1.000  C
  C488     1.0000 0.93100  0.00000  0.10100  Biso   1.000  C
  C489     1.0000 0.92370  0.00000  0.20100  Biso   1.000  C
  C490     1.0000 0.89980  0.50000  0.64920  Biso   1.000  C
  C491     1.0000 0.93100  0.50000  0.60100  Biso   1.000  C
  C492     1.0000 0.92370  0.50000  0.70100  Biso   1.000  C
  C493     1.0000 0.60020  0.00000  0.35080  Biso   1.000  C
  C494     1.0000 0.56900  0.00000  0.39900  Biso   1.000  C
  C495     1.0000 0.57630  0.00000  0.29900  Biso   1.000  C
  C496     1.0000 0.60020  0.50000  0.85080  Biso   1.000  C
  C497     1.0000 0.56900  0.50000  0.89900  Biso   1.000  C
  C498     1.0000 0.57630  0.50000  0.79900  Biso   1.000  C
  C499     1.0000 0.10020  0.00000  0.85080  Biso   1.000  C
  C500     1.0000 0.06900  0.00000  0.89900  Biso   1.000  C
  C501     1.0000 0.07630  0.00000  0.79900  Biso   1.000  C
  C502     1.0000 0.10020  0.50000  0.35080  Biso   1.000  C
  C503     1.0000 0.06900  0.50000  0.39900  Biso   1.000  C
  C504     1.0000 0.07630  0.50000  0.29900  Biso   1.000  C
  C505     1.0000 0.60020  0.00000  0.64920  Biso   1.000  C
  C506     1.0000 0.56900  0.00000  0.60100  Biso   1.000  C
  C507     1.0000 0.57630  0.00000  0.70100  Biso   1.000  C
  C508     1.0000 0.60020  0.50000  0.14920  Biso   1.000  C
  C509     1.0000 0.56900  0.50000  0.10100  Biso   1.000  C
  C510     1.0000 0.57630  0.50000  0.20100  Biso   1.000  C
  C511     1.0000 0.10020  0.00000  0.14920  Biso   1.000  C
  C512     1.0000 0.06900  0.00000  0.10100  Biso   1.000  C
  C513     1.0000 0.07630  0.00000  0.20100  Biso   1.000  C
  C514     1.0000 0.10020  0.50000  0.64920  Biso   1.000  C
  C515     1.0000 0.06900  0.50000  0.60100  Biso   1.000  C
  C516     1.0000 0.07630  0.50000  0.70100  Biso   1.000  C
  C517     1.0000 0.39980  0.00000  0.35080  Biso   1.000  C
  C518     1.0000 0.43100  0.00000  0.39900  Biso   1.000  C
  C519     1.0000 0.42370  0.00000  0.29900  Biso   1.000  C
  C520     1.0000 0.39980  0.50000  0.85080  Biso   1.000  C
  C521     1.0000 0.43100  0.50000  0.89900  Biso   1.000  C
  C522     1.0000 0.42370  0.50000  0.79900  Biso   1.000  C
  C523     1.0000 0.89980  0.00000  0.85080  Biso   1.000  C
  C524     1.0000 0.93100  0.00000  0.89900  Biso   1.000  C
  C525     1.0000 0.92370  0.00000  0.79900  Biso   1.000  C
  C526     1.0000 0.89980  0.50000  0.35080  Biso   1.000  C
  C527     1.0000 0.93100  0.50000  0.39900  Biso   1.000  C
  C528     1.0000 0.92370  0.50000  0.29900  Biso   1.000  C
  C529     1.0000 0.00000  0.35080  0.60020  Biso   1.000  C
  C530     1.0000 0.00000  0.39900  0.56900  Biso   1.000  C
  C531     1.0000 0.00000  0.29900  0.57630  Biso   1.000  C
  C532     1.0000 0.00000  0.85080  0.10020  Biso   1.000  C
  C533     1.0000 0.00000  0.89900  0.06900  Biso   1.000  C
  C534     1.0000 0.00000  0.79900  0.07630  Biso   1.000  C
  C535     1.0000 0.50000  0.35080  0.10020  Biso   1.000  C
  C536     1.0000 0.50000  0.39900  0.06900  Biso   1.000  C
  C537     1.0000 0.50000  0.29900  0.07630  Biso   1.000  C
  C538     1.0000 0.50000  0.85080  0.60020  Biso   1.000  C
  C539     1.0000 0.50000  0.89900  0.56900  Biso   1.000  C
  C540     1.0000 0.50000  0.79900  0.57630  Biso   1.000  C
  C541     1.0000 0.00000  0.64920  0.39980  Biso   1.000  C
  C542     1.0000 0.00000  0.60100  0.43100  Biso   1.000  C
  C543     1.0000 0.00000  0.70100  0.42370  Biso   1.000  C
  C544     1.0000 0.00000  0.14920  0.89980  Biso   1.000  C
  C545     1.0000 0.00000  0.10100  0.93100  Biso   1.000  C
  C546     1.0000 0.00000  0.20100  0.92370  Biso   1.000  C
  C547     1.0000 0.50000  0.64920  0.89980  Biso   1.000  C
  C548     1.0000 0.50000  0.60100  0.93100  Biso   1.000  C
  C549     1.0000 0.50000  0.70100  0.92370  Biso   1.000  C
  C550     1.0000 0.50000  0.14920  0.39980  Biso   1.000  C
  C551     1.0000 0.50000  0.10100  0.43100  Biso   1.000  C
  C552     1.0000 0.50000  0.20100  0.42370  Biso   1.000  C
  C553     1.0000 0.00000  0.35080  0.39980  Biso   1.000  C
  C554     1.0000 0.00000  0.39900  0.43100  Biso   1.000  C
  C555     1.0000 0.00000  0.29900  0.42370  Biso   1.000  C
  C556     1.0000 0.00000  0.85080  0.89980  Biso   1.000  C
  C557     1.0000 0.00000  0.89900  0.93100  Biso   1.000  C
  C558     1.0000 0.00000  0.79900  0.92370  Biso   1.000  C
  C559     1.0000 0.50000  0.35080  0.89980  Biso   1.000  C
  C560     1.0000 0.50000  0.39900  0.93100  Biso   1.000  C
  C561     1.0000 0.50000  0.29900  0.92370  Biso   1.000  C
  C562     1.0000 0.50000  0.85080  0.39980  Biso   1.000  C
  C563     1.0000 0.50000  0.89900  0.43100  Biso   1.000  C
  C564     1.0000 0.50000  0.79900  0.42370  Biso   1.000  C
  C565     1.0000 0.00000  0.64920  0.60020  Biso   1.000  C
  C566     1.0000 0.00000  0.60100  0.56900  Biso   1.000  C
  C567     1.0000 0.00000  0.70100  0.57630  Biso   1.000  C
  C568     1.0000 0.00000  0.14920  0.10020  Biso   1.000  C
  C569     1.0000 0.00000  0.10100  0.06900  Biso   1.000  C
  C570     1.0000 0.00000  0.20100  0.07630  Biso   1.000  C
  C571     1.0000 0.50000  0.64920  0.10020  Biso   1.000  C
  C572     1.0000 0.50000  0.60100  0.06900  Biso   1.000  C
  C573     1.0000 0.50000  0.70100  0.07630  Biso   1.000  C
  C574     1.0000 0.50000  0.14920  0.60020  Biso   1.000  C
  C575     1.0000 0.50000  0.10100  0.56900  Biso   1.000  C
  C576     1.0000 0.50000  0.20100  0.57630  Biso   1.000  C
