data_cm901983a_si_001_freeONLY
_audit_creation_date              2015-08-19
_audit_creation_method            'Materials Studio'
_symmetry_space_group_name_H-M    'P1'
_symmetry_Int_Tables_number       1
_symmetry_cell_setting            triclinic
loop_
_symmetry_equiv_pos_as_xyz
  x,y,z
_cell_length_a                    50.6904
_cell_length_b                    50.6904
_cell_length_c                    50.6904
_cell_angle_alpha                 60.0000
_cell_angle_beta                  60.0000
_cell_angle_gamma                 60.0000
loop_
_atom_site_label
_atom_site_type_symbol
_atom_site_fract_x
_atom_site_fract_y
_atom_site_fract_z
_atom_site_U_iso_or_equiv
_atom_site_adp_type
_atom_site_occupancy
Si1    Si    0.67024   0.23296   0.37884   0.01267  Uiso   1.00
Si2    Si    0.28606   0.58152   0.78606   0.01267  Uiso   1.00
Si3    Si    0.48619   0.19279   0.78229   0.01267  Uiso   1.00
Si4    Si    0.13437   0.14671   0.63437   0.01267  Uiso   1.00
Si5    Si    0.41545   0.85329   0.36563   0.01267  Uiso   1.00
Si6    Si    0.69279   0.53873   0.78229   0.01267  Uiso   1.00
Si7    Si    0.69279   0.98619   0.78229   0.01267  Uiso   1.00
Si8    Si    0.30721   0.21771   0.46127   0.01267  Uiso   1.00
Si9    Si    0.51381   0.21771   0.46127   0.01267  Uiso   1.00
Si10   Si    0.32976   0.62116   0.76704   0.01267  Uiso   1.00
Si11   Si    0.08152   0.78606   0.78606   0.01267  Uiso   1.00
Si12   Si    0.00000   0.84882   0.00000   0.01267  Uiso   1.00
Si13   Si    0.03873   0.78229   0.98619   0.01267  Uiso   1.00
Si14   Si    0.26704   0.82976   0.62116   0.01267  Uiso   1.00
Si15   Si    0.87884   0.17024   0.71796   0.01267  Uiso   1.00
Si16   Si    0.78204   0.82976   0.62116   0.01267  Uiso   1.00
Si17   Si    0.96127   0.80721   0.21771   0.01267  Uiso   1.00
Si18   Si    0.80788   0.30788   0.37066   0.01267  Uiso   1.00
Si19   Si    0.32976   0.62116   0.28204   0.01267  Uiso   1.00
Si20   Si    0.73296   0.17024   0.71796   0.01267  Uiso   1.00
Si21   Si    0.87884   0.71796   0.17024   0.01267  Uiso   1.00
Si22   Si    0.28606   0.78606   0.58152   0.01267  Uiso   1.00
Si23   Si    0.12116   0.28204   0.76704   0.01267  Uiso   1.00
Si24   Si    0.71771   0.80721   0.01381   0.01267  Uiso   1.00
Si25   Si    0.01358   0.30788   0.37066   0.01267  Uiso   1.00
Si26   Si    0.51381   0.80721   0.21771   0.01267  Uiso   1.00
Si27   Si    0.87884   0.23296   0.17024   0.01267  Uiso   1.00
Si28   Si    0.34882   0.50000   0.15118   0.01267  Uiso   1.00
Si29   Si    0.73296   0.17024   0.37884   0.01267  Uiso   1.00
Si30   Si    0.69279   0.78229   0.98619   0.01267  Uiso   1.00
Si31   Si    0.08152   0.34636   0.78606   0.01267  Uiso   1.00
Si32   Si    0.00000   0.84882   0.15118   0.01267  Uiso   1.00
Si33   Si    0.21796   0.23296   0.17024   0.01267  Uiso   1.00
Si34   Si    0.00000   0.15118   0.84882   0.01267  Uiso   1.00
Si35   Si    0.98642   0.69212   0.62934   0.01267  Uiso   1.00
Si36   Si    0.86563   0.91545   0.36563   0.01267  Uiso   1.00
Si37   Si    0.87884   0.17024   0.23296   0.01267  Uiso   1.00
Si38   Si    0.87066   0.51358   0.30788   0.01267  Uiso   1.00
Si39   Si    0.80788   0.37066   0.51358   0.01267  Uiso   1.00
Si40   Si    0.48619   0.78229   0.53873   0.01267  Uiso   1.00
Si41   Si    0.28229   0.19279   0.98619   0.01267  Uiso   1.00
Si42   Si    0.32976   0.28204   0.62116   0.01267  Uiso   1.00
Si43   Si    0.01358   0.30788   0.30788   0.01267  Uiso   1.00
Si44   Si    0.09565   0.15435   0.15435   0.01267  Uiso   1.00
Si45   Si    0.35329   0.91545   0.36563   0.01267  Uiso   1.00
Si46   Si    0.03873   0.19279   0.98619   0.01267  Uiso   1.00
Si47   Si    0.21796   0.17024   0.23296   0.01267  Uiso   1.00
Si48   Si    0.80788   0.51358   0.37066   0.01267  Uiso   1.00
Si49   Si    0.86563   0.36563   0.91545   0.01267  Uiso   1.00
Si50   Si    0.87066   0.30788   0.51358   0.01267  Uiso   1.00
Si51   Si    0.01358   0.37066   0.30788   0.01267  Uiso   1.00
Si52   Si    0.12116   0.76704   0.28204   0.01267  Uiso   1.00
Si53   Si    0.73296   0.71796   0.17024   0.01267  Uiso   1.00
Si54   Si    0.65435   0.15435   0.59565   0.01267  Uiso   1.00
Si55   Si    0.34882   0.50000  -0.00000   0.01267  Uiso   1.00
Si56   Si    0.84636   0.78606   0.78606   0.01267  Uiso   1.00
Si57   Si    0.34565   0.40435   0.84565   0.01267  Uiso   1.00
Si58   Si    0.65435   0.59565   0.15435   0.01267  Uiso   1.00
Si59   Si    0.50000   0.50000   0.84882   0.01267  Uiso   1.00
Si60   Si    0.15364   0.21394   0.41848   0.01267  Uiso   1.00
Si61   Si    0.26704   0.28204   0.82976   0.01267  Uiso   1.00
Si62   Si    0.12116   0.82976   0.76704   0.01267  Uiso   1.00
Si63   Si    0.86563   0.85329   0.36563   0.01267  Uiso   1.00
Si64   Si    0.71771   0.01381   0.80721   0.01267  Uiso   1.00
Si65   Si    0.67024   0.71796   0.37884   0.01267  Uiso   1.00
Si66   Si    0.73296   0.37884   0.71796   0.01267  Uiso   1.00
Si67   Si    0.64671   0.08455   0.63437   0.01267  Uiso   1.00
Si68   Si    0.90435   0.84565   0.84565   0.01267  Uiso   1.00
Si69   Si    0.67024   0.37884   0.23296   0.01267  Uiso   1.00
Si70   Si    0.84636   0.58152   0.78606   0.01267  Uiso   1.00
Si71   Si    0.00000   0.00000   0.15118   0.01267  Uiso   1.00
Si72   Si    0.48619   0.53873   0.78229   0.01267  Uiso   1.00
Si73   Si    0.86563   0.36563   0.85329   0.01267  Uiso   1.00
Si74   Si    0.48619   0.78229   0.19279   0.01267  Uiso   1.00
Si75   Si    0.30721   0.46127   0.21771   0.01267  Uiso   1.00
Si76   Si    0.51381   0.80721   0.46127   0.01267  Uiso   1.00
Si77   Si    0.58455   0.63437   0.14671   0.01267  Uiso   1.00
Si78   Si    0.80788   0.30788   0.51358   0.01267  Uiso   1.00
Si79   Si    0.21796   0.37884   0.17024   0.01267  Uiso   1.00
Si80   Si    0.67024   0.37884   0.71796   0.01267  Uiso   1.00
Si81   Si    0.78204   0.62116   0.76704   0.01267  Uiso   1.00
Si82   Si    0.65118   0.84882   0.50000   0.01267  Uiso   1.00
Si83   Si    0.51381   0.46127   0.80721   0.01267  Uiso   1.00
Si84   Si    0.13437   0.14671   0.08455   0.01267  Uiso   1.00
Si85   Si    0.91848   0.21394   0.21394   0.01267  Uiso   1.00
Si86   Si    0.13437   0.08455   0.14671   0.01267  Uiso   1.00
Si87   Si    0.51381   0.21771   0.80721   0.01267  Uiso   1.00
Si88   Si    0.65118   0.00000   0.50000   0.01267  Uiso   1.00
Si89   Si    0.19212   0.69212   0.48642   0.01267  Uiso   1.00
Si90   Si    0.78204   0.82976   0.76704   0.01267  Uiso   1.00
Si91   Si    0.96127   0.80721   0.01381   0.01267  Uiso   1.00
Si92   Si    0.19212   0.48642   0.69212   0.01267  Uiso   1.00
Si93   Si    0.50000   0.50000   0.15118   0.01267  Uiso   1.00
Si94   Si    0.71394   0.21394   0.65364   0.01267  Uiso   1.00
Si95   Si    0.67024   0.23296   0.71796   0.01267  Uiso   1.00
Si96   Si    0.12934   0.48642   0.69212   0.01267  Uiso   1.00
Si97   Si    0.98642   0.62934   0.69212   0.01267  Uiso   1.00
Si98   Si    0.34882   0.00000   0.15118   0.01267  Uiso   1.00
Si99   Si    0.71394   0.65364   0.21394   0.01267  Uiso   1.00
Si100  Si    0.65118   0.00000   0.84882   0.01267  Uiso   1.00
Si101  Si    0.28606   0.78606   0.34636   0.01267  Uiso   1.00
Si102  Si    0.12116   0.82976   0.28204   0.01267  Uiso   1.00
Si103  Si    0.71394   0.41848   0.21394   0.01267  Uiso   1.00
Si104  Si    0.73296   0.37884   0.17024   0.01267  Uiso   1.00
Si105  Si    0.26704   0.62116   0.28204   0.01267  Uiso   1.00
Si106  Si    0.12116   0.28204   0.82976   0.01267  Uiso   1.00
Si107  Si    0.13437   0.63437   0.08455   0.01267  Uiso   1.00
Si108  Si    0.19212   0.69212   0.62934   0.01267  Uiso   1.00
Si109  Si    0.58455   0.14671   0.63437   0.01267  Uiso   1.00
Si110  Si    0.21796   0.17024   0.37884   0.01267  Uiso   1.00
Si111  Si    0.15364   0.41848   0.21394   0.01267  Uiso   1.00
Si112  Si    0.08152   0.78606   0.34636   0.01267  Uiso   1.00
Si113  Si    0.69279   0.53873   0.98619   0.01267  Uiso   1.00
Si114  Si    0.19212   0.48642   0.62934   0.01267  Uiso   1.00
Si115  Si    0.34882   0.15118  -0.00000   0.01267  Uiso   1.00
Si116  Si    0.78204   0.76704   0.82976   0.01267  Uiso   1.00
Si117  Si    0.71771   0.46127   0.80721   0.01267  Uiso   1.00
Si118  Si    0.48619   0.53873   0.19279   0.01267  Uiso   1.00
Si119  Si    0.13437   0.08455   0.63437   0.01267  Uiso   1.00
Si120  Si    0.21796   0.23296   0.37884   0.01267  Uiso   1.00
Si121  Si    0.90435   0.40435   0.84565   0.01267  Uiso   1.00
Si122  Si    0.69279   0.78229   0.53873   0.01267  Uiso   1.00
Si123  Si    0.00000   0.15118   0.00000   0.01267  Uiso   1.00
Si124  Si    0.34882   0.00000   0.50000   0.01267  Uiso   1.00
Si125  Si    0.32976   0.76704   0.62116   0.01267  Uiso   1.00
Si126  Si    0.03873   0.78229   0.19279   0.01267  Uiso   1.00
Si127  Si    0.28229   0.53873   0.19279   0.01267  Uiso   1.00
Si128  Si    0.84636   0.78606   0.58152   0.01267  Uiso   1.00
Si129  Si    0.96127   0.21771   0.01381   0.01267  Uiso   1.00
Si130  Si    0.65118   0.84882  -0.00000   0.01267  Uiso   1.00
Si131  Si    0.80788   0.37066   0.30788   0.01267  Uiso   1.00
Si132  Si    0.98642   0.69212   0.69212   0.01267  Uiso   1.00
Si133  Si    0.28229   0.53873   0.98619   0.01267  Uiso   1.00
Si134  Si    0.19212   0.62934   0.69212   0.01267  Uiso   1.00
Si135  Si    0.50000   0.15118   0.84882   0.01267  Uiso   1.00
Si136  Si    0.12116   0.76704   0.82976   0.01267  Uiso   1.00
Si137  Si    0.34565   0.40435   0.40435   0.01267  Uiso   1.00
Si138  Si    0.65435   0.59565   0.59565   0.01267  Uiso   1.00
Si139  Si    0.00000   0.00000   0.84882   0.01267  Uiso   1.00
Si140  Si    0.67024   0.71796   0.23296   0.01267  Uiso   1.00
Si141  Si    0.30721   0.01381   0.46127   0.01267  Uiso   1.00
Si142  Si    0.26704   0.82976   0.28204   0.01267  Uiso   1.00
Si143  Si    0.28229   0.19279   0.53873   0.01267  Uiso   1.00
Si144  Si    0.64671   0.63437   0.63437   0.01267  Uiso   1.00
Si145  Si    0.65118   0.50000   0.84882   0.01267  Uiso   1.00
Si146  Si    0.90435   0.84565   0.40435   0.01267  Uiso   1.00
Si147  Si    0.30721   0.21771   0.01381   0.01267  Uiso   1.00
Si148  Si    0.09565   0.59565   0.15435   0.01267  Uiso   1.00
Si149  Si    0.48619   0.19279   0.53873   0.01267  Uiso   1.00
Si150  Si    0.58455   0.63437   0.63437   0.01267  Uiso   1.00
Si151  Si    0.41545   0.36563   0.85329   0.01267  Uiso   1.00
Si152  Si    0.28606   0.34636   0.78606   0.01267  Uiso   1.00
Si153  Si    0.87066   0.30788   0.30788   0.01267  Uiso   1.00
Si154  Si    0.15364   0.21394   0.21394   0.01267  Uiso   1.00
Si155  Si    0.51381   0.46127   0.21771   0.01267  Uiso   1.00
Si156  Si    0.26704   0.28204   0.62116   0.01267  Uiso   1.00
Si157  Si    0.86563   0.85329   0.91545   0.01267  Uiso   1.00
Si158  Si    0.86563   0.91545   0.85329   0.01267  Uiso   1.00
Si159  Si    0.65118   0.50000  -0.00000   0.01267  Uiso   1.00
Si160  Si    0.09565   0.15435   0.59565   0.01267  Uiso   1.00
Si161  Si    0.30721   0.46127   0.01381   0.01267  Uiso   1.00
Si162  Si    0.30721   0.01381   0.21771   0.01267  Uiso   1.00
Si163  Si    0.19212   0.62934   0.48642   0.01267  Uiso   1.00
Si164  Si    0.50000   0.84882   0.50000   0.01267  Uiso   1.00
Si165  Si    0.71771   0.01381   0.46127   0.01267  Uiso   1.00
Si166  Si    0.32976   0.76704   0.28204   0.01267  Uiso   1.00
Si167  Si    0.71394   0.21394   0.41848   0.01267  Uiso   1.00
Si168  Si    0.32976   0.28204   0.76704   0.01267  Uiso   1.00
Si169  Si    0.03873   0.98619   0.19279   0.01267  Uiso   1.00
Si170  Si    0.64671   0.63437   0.08455   0.01267  Uiso   1.00
Si171  Si    0.12934   0.69212   0.69212   0.01267  Uiso   1.00
Si172  Si    0.50000   0.15118   0.50000   0.01267  Uiso   1.00
Si173  Si    0.73296   0.71796   0.37884   0.01267  Uiso   1.00
Si174  Si    0.96127   0.01381   0.80721   0.01267  Uiso   1.00
Si175  Si    0.91848   0.65364   0.21394   0.01267  Uiso   1.00
Si176  Si    0.80788   0.51358   0.30788   0.01267  Uiso   1.00
Si177  Si    0.71771   0.46127   0.01381   0.01267  Uiso   1.00
Si178  Si    0.96127   0.21771   0.80721   0.01267  Uiso   1.00
Si179  Si    0.71394   0.41848   0.65364   0.01267  Uiso   1.00
Si180  Si    0.28229   0.98619   0.19279   0.01267  Uiso   1.00
Si181  Si    0.87884   0.23296   0.71796   0.01267  Uiso   1.00
Si182  Si    0.28229   0.98619   0.53873   0.01267  Uiso   1.00
Si183  Si    0.35329   0.36563   0.91545   0.01267  Uiso   1.00
Si184  Si    0.50000   0.84882   0.15118   0.01267  Uiso   1.00
Si185  Si    0.71394   0.65364   0.41848   0.01267  Uiso   1.00
Si186  Si    0.03873   0.19279   0.78229   0.01267  Uiso   1.00
Si187  Si    0.12934   0.69212   0.48642   0.01267  Uiso   1.00
Si188  Si    0.35329   0.36563   0.36563   0.01267  Uiso   1.00
Si189  Si    0.28606   0.34636   0.58152   0.01267  Uiso   1.00
Si190  Si    0.87884   0.71796   0.23296   0.01267  Uiso   1.00
Si191  Si    0.34882   0.15118   0.50000   0.01267  Uiso   1.00
Si192  Si    0.41545   0.36563   0.36563   0.01267  Uiso   1.00
Si193  Si    0.91848   0.21394   0.65364   0.01267  Uiso   1.00
Si194  Si    0.78204   0.62116   0.82976   0.01267  Uiso   1.00
Si195  Si    0.71771   0.80721   0.46127   0.01267  Uiso   1.00
Si196  Si    0.28606   0.58152   0.34636   0.01267  Uiso   1.00
Si197  Si    0.21796   0.37884   0.23296   0.01267  Uiso   1.00
Si198  Si    0.13437   0.63437   0.14671   0.01267  Uiso   1.00
Si199  Si    0.26704   0.62116   0.82976   0.01267  Uiso   1.00
Si200  Si    0.78204   0.76704   0.62116   0.01267  Uiso   1.00
Si201  Si    0.96127   0.01381   0.21771   0.01267  Uiso   1.00
Si202  Si    0.69279   0.98619   0.53873   0.01267  Uiso   1.00
Si203  Si    0.34565   0.84565   0.40435   0.01267  Uiso   1.00
Si204  Si    0.03873   0.98619   0.78229   0.01267  Uiso   1.00
H1     H     0.91430   0.10510   0.18590   0.01267  Uiso   1.00
H2     H     0.06810   0.56810   0.64870   0.01267  Uiso   1.00
H3     H     0.96070   0.92790   0.92790   0.01267  Uiso   1.00
H4     H     0.55370   0.69230   0.20050   0.01267  Uiso   1.00
H5     H     0.29950   0.94630   0.44650   0.01267  Uiso   1.00
H6     H     0.40290   0.53870   0.90290   0.01267  Uiso   1.00
H7     H     0.35690   0.36030   0.49290   0.01267  Uiso   1.00
H8     H     0.26910   0.54410   0.27590   0.01267  Uiso   1.00
H9     H     0.90850   0.95370   0.26590   0.01267  Uiso   1.00
H10    H     0.70530   0.58570   0.81410   0.01267  Uiso   1.00
H11    H     0.68590   0.41430   0.10510   0.01267  Uiso   1.00
H12    H     0.42790   0.18350   0.46070   0.01267  Uiso   1.00
H13    H     0.34450   0.09710   0.46130   0.01267  Uiso   1.00
H14    H     0.29470   0.10510   0.18590   0.01267  Uiso   1.00
H15    H     0.05350   0.69230   0.05370   0.01267  Uiso   1.00
H16    H     0.68350   0.92790   0.92790   0.01267  Uiso   1.00
H17    H     0.09500   0.29780   0.23120   0.01267  Uiso   1.00
H18    H     0.73120   0.29780   0.59500   0.01267  Uiso   1.00
H19    H     0.99290   0.78990   0.36030   0.01267  Uiso   1.00
H20    H     0.77970   0.74050   0.20010   0.01267  Uiso   1.00
H21    H     0.64310   0.63970   0.21010   0.01267  Uiso   1.00
H22    H     0.09150   0.73410   0.12810   0.01267  Uiso   1.00
H23    H     0.95590   0.08910   0.23090   0.01267  Uiso   1.00
H24    H     0.04410   0.27590   0.91090   0.01267  Uiso   1.00
H25    H     0.73120   0.59500   0.37600   0.01267  Uiso   1.00
H26    H     0.71010   0.50710   0.63970   0.01267  Uiso   1.00
H27    H     0.64310   0.21010   0.63970   0.01267  Uiso   1.00
H28    H     0.04410   0.91090   0.76910   0.01267  Uiso   1.00
H29    H     0.00710   0.63970   0.21010   0.01267  Uiso   1.00
H30    H     0.34450   0.46130   0.09710   0.01267  Uiso   1.00
H31    H     0.62810   0.59150   0.04630   0.01267  Uiso   1.00
H32    H     0.79780   0.23120   0.59500   0.01267  Uiso   1.00
H33    H     0.13970   0.50710   0.14310   0.01267  Uiso   1.00
H34    H     0.93190   0.43190   0.28490   0.01267  Uiso   1.00
H35    H     0.68590   0.79470   0.41430   0.01267  Uiso   1.00
H36    H     0.60510   0.18590   0.41430   0.01267  Uiso   1.00
H37    H     0.77590   0.91090   0.54410   0.01267  Uiso   1.00
H38    H     0.70530   0.89490   0.58570   0.01267  Uiso   1.00
H39    H     0.09150   0.04630   0.12810   0.01267  Uiso   1.00
H40    H     0.79780   0.59500   0.37600   0.01267  Uiso   1.00
H41    H     0.20220   0.40500   0.62400   0.01267  Uiso   1.00
H42    H     0.76590   0.40850   0.95370   0.01267  Uiso   1.00
H43    H     0.91430   0.18590   0.10510   0.01267  Uiso   1.00
H44    H     0.00710   0.14310   0.21010   0.01267  Uiso   1.00
H45    H     0.58910   0.23090   0.72410   0.01267  Uiso   1.00
H46    H     0.62810   0.04630   0.73410   0.01267  Uiso   1.00
H47    H     0.82450   0.32450   0.17590   0.01267  Uiso   1.00
H48    H     0.90850   0.87190   0.26590   0.01267  Uiso   1.00
H49    H     0.45370   0.26590   0.40850   0.01267  Uiso   1.00
H50    H     0.82490   0.67550   0.82410   0.01267  Uiso   1.00
H51    H     0.91430   0.18590   0.79470   0.01267  Uiso   1.00
H52    H     0.09500   0.23120   0.29780   0.01267  Uiso   1.00
H53    H     0.99290   0.85690   0.36030   0.01267  Uiso   1.00
H54    H     0.13970   0.50710   0.21010   0.01267  Uiso   1.00
H55    H     0.05350   0.20050   0.05370   0.01267  Uiso   1.00
H56    H     0.85130   0.28490   0.43190   0.01267  Uiso   1.00
H57    H     0.12400   0.70220   0.40500   0.01267  Uiso   1.00
H58    H     0.73120   0.37600   0.29780   0.01267  Uiso   1.00
H59    H     0.42790   0.92790   0.46070   0.01267  Uiso   1.00
H60    H     0.77970   0.20010   0.27970   0.01267  Uiso   1.00
H61    H     0.41090   0.54410   0.27590   0.01267  Uiso   1.00
H62    H     0.03870   0.15550   0.90290   0.01267  Uiso   1.00
H63    H     0.99290   0.78990   0.85690   0.01267  Uiso   1.00
H64    H     0.26880   0.62400   0.40500   0.01267  Uiso   1.00
H65    H     0.64310   0.50710   0.63970   0.01267  Uiso   1.00
H66    H     0.95590   0.23090   0.08910   0.01267  Uiso   1.00
H67    H     0.13970   0.21010   0.50710   0.01267  Uiso   1.00
H68    H     0.42790   0.18350   0.92790   0.01267  Uiso   1.00
H69    H     0.40290   0.90290   0.53870   0.01267  Uiso   1.00
H70    H     0.93190   0.35130   0.28490   0.01267  Uiso   1.00
H71    H     0.75950   0.72030   0.79990   0.01267  Uiso   1.00
H72    H     0.68590   0.41430   0.79470   0.01267  Uiso   1.00
H73    H     0.82490   0.82410   0.67550   0.01267  Uiso   1.00
H74    H     0.22030   0.79990   0.72030   0.01267  Uiso   1.00
H75    H     0.22030   0.72030   0.25950   0.01267  Uiso   1.00
H76    H     0.44630   0.30770   0.44650   0.01267  Uiso   1.00
H77    H     0.79780   0.59500   0.23120   0.01267  Uiso   1.00
H78    H     0.13970   0.21010   0.14310   0.01267  Uiso   1.00
H79    H     0.58910   0.23090   0.45590   0.01267  Uiso   1.00
H80    H     0.17550   0.67550   0.32490   0.01267  Uiso   1.00
H81    H     0.62810   0.73410   0.04630   0.01267  Uiso   1.00
H82    H     0.70050   0.69230   0.05370   0.01267  Uiso   1.00
H83    H     0.71010   0.63970   0.50710   0.01267  Uiso   1.00
H84    H     0.23410   0.04630   0.59150   0.01267  Uiso   1.00
H85    H     0.85130   0.43190   0.28490   0.01267  Uiso   1.00
H86    H     0.22410   0.08910   0.23090   0.01267  Uiso   1.00
H87    H     0.34450   0.09710   0.09710   0.01267  Uiso   1.00
H88    H     0.62810   0.04630   0.59150   0.01267  Uiso   1.00
H89    H     0.87600   0.59500   0.23120   0.01267  Uiso   1.00
H90    H     0.78490   0.35130   0.43190   0.01267  Uiso   1.00
H91    H     0.17550   0.32490   0.82410   0.01267  Uiso   1.00
H92    H     0.77970   0.27970   0.74050   0.01267  Uiso   1.00
H93    H     0.29950   0.44650   0.30770   0.01267  Uiso   1.00
H94    H     0.19230   0.05370   0.20050   0.01267  Uiso   1.00
H95    H     0.70530   0.81410   0.58570   0.01267  Uiso   1.00
H96    H     0.45370   0.87190   0.26590   0.01267  Uiso   1.00
H97    H     0.41090   0.76910   0.27590   0.01267  Uiso   1.00
H98    H     0.73090   0.08910   0.72410   0.01267  Uiso   1.00
H99    H     0.31650   0.53930   0.07210   0.01267  Uiso   1.00
H100   H     0.73120   0.59500   0.29780   0.01267  Uiso   1.00
H101   H     0.44630   0.79950   0.30770   0.01267  Uiso   1.00
H102   H     0.93190   0.28490   0.35130   0.01267  Uiso   1.00
H103   H     0.64310   0.21010   0.50710   0.01267  Uiso   1.00
H104   H     0.40290   0.90290   0.15550   0.01267  Uiso   1.00
H105   H     0.23410   0.59150   0.12810   0.01267  Uiso   1.00
H106   H     0.19230   0.20050   0.05370   0.01267  Uiso   1.00
H107   H     0.80770   0.79950   0.94630   0.01267  Uiso   1.00
H108   H     0.40290   0.15550   0.90290   0.01267  Uiso   1.00
H109   H     0.54630   0.59150   0.73410   0.01267  Uiso   1.00
H110   H     0.94650   0.30770   0.79950   0.01267  Uiso   1.00
H111   H     0.44630   0.44650   0.30770   0.01267  Uiso   1.00
H112   H     0.94650   0.79950   0.94630   0.01267  Uiso   1.00
H113   H     0.68590   0.79470   0.10510   0.01267  Uiso   1.00
H114   H     0.08570   0.89490   0.20530   0.01267  Uiso   1.00
H115   H     0.87600   0.29780   0.23120   0.01267  Uiso   1.00
H116   H     0.71010   0.14310   0.63970   0.01267  Uiso   1.00
H117   H     0.76590   0.87190   0.95370   0.01267  Uiso   1.00
H118   H     0.09500   0.37600   0.29780   0.01267  Uiso   1.00
H119   H     0.76590   0.87190   0.40850   0.01267  Uiso   1.00
H120   H     0.42790   0.46070   0.18350   0.01267  Uiso   1.00
H121   H     0.29470   0.41430   0.10510   0.01267  Uiso   1.00
H122   H     0.13970   0.14310   0.21010   0.01267  Uiso   1.00
H123   H     0.09500   0.23120   0.37600   0.01267  Uiso   1.00
H124   H     0.64310   0.50710   0.21010   0.01267  Uiso   1.00
H125   H     0.67590   0.67510   0.32450   0.01267  Uiso   1.00
H126   H     0.28990   0.85690   0.36030   0.01267  Uiso   1.00
H127   H     0.37190   0.40850   0.26590   0.01267  Uiso   1.00
H128   H     0.99290   0.85690   0.78990   0.01267  Uiso   1.00
H129   H     0.90500   0.70220   0.76880   0.01267  Uiso   1.00
H130   H     0.99290   0.36030   0.78990   0.01267  Uiso   1.00
H131   H     0.22410   0.08910   0.45590   0.01267  Uiso   1.00
H132   H     0.90500   0.76880   0.70220   0.01267  Uiso   1.00
H133   H     0.91430   0.79470   0.10510   0.01267  Uiso   1.00
H134   H     0.09150   0.12810   0.04630   0.01267  Uiso   1.00
H135   H     0.70050   0.69230   0.55350   0.01267  Uiso   1.00
H136   H     0.54630   0.59150   0.12810   0.01267  Uiso   1.00
H137   H     0.12400   0.70220   0.76880   0.01267  Uiso   1.00
H138   H     0.39490   0.81410   0.20530   0.01267  Uiso   1.00
H139   H     0.55370   0.20050   0.55350   0.01267  Uiso   1.00
H140   H     0.58910   0.45590   0.23090   0.01267  Uiso   1.00
H141   H     0.94650   0.79950   0.30770   0.01267  Uiso   1.00
H142   H     0.55370   0.20050   0.69230   0.01267  Uiso   1.00
H143   H     0.73090   0.45590   0.72410   0.01267  Uiso   1.00
H144   H     0.12400   0.40500   0.70220   0.01267  Uiso   1.00
H145   H     0.65550   0.90290   0.53870   0.01267  Uiso   1.00
H146   H     0.90500   0.70220   0.62400   0.01267  Uiso   1.00
H147   H     0.58910   0.72410   0.45590   0.01267  Uiso   1.00
H148   H     0.44630   0.44650   0.79950   0.01267  Uiso   1.00
H149   H     0.91430   0.79470   0.18590   0.01267  Uiso   1.00
H150   H     0.26880   0.70220   0.62400   0.01267  Uiso   1.00
H151   H     0.24050   0.20010   0.27970   0.01267  Uiso   1.00
H152   H     0.60510   0.79470   0.41430   0.01267  Uiso   1.00
H153   H     0.77590   0.54410   0.76910   0.01267  Uiso   1.00
H154   H     0.73090   0.45590   0.08910   0.01267  Uiso   1.00
H155   H     0.96130   0.84450   0.09710   0.01267  Uiso   1.00
H156   H     0.77970   0.74050   0.27970   0.01267  Uiso   1.00
H157   H     0.96070   0.18350   0.92790   0.01267  Uiso   1.00
H158   H     0.85130   0.43190   0.43190   0.01267  Uiso   1.00
H159   H     0.59710   0.09710   0.46130   0.01267  Uiso   1.00
H160   H     0.29990   0.72030   0.25950   0.01267  Uiso   1.00
H161   H     0.58910   0.45590   0.72410   0.01267  Uiso   1.00
H162   H     0.99290   0.36030   0.85690   0.01267  Uiso   1.00
H163   H     0.96130   0.09710   0.09710   0.01267  Uiso   1.00
H164   H     0.44630   0.79950   0.44650   0.01267  Uiso   1.00
H165   H     0.80770   0.94630   0.44650   0.01267  Uiso   1.00
H166   H     0.29950   0.30770   0.94630   0.01267  Uiso   1.00
H167   H     0.09150   0.04630   0.73410   0.01267  Uiso   1.00
H168   H     0.90500   0.62400   0.76880   0.01267  Uiso   1.00
H169   H     0.03930   0.07210   0.81650   0.01267  Uiso   1.00
H170   H     0.39490   0.20530   0.81410   0.01267  Uiso   1.00
H171   H     0.70010   0.27970   0.74050   0.01267  Uiso   1.00
H172   H     0.41090   0.27590   0.76910   0.01267  Uiso   1.00
H173   H     0.32410   0.67550   0.67550   0.01267  Uiso   1.00
H174   H     0.31410   0.89490   0.20530   0.01267  Uiso   1.00
H175   H     0.78490   0.43190   0.35130   0.01267  Uiso   1.00
H176   H     0.82450   0.67510   0.32450   0.01267  Uiso   1.00
H177   H     0.70050   0.05370   0.69230   0.01267  Uiso   1.00
H178   H     0.22410   0.45590   0.08910   0.01267  Uiso   1.00
H179   H     0.05350   0.05370   0.20050   0.01267  Uiso   1.00
H180   H     0.70050   0.55350   0.69230   0.01267  Uiso   1.00
H181   H     0.29990   0.25950   0.72030   0.01267  Uiso   1.00
H182   H     0.93190   0.28490   0.43190   0.01267  Uiso   1.00
H183   H     0.39490   0.58570   0.20530   0.01267  Uiso   1.00
H184   H     0.57210   0.07210   0.81650   0.01267  Uiso   1.00
H185   H     0.76590   0.40850   0.87190   0.01267  Uiso   1.00
H186   H     0.68350   0.92790   0.46070   0.01267  Uiso   1.00
H187   H     0.03870   0.90290   0.15550   0.01267  Uiso   1.00
H188   H     0.70530   0.81410   0.89490   0.01267  Uiso   1.00
H189   H     0.26880   0.70220   0.40500   0.01267  Uiso   1.00
H190   H     0.20220   0.76880   0.62400   0.01267  Uiso   1.00
H191   H     0.05350   0.05370   0.69230   0.01267  Uiso   1.00
H192   H     0.76590   0.95370   0.87190   0.01267  Uiso   1.00
H193   H     0.19230   0.20050   0.55350   0.01267  Uiso   1.00
H194   H     0.57210   0.81650   0.53930   0.01267  Uiso   1.00
H195   H     0.60510   0.18590   0.79470   0.01267  Uiso   1.00
H196   H     0.94650   0.94630   0.30770   0.01267  Uiso   1.00
H197   H     0.37190   0.26590   0.95370   0.01267  Uiso   1.00
H198   H     0.04410   0.76910   0.91090   0.01267  Uiso   1.00
H199   H     0.31650   0.07210   0.53930   0.01267  Uiso   1.00
H200   H     0.20220   0.76880   0.40500   0.01267  Uiso   1.00
H201   H     0.42790   0.92790   0.18350   0.01267  Uiso   1.00
H202   H     0.58910   0.72410   0.23090   0.01267  Uiso   1.00
H203   H     0.70050   0.55350   0.05370   0.01267  Uiso   1.00
H204   H     0.86030   0.85690   0.49290   0.01267  Uiso   1.00
H205   H     0.06810   0.71510   0.64870   0.01267  Uiso   1.00
H206   H     0.91430   0.10510   0.79470   0.01267  Uiso   1.00
H207   H     0.82450   0.17590   0.32450   0.01267  Uiso   1.00
H208   H     0.06810   0.64870   0.56810   0.01267  Uiso   1.00
H209   H     0.75950   0.72030   0.72030   0.01267  Uiso   1.00
H210   H     0.44630   0.30770   0.79950   0.01267  Uiso   1.00
H211   H     0.23410   0.04630   0.12810   0.01267  Uiso   1.00
H212   H     0.37190   0.26590   0.40850   0.01267  Uiso   1.00
H213   H     0.00710   0.21010   0.63970   0.01267  Uiso   1.00
H214   H     0.95590   0.72410   0.08910   0.01267  Uiso   1.00
H215   H     0.90850   0.87190   0.95370   0.01267  Uiso   1.00
H216   H     0.08570   0.20530   0.89490   0.01267  Uiso   1.00
H217   H     0.22410   0.23090   0.45590   0.01267  Uiso   1.00
H218   H     0.17510   0.17590   0.32450   0.01267  Uiso   1.00
H219   H     0.71010   0.14310   0.50710   0.01267  Uiso   1.00
H220   H     0.32410   0.67550   0.32490   0.01267  Uiso   1.00
H221   H     0.04410   0.27590   0.76910   0.01267  Uiso   1.00
H222   H     0.17550   0.32490   0.67550   0.01267  Uiso   1.00
H223   H     0.54630   0.12810   0.73410   0.01267  Uiso   1.00
H224   H     0.09150   0.73410   0.04630   0.01267  Uiso   1.00
H225   H     0.12400   0.76880   0.70220   0.01267  Uiso   1.00
H226   H     0.00710   0.14310   0.63970   0.01267  Uiso   1.00
H227   H     0.87600   0.59500   0.29780   0.01267  Uiso   1.00
H228   H     0.06810   0.71510   0.56810   0.01267  Uiso   1.00
H229   H     0.26880   0.40500   0.62400   0.01267  Uiso   1.00
H230   H     0.22030   0.72030   0.79990   0.01267  Uiso   1.00
H231   H     0.31650   0.07210   0.07210   0.01267  Uiso   1.00
H232   H     0.19230   0.05370   0.55350   0.01267  Uiso   1.00
H233   H     0.55370   0.55350   0.69230   0.01267  Uiso   1.00
H234   H     0.65550   0.90290   0.90290   0.01267  Uiso   1.00
H235   H     0.31410   0.20530   0.58570   0.01267  Uiso   1.00
H236   H     0.21510   0.56810   0.64870   0.01267  Uiso   1.00
H237   H     0.73090   0.72410   0.45590   0.01267  Uiso   1.00
H238   H     0.37190   0.40850   0.95370   0.01267  Uiso   1.00
H239   H     0.19230   0.55350   0.05370   0.01267  Uiso   1.00
H240   H     0.67590   0.32450   0.67510   0.01267  Uiso   1.00
H241   H     0.45370   0.40850   0.26590   0.01267  Uiso   1.00
H242   H     0.54630   0.73410   0.59150   0.01267  Uiso   1.00
H243   H     0.20220   0.40500   0.76880   0.01267  Uiso   1.00
H244   H     0.29470   0.18590   0.41430   0.01267  Uiso   1.00
H245   H     0.28990   0.49290   0.36030   0.01267  Uiso   1.00
H246   H     0.41090   0.76910   0.54410   0.01267  Uiso   1.00
H247   H     0.87600   0.23120   0.29780   0.01267  Uiso   1.00
H248   H     0.94650   0.94630   0.79950   0.01267  Uiso   1.00
H249   H     0.35690   0.36030   0.78990   0.01267  Uiso   1.00
H250   H     0.62810   0.59150   0.73410   0.01267  Uiso   1.00
H251   H     0.35690   0.49290   0.78990   0.01267  Uiso   1.00
H252   H     0.12400   0.40500   0.76880   0.01267  Uiso   1.00
H253   H     0.82450   0.17590   0.67510   0.01267  Uiso   1.00
H254   H     0.42790   0.46070   0.92790   0.01267  Uiso   1.00
H255   H     0.96070   0.92790   0.18350   0.01267  Uiso   1.00
H256   H     0.26910   0.27590   0.91090   0.01267  Uiso   1.00
H257   H     0.79780   0.37600   0.59500   0.01267  Uiso   1.00
H258   H     0.14870   0.71510   0.56810   0.01267  Uiso   1.00
H259   H     0.73090   0.08910   0.45590   0.01267  Uiso   1.00
H260   H     0.17550   0.82410   0.67550   0.01267  Uiso   1.00
H261   H     0.64310   0.63970   0.50710   0.01267  Uiso   1.00
H262   H     0.37190   0.95370   0.40850   0.01267  Uiso   1.00
H263   H     0.86030   0.78990   0.49290   0.01267  Uiso   1.00
H264   H     0.76590   0.95370   0.40850   0.01267  Uiso   1.00
H265   H     0.31410   0.58570   0.89490   0.01267  Uiso   1.00
H266   H     0.26880   0.40500   0.70220   0.01267  Uiso   1.00
H267   H     0.22030   0.25950   0.79990   0.01267  Uiso   1.00
H268   H     0.70530   0.58570   0.89490   0.01267  Uiso   1.00
H269   H     0.03930   0.07210   0.07210   0.01267  Uiso   1.00
H270   H     0.73090   0.72410   0.08910   0.01267  Uiso   1.00
H271   H     0.20220   0.62400   0.40500   0.01267  Uiso   1.00
H272   H     0.40290   0.53870   0.15550   0.01267  Uiso   1.00
H273   H     0.60510   0.41430   0.18590   0.01267  Uiso   1.00
H274   H     0.06810   0.56810   0.71510   0.01267  Uiso   1.00
H275   H     0.28990   0.85690   0.49290   0.01267  Uiso   1.00
H276   H     0.14870   0.56810   0.56810   0.01267  Uiso   1.00
H277   H     0.22410   0.45590   0.23090   0.01267  Uiso   1.00
H278   H     0.17550   0.67550   0.82410   0.01267  Uiso   1.00
H279   H     0.08570   0.81410   0.89490   0.01267  Uiso   1.00
H280   H     0.77590   0.91090   0.76910   0.01267  Uiso   1.00
H281   H     0.73120   0.29780   0.37600   0.01267  Uiso   1.00
H282   H     0.00710   0.21010   0.14310   0.01267  Uiso   1.00
H283   H     0.12400   0.76880   0.40500   0.01267  Uiso   1.00
H284   H     0.26910   0.91090   0.54410   0.01267  Uiso   1.00
H285   H     0.08570   0.20530   0.81410   0.01267  Uiso   1.00
H286   H     0.95590   0.08910   0.72410   0.01267  Uiso   1.00
H287   H     0.90500   0.62400   0.70220   0.01267  Uiso   1.00
H288   H     0.39490   0.81410   0.58570   0.01267  Uiso   1.00
H289   H     0.13970   0.14310   0.50710   0.01267  Uiso   1.00
H290   H     0.71010   0.63970   0.14310   0.01267  Uiso   1.00
H291   H     0.67590   0.32450   0.32450   0.01267  Uiso   1.00
H292   H     0.95590   0.72410   0.23090   0.01267  Uiso   1.00
H293   H     0.60510   0.79470   0.18590   0.01267  Uiso   1.00
H294   H     0.94650   0.30770   0.94630   0.01267  Uiso   1.00
H295   H     0.26910   0.27590   0.54410   0.01267  Uiso   1.00
H296   H     0.09150   0.12810   0.73410   0.01267  Uiso   1.00
H297   H     0.29950   0.44650   0.94630   0.01267  Uiso   1.00
H298   H     0.59710   0.09710   0.84450   0.01267  Uiso   1.00
H299   H     0.90850   0.26590   0.95370   0.01267  Uiso   1.00
H300   H     0.90850   0.95370   0.87190   0.01267  Uiso   1.00
H301   H     0.03870   0.90290   0.90290   0.01267  Uiso   1.00
H302   H     0.23410   0.12810   0.04630   0.01267  Uiso   1.00
H303   H     0.17510   0.32450   0.17590   0.01267  Uiso   1.00
H304   H     0.77590   0.54410   0.91090   0.01267  Uiso   1.00
H305   H     0.95590   0.23090   0.72410   0.01267  Uiso   1.00
H306   H     0.68590   0.10510   0.79470   0.01267  Uiso   1.00
H307   H     0.73120   0.37600   0.59500   0.01267  Uiso   1.00
H308   H     0.80770   0.79950   0.44650   0.01267  Uiso   1.00
H309   H     0.05350   0.69230   0.20050   0.01267  Uiso   1.00
H310   H     0.40290   0.15550   0.53870   0.01267  Uiso   1.00
H311   H     0.77590   0.76910   0.91090   0.01267  Uiso   1.00
H312   H     0.93190   0.35130   0.43190   0.01267  Uiso   1.00
H313   H     0.59710   0.84450   0.09710   0.01267  Uiso   1.00
H314   H     0.37190   0.95370   0.26590   0.01267  Uiso   1.00
H315   H     0.29950   0.94630   0.30770   0.01267  Uiso   1.00
H316   H     0.04410   0.91090   0.27590   0.01267  Uiso   1.00
H317   H     0.59710   0.46130   0.84450   0.01267  Uiso   1.00
H318   H     0.22030   0.25950   0.72030   0.01267  Uiso   1.00
H319   H     0.77590   0.76910   0.54410   0.01267  Uiso   1.00
H320   H     0.90850   0.26590   0.87190   0.01267  Uiso   1.00
H321   H     0.70010   0.74050   0.27970   0.01267  Uiso   1.00
H322   H     0.22410   0.23090   0.08910   0.01267  Uiso   1.00
H323   H     0.41090   0.54410   0.76910   0.01267  Uiso   1.00
H324   H     0.24050   0.27970   0.20010   0.01267  Uiso   1.00
H325   H     0.23410   0.59150   0.04630   0.01267  Uiso   1.00
H326   H     0.86030   0.49290   0.85690   0.01267  Uiso   1.00
H327   H     0.08570   0.89490   0.81410   0.01267  Uiso   1.00
H328   H     0.04410   0.76910   0.27590   0.01267  Uiso   1.00
H329   H     0.35690   0.78990   0.36030   0.01267  Uiso   1.00
H330   H     0.87600   0.23120   0.59500   0.01267  Uiso   1.00
H331   H     0.45370   0.26590   0.87190   0.01267  Uiso   1.00
H332   H     0.22030   0.79990   0.25950   0.01267  Uiso   1.00
H333   H     0.80770   0.44650   0.79950   0.01267  Uiso   1.00
H334   H     0.26880   0.62400   0.70220   0.01267  Uiso   1.00
H335   H     0.21510   0.64870   0.56810   0.01267  Uiso   1.00
H336   H     0.17550   0.82410   0.32490   0.01267  Uiso   1.00
H337   H     0.70050   0.05370   0.55350   0.01267  Uiso   1.00
H338   H     0.31410   0.89490   0.58570   0.01267  Uiso   1.00
H339   H     0.08570   0.81410   0.20530   0.01267  Uiso   1.00
H340   H     0.45370   0.40850   0.87190   0.01267  Uiso   1.00
H341   H     0.20220   0.62400   0.76880   0.01267  Uiso   1.00
H342   H     0.45370   0.87190   0.40850   0.01267  Uiso   1.00
H343   H     0.80770   0.44650   0.94630   0.01267  Uiso   1.00
H344   H     0.82450   0.67510   0.17590   0.01267  Uiso   1.00
H345   H     0.75950   0.79990   0.72030   0.01267  Uiso   1.00
H346   H     0.79780   0.23120   0.37600   0.01267  Uiso   1.00
H347   H     0.26910   0.54410   0.91090   0.01267  Uiso   1.00
H348   H     0.31410   0.20530   0.89490   0.01267  Uiso   1.00
H349   H     0.57210   0.07210   0.53930   0.01267  Uiso   1.00
H350   H     0.03930   0.81650   0.07210   0.01267  Uiso   1.00
H351   H     0.14870   0.56810   0.71510   0.01267  Uiso   1.00
H352   H     0.77970   0.20010   0.74050   0.01267  Uiso   1.00
H353   H     0.79780   0.37600   0.23120   0.01267  Uiso   1.00
H354   H     0.19230   0.55350   0.20050   0.01267  Uiso   1.00
H355   H     0.57210   0.53930   0.07210   0.01267  Uiso   1.00
H356   H     0.26910   0.91090   0.27590   0.01267  Uiso   1.00
H357   H     0.86030   0.78990   0.85690   0.01267  Uiso   1.00
H358   H     0.86030   0.49290   0.78990   0.01267  Uiso   1.00
H359   H     0.68350   0.46070   0.92790   0.01267  Uiso   1.00
H360   H     0.31410   0.58570   0.20530   0.01267  Uiso   1.00
H361   H     0.05350   0.20050   0.69230   0.01267  Uiso   1.00
H362   H     0.06810   0.64870   0.71510   0.01267  Uiso   1.00
H363   H     0.35690   0.49290   0.36030   0.01267  Uiso   1.00
H364   H     0.17510   0.32450   0.32450   0.01267  Uiso   1.00
H365   H     0.39490   0.20530   0.58570   0.01267  Uiso   1.00
H366   H     0.54630   0.73410   0.12810   0.01267  Uiso   1.00
H367   H     0.96130   0.09710   0.84450   0.01267  Uiso   1.00
H368   H     0.57210   0.53930   0.81650   0.01267  Uiso   1.00
H369   H     0.82450   0.32450   0.67510   0.01267  Uiso   1.00
H370   H     0.62810   0.73410   0.59150   0.01267  Uiso   1.00
H371   H     0.21510   0.56810   0.56810   0.01267  Uiso   1.00
H372   H     0.78490   0.43190   0.43190   0.01267  Uiso   1.00
H373   H     0.87600   0.29780   0.59500   0.01267  Uiso   1.00
H374   H     0.39490   0.58570   0.81410   0.01267  Uiso   1.00
H375   H     0.29470   0.18590   0.10510   0.01267  Uiso   1.00
H376   H     0.09500   0.29780   0.37600   0.01267  Uiso   1.00
H377   H     0.80770   0.94630   0.79950   0.01267  Uiso   1.00
H378   H     0.29470   0.10510   0.41430   0.01267  Uiso   1.00
H379   H     0.23410   0.12810   0.59150   0.01267  Uiso   1.00
H380   H     0.71010   0.50710   0.14310   0.01267  Uiso   1.00
H381   H     0.55370   0.69230   0.55350   0.01267  Uiso   1.00
H382   H     0.90500   0.76880   0.62400   0.01267  Uiso   1.00
H383   H     0.54630   0.12810   0.59150   0.01267  Uiso   1.00
H384   H     0.09500   0.37600   0.23120   0.01267  Uiso   1.00
H385   H     0.65550   0.53870   0.90290   0.01267  Uiso   1.00
H386   H     0.70010   0.27970   0.27970   0.01267  Uiso   1.00
H387   H     0.32410   0.32490   0.67550   0.01267  Uiso   1.00
H388   H     0.70530   0.89490   0.81410   0.01267  Uiso   1.00
H389   H     0.77970   0.27970   0.20010   0.01267  Uiso   1.00
H390   H     0.55370   0.55350   0.20050   0.01267  Uiso   1.00
H391   H     0.28990   0.36030   0.85690   0.01267  Uiso   1.00
H392   H     0.29470   0.41430   0.18590   0.01267  Uiso   1.00
H393   H     0.35690   0.78990   0.49290   0.01267  Uiso   1.00
H394   H     0.29950   0.30770   0.44650   0.01267  Uiso   1.00
H395   H     0.00710   0.63970   0.14310   0.01267  Uiso   1.00
H396   H     0.60510   0.41430   0.79470   0.01267  Uiso   1.00
H397   H     0.82490   0.67550   0.67550   0.01267  Uiso   1.00
H398   H     0.68590   0.10510   0.41430   0.01267  Uiso   1.00
H399   H     0.93190   0.43190   0.35130   0.01267  Uiso   1.00
H400   H     0.86030   0.85690   0.78990   0.01267  Uiso   1.00
H401   H     0.28990   0.36030   0.49290   0.01267  Uiso   1.00
H402   H     0.59710   0.46130   0.09710   0.01267  Uiso   1.00
H403   H     0.24050   0.27970   0.27970   0.01267  Uiso   1.00
H404   H     0.29990   0.72030   0.72030   0.01267  Uiso   1.00
H405   H     0.59710   0.84450   0.46130   0.01267  Uiso   1.00
H406   H     0.28990   0.49290   0.85690   0.01267  Uiso   1.00
H407   H     0.57210   0.81650   0.07210   0.01267  Uiso   1.00
H408   H     0.41090   0.27590   0.54410   0.01267  Uiso   1.00
C1     C     0.10602   0.31222   0.35842   0.01267  Uiso   1.00
C2     C     0.15364   0.19096   0.32770   0.01267  Uiso   1.00
C3     C     0.61517   0.80127   0.16307   0.01267  Uiso   1.00
C4     C     0.65952   0.45052   0.83008   0.01267  Uiso   1.00
C5     C     0.38483   0.83693   0.57951   0.01267  Uiso   1.00
C6     C     0.14121   0.56759   0.10501   0.01267  Uiso   1.00
C7     C     0.78492   0.23780   0.73948   0.01267  Uiso   1.00
C8     C     0.70600   0.87220   0.97300   0.01267  Uiso   1.00
C9     C     0.02252   0.77850   0.31804   0.01267  Uiso   1.00
C10    C     0.93848   0.82156   0.14362   0.01267  Uiso   1.00
C11    C     0.61906   0.22150   0.68196   0.01267  Uiso   1.00
C12    C     0.06390   0.61070   0.71470   0.01267  Uiso   1.00
C13    C     0.17230   0.34636   0.67230   0.01267  Uiso   1.00
C14    C     0.71101   0.65819   0.50661   0.01267  Uiso   1.00
C15    C     0.97620   0.70870   0.22380   0.01267  Uiso   1.00
C16    C     0.29400   0.02700   0.12780   0.01267  Uiso   1.00
C17    C     0.08520   0.10940   0.06040   0.01267  Uiso   1.00
C18    C     0.29400   0.55120   0.02700   0.01267  Uiso   1.00
C19    C     0.41230   0.27110   0.40430   0.01267  Uiso   1.00
C20    C     0.79130   0.77620   0.52380   0.01267  Uiso   1.00
C21    C     0.70600   0.44880   0.97300   0.01267  Uiso   1.00
C22    C     0.94632   0.22752   0.67908   0.01267  Uiso   1.00
C23    C     0.41230   0.40430   0.91230   0.01267  Uiso   1.00
C24    C     0.45880   0.49940   0.78560   0.01267  Uiso   1.00
C25    C     0.08914   0.85040   0.21006   0.01267  Uiso   1.00
C26    C     0.96593   0.92913   0.79467   0.01267  Uiso   1.00
C27    C     0.71570   0.06746   0.71268   0.01267  Uiso   1.00
C28    C     0.29822   0.33602   0.90118   0.01267  Uiso   1.00
C29    C     0.17230   0.34636   0.80904   0.01267  Uiso   1.00
C30    C     0.16190   0.66190   0.40954   0.01267  Uiso   1.00
C31    C     0.18196   0.11906   0.47748   0.01267  Uiso   1.00
C32    C     0.27620   0.52380   0.29130   0.01267  Uiso   1.00
C33    C     0.60220   0.56480   0.77820   0.01267  Uiso   1.00
C34    C     0.28430   0.28732   0.93254   0.01267  Uiso   1.00
C35    C     0.32980   0.82980   0.23526   0.01267  Uiso   1.00
C36    C     0.80587   0.20189   0.35441   0.01267  Uiso   1.00
C37    C     0.38960   0.55192   0.16888   0.01267  Uiso   1.00
C38    C     0.18778   0.64158   0.77666   0.01267  Uiso   1.00
C39    C     0.57570   0.55370   0.79490   0.01267  Uiso   1.00
C40    C     0.10602   0.31222   0.22334   0.01267  Uiso   1.00
C41    C     0.34048   0.54948   0.16992   0.01267  Uiso   1.00
C42    C     0.21484   0.57900   0.62716   0.01267  Uiso   1.00
C43    C     0.96850   0.37110   0.28930   0.01267  Uiso   1.00
C44    C     0.29400   0.02700   0.55120   0.01267  Uiso   1.00
C45    C     0.16190   0.40954   0.76666   0.01267  Uiso   1.00
C46    C     0.70600   0.44880   0.87220   0.01267  Uiso   1.00
C47    C     0.44520   0.22180   0.43520   0.01267  Uiso   1.00
C48    C     0.09570   0.08770   0.08770   0.01267  Uiso   1.00
C49    C     0.60501   0.18619   0.64121   0.01267  Uiso   1.00
C50    C     0.70533   0.07087   0.53407   0.01267  Uiso   1.00
C51    C     0.12890   0.71070   0.53150   0.01267  Uiso   1.00
C52    C     0.70189   0.35441   0.63783   0.01267  Uiso   1.00
C53    C     0.38094   0.52252   0.31804   0.01267  Uiso   1.00
C54    C     0.06759   0.10501   0.18619   0.01267  Uiso   1.00
C55    C     0.89486   0.76474   0.17020   0.01267  Uiso   1.00
C56    C     0.27810   0.73090   0.73090   0.01267  Uiso   1.00
C57    C     0.72150   0.68196   0.47748   0.01267  Uiso   1.00
C58    C     0.35638   0.56152   0.90366   0.01267  Uiso   1.00
C59    C     0.44012   0.54948   0.84048   0.01267  Uiso   1.00
C60    C     0.64960   0.78994   0.41086   0.01267  Uiso   1.00
C61    C     0.26666   0.40954   0.66190   0.01267  Uiso   1.00
C62    C     0.21508   0.76220   0.26052   0.01267  Uiso   1.00
C63    C     0.03407   0.07087   0.68973   0.01267  Uiso   1.00
C64    C     0.96593   0.79467   0.31027   0.01267  Uiso   1.00
C65    C     0.70510   0.92430   0.92430   0.01267  Uiso   1.00
C66    C     0.79130   0.52380   0.77620   0.01267  Uiso   1.00
C67    C     0.89398   0.77666   0.68778   0.01267  Uiso   1.00
C68    C     0.99339   0.87581   0.78899   0.01267  Uiso   1.00
C69    C     0.62780   0.55120   0.79400   0.01267  Uiso   1.00
C70    C     0.54120   0.21440   0.50060   0.01267  Uiso   1.00
C71    C     0.86217   0.69413   0.64559   0.01267  Uiso   1.00
C72    C     0.81027   0.79467   0.46593   0.01267  Uiso   1.00
C73    C     0.72752   0.67908   0.44632   0.01267  Uiso   1.00
C74    C     0.17230   0.80904   0.67230   0.01267  Uiso   1.00
C75    C     0.40118   0.79822   0.33602   0.01267  Uiso   1.00
C76    C     0.45880   0.25620   0.78560   0.01267  Uiso   1.00
C77    C     0.93241   0.35879   0.89499   0.01267  Uiso   1.00
C78    C     0.27248   0.55368   0.32092   0.01267  Uiso   1.00
C79    C     0.55988   0.45052   0.83008   0.01267  Uiso   1.00
C80    C     0.72334   0.31222   0.60602   0.01267  Uiso   1.00
C81    C     0.29822   0.46458   0.90118   0.01267  Uiso   1.00
C82    C     0.40870   0.77620   0.29130   0.01267  Uiso   1.00
C83    C     0.58770   0.08770   0.59570   0.01267  Uiso   1.00
C84    C     0.57087   0.68973   0.20533   0.01267  Uiso   1.00
C85    C     0.82770   0.65364   0.19096   0.01267  Uiso   1.00
C86    C     0.71570   0.06746   0.50416   0.01267  Uiso   1.00
C87    C     0.54120   0.21440   0.74380   0.01267  Uiso   1.00
C88    C     0.54120   0.50060   0.74380   0.01267  Uiso   1.00
C89    C     0.21070   0.53150   0.62890   0.01267  Uiso   1.00
C90    C     0.60940   0.58520   0.06040   0.01267  Uiso   1.00
C91    C     0.32980   0.60514   0.82980   0.01267  Uiso   1.00
C92    C     0.91086   0.78994   0.14960   0.01267  Uiso   1.00
C93    C     0.96593   0.31027   0.79467   0.01267  Uiso   1.00
C94    C     0.62419   0.50661   0.21101   0.01267  Uiso   1.00
C95    C     0.39499   0.81381   0.43241   0.01267  Uiso   1.00
C96    C     0.59130   0.22380   0.47620   0.01267  Uiso   1.00
C97    C     0.81222   0.22334   0.60602   0.01267  Uiso   1.00
C98    C     0.24500   0.06040   0.58520   0.01267  Uiso   1.00
C99    C     0.97748   0.68196   0.11906   0.01267  Uiso   1.00
C100   C     0.61040   0.11040   0.44808   0.01267  Uiso   1.00
C101   C     0.82138   0.22080   0.73702   0.01267  Uiso   1.00
C102   C     0.66307   0.80127   0.42049   0.01267  Uiso   1.00
C103   C     0.59130   0.70870   0.22380   0.01267  Uiso   1.00
C104   C     0.84636   0.67230   0.80904   0.01267  Uiso   1.00
C105   C     0.37581   0.49339   0.78899   0.01267  Uiso   1.00
C106   C     0.45880   0.78560   0.49940   0.01267  Uiso   1.00
C107   C     0.59130   0.47620   0.22380   0.01267  Uiso   1.00
C108   C     0.72180   0.94520   0.43520   0.01267  Uiso   1.00
C109   C     0.14121   0.10501   0.18619   0.01267  Uiso   1.00
C110   C     0.18973   0.07087   0.20533   0.01267  Uiso   1.00
C111   C     0.68619   0.64121   0.10501   0.01267  Uiso   1.00
C112   C     0.27920   0.26298   0.77920   0.01267  Uiso   1.00
C113   C     0.40870   0.52380   0.29130   0.01267  Uiso   1.00
C114   C     0.23702   0.32138   0.22080   0.01267  Uiso   1.00
C115   C     0.00416   0.21570   0.71268   0.01267  Uiso   1.00
C116   C     0.85879   0.81381   0.43241   0.01267  Uiso   1.00
C117   C     0.29490   0.07570   0.07570   0.01267  Uiso   1.00
C118   C     0.29400   0.12780   0.02700   0.01267  Uiso   1.00
C119   C     0.17862   0.77920   0.26298   0.01267  Uiso   1.00
C120   C     0.81804   0.88094   0.52252   0.01267  Uiso   1.00
C121   C     0.16398   0.53542   0.20178   0.01267  Uiso   1.00
C122   C     0.66888   0.55192   0.88960   0.01267  Uiso   1.00
C123   C     0.93610   0.38930   0.38930   0.01267  Uiso   1.00
C124   C     0.27850   0.31804   0.52252   0.01267  Uiso   1.00
C125   C     0.84410   0.72350   0.80662   0.01267  Uiso   1.00
C126   C     0.27850   0.31804   0.88094   0.01267  Uiso   1.00
C127   C     0.03542   0.09882   0.20178   0.01267  Uiso   1.00
C128   C     0.69873   0.83693   0.57951   0.01267  Uiso   1.00
C129   C     0.00661   0.12419   0.65819   0.01267  Uiso   1.00
C130   C     0.28899   0.87581   0.34181   0.01267  Uiso   1.00
C131   C     0.73780   0.23780   0.73948   0.01267  Uiso   1.00
C132   C     0.29490   0.55370   0.07570   0.01267  Uiso   1.00
C133   C     0.57570   0.79490   0.55370   0.01267  Uiso   1.00
C134   C     0.05120   0.02700   0.79400   0.01267  Uiso   1.00
C135   C     0.16190   0.76666   0.66190   0.01267  Uiso   1.00
C136   C     0.00661   0.12419   0.21101   0.01267  Uiso   1.00
C137   C     0.56746   0.50416   0.21570   0.01267  Uiso   1.00
C138   C     0.85441   0.20189   0.63783   0.01267  Uiso   1.00
C139   C     0.84636   0.67230   0.67230   0.01267  Uiso   1.00
C140   C     0.47300   0.44880   0.87220   0.01267  Uiso   1.00
C141   C     0.84181   0.78899   0.87581   0.01267  Uiso   1.00
C142   C     0.79130   0.77620   0.90870   0.01267  Uiso   1.00
C143   C     0.32980   0.60514   0.23526   0.01267  Uiso   1.00
C144   C     0.02252   0.31804   0.77850   0.01267  Uiso   1.00
C145   C     0.59130   0.70870   0.47620   0.01267  Uiso   1.00
C146   C     0.62419   0.21101   0.65819   0.01267  Uiso   1.00
C147   C     0.41230   0.91230   0.27110   0.01267  Uiso   1.00
C148   C     0.29467   0.92913   0.31027   0.01267  Uiso   1.00
C149   C     0.77650   0.37422   0.65590   0.01267  Uiso   1.00
C150   C     0.61906   0.68196   0.47748   0.01267  Uiso   1.00
C151   C     0.23948   0.23780   0.23780   0.01267  Uiso   1.00
C152   C     0.00416   0.21570   0.06746   0.01267  Uiso   1.00
C153   C     0.29467   0.46593   0.31027   0.01267  Uiso   1.00
C154   C     0.78492   0.23780   0.23780   0.01267  Uiso   1.00
C155   C     0.75844   0.34140   0.55876   0.01267  Uiso   1.00
C156   C     0.64362   0.82156   0.43848   0.01267  Uiso   1.00
C157   C     0.59130   0.47620   0.70870   0.01267  Uiso   1.00
C158   C     0.17908   0.22752   0.14708   0.01267  Uiso   1.00
C159   C     0.58770   0.59570   0.72890   0.01267  Uiso   1.00
C160   C     0.78732   0.49584   0.93254   0.01267  Uiso   1.00
C161   C     0.55480   0.77820   0.10220   0.01267  Uiso   1.00
C162   C     0.13783   0.20189   0.35441   0.01267  Uiso   1.00
C163   C     0.69873   0.57951   0.83693   0.01267  Uiso   1.00
C164   C     0.21268   0.21570   0.06746   0.01267  Uiso   1.00
C165   C     0.39499   0.35879   0.43241   0.01267  Uiso   1.00
C166   C     0.10602   0.35842   0.31222   0.01267  Uiso   1.00
C167   C     0.14559   0.36217   0.79811   0.01267  Uiso   1.00
C168   C     0.94632   0.67908   0.22752   0.01267  Uiso   1.00
C169   C     0.66888   0.88960   0.88960   0.01267  Uiso   1.00
C170   C     0.99339   0.34181   0.78899   0.01267  Uiso   1.00
C171   C     0.02252   0.77850   0.88094   0.01267  Uiso   1.00
C172   C     0.13783   0.20189   0.30587   0.01267  Uiso   1.00
C173   C     0.15590   0.37422   0.27650   0.01267  Uiso   1.00
C174   C     0.27666   0.68778   0.64158   0.01267  Uiso   1.00
C175   C     0.59580   0.61540   0.69300   0.01267  Uiso   1.00
C176   C     0.33112   0.11040   0.11040   0.01267  Uiso   1.00
C177   C     0.29811   0.36217   0.64559   0.01267  Uiso   1.00
C178   C     0.58770   0.08770   0.72890   0.01267  Uiso   1.00
C179   C     0.41230   0.40430   0.27110   0.01267  Uiso   1.00
C180   C     0.76910   0.22190   0.26910   0.01267  Uiso   1.00
C181   C     0.84410   0.80662   0.72350   0.01267  Uiso   1.00
C182   C     0.66307   0.42049   0.80127   0.01267  Uiso   1.00
C183   C     0.14158   0.68778   0.77666   0.01267  Uiso   1.00
C184   C     0.00416   0.06746   0.71268   0.01267  Uiso   1.00
C185   C     0.62780   0.02700   0.55120   0.01267  Uiso   1.00
C186   C     0.70178   0.66398   0.53542   0.01267  Uiso   1.00
C187   C     0.68619   0.10501   0.56759   0.01267  Uiso   1.00
C188   C     0.92100   0.28516   0.42100   0.01267  Uiso   1.00
C189   C     0.62780   0.55120   0.02700   0.01267  Uiso   1.00
C190   C     0.67020   0.17020   0.76474   0.01267  Uiso   1.00
C191   C     0.39060   0.25500   0.41480   0.01267  Uiso   1.00
C192   C     0.23948   0.28492   0.23780   0.01267  Uiso   1.00
C193   C     0.97620   0.22380   0.09130   0.01267  Uiso   1.00
C194   C     0.33008   0.15952   0.45052   0.01267  Uiso   1.00
C195   C     0.75620   0.95880   0.78560   0.01267  Uiso   1.00
C196   C     0.72180   0.43520   0.94520   0.01267  Uiso   1.00
C197   C     0.83810   0.59046   0.33810   0.01267  Uiso   1.00
C198   C     0.15860   0.65860   0.74156   0.01267  Uiso   1.00
C199   C     0.95052   0.15952   0.05988   0.01267  Uiso   1.00
C200   C     0.60940   0.58520   0.74500   0.01267  Uiso   1.00
C201   C     0.15860   0.74156   0.65860   0.01267  Uiso   1.00
C202   C     0.30662   0.62578   0.34410   0.01267  Uiso   1.00
C203   C     0.96593   0.79467   0.92913   0.01267  Uiso   1.00
C204   C     0.23990   0.26910   0.26910   0.01267  Uiso   1.00
C205   C     0.40366   0.85638   0.56152   0.01267  Uiso   1.00
C206   C     0.85842   0.22334   0.60602   0.01267  Uiso   1.00
C207   C     0.33693   0.57951   0.88483   0.01267  Uiso   1.00
C208   C     0.82770   0.32770   0.19096   0.01267  Uiso   1.00
C209   C     0.87110   0.37110   0.46850   0.01267  Uiso   1.00
C210   C     0.54120   0.74380   0.50060   0.01267  Uiso   1.00
C211   C     0.42913   0.79467   0.46593   0.01267  Uiso   1.00
C212   C     0.29811   0.64559   0.36217   0.01267  Uiso   1.00
C213   C     0.71101   0.12419   0.65819   0.01267  Uiso   1.00
C214   C     0.05368   0.85292   0.77248   0.01267  Uiso   1.00
C215   C     0.06152   0.85638   0.17844   0.01267  Uiso   1.00
C216   C     0.26666   0.66190   0.66190   0.01267  Uiso   1.00
C217   C     0.67020   0.76474   0.17020   0.01267  Uiso   1.00
C218   C     0.35292   0.32092   0.55368   0.01267  Uiso   1.00
C219   C     0.34048   0.16992   0.94012   0.01267  Uiso   1.00
C220   C     0.96458   0.90118   0.79822   0.01267  Uiso   1.00
C221   C     0.05876   0.34140   0.25844   0.01267  Uiso   1.00
C222   C     0.69338   0.37422   0.65590   0.01267  Uiso   1.00
C223   C     0.77650   0.19338   0.65590   0.01267  Uiso   1.00
C224   C     0.24380   0.21440   0.50060   0.01267  Uiso   1.00
C225   C     0.59580   0.09580   0.61540   0.01267  Uiso   1.00
C226   C     0.64960   0.78994   0.14960   0.01267  Uiso   1.00
C227   C     0.87422   0.65590   0.27650   0.01267  Uiso   1.00
C228   C     0.99584   0.78430   0.93254   0.01267  Uiso   1.00
C229   C     0.44520   0.43520   0.89780   0.01267  Uiso   1.00
C230   C     0.35040   0.58914   0.21006   0.01267  Uiso   1.00
C231   C     0.13783   0.35441   0.20189   0.01267  Uiso   1.00
C232   C     0.00661   0.65819   0.12419   0.01267  Uiso   1.00
C233   C     0.58770   0.72890   0.59570   0.01267  Uiso   1.00
C234   C     0.57087   0.53407   0.20533   0.01267  Uiso   1.00
C235   C     0.10602   0.22334   0.31222   0.01267  Uiso   1.00
C236   C     0.04948   0.94012   0.16992   0.01267  Uiso   1.00
C237   C     0.02380   0.29130   0.77620   0.01267  Uiso   1.00
C238   C     0.70178   0.53542   0.66398   0.01267  Uiso   1.00
C239   C     0.91480   0.93960   0.89060   0.01267  Uiso   1.00
C240   C     0.38483   0.19873   0.57951   0.01267  Uiso   1.00
C241   C     0.93241   0.81381   0.35879   0.01267  Uiso   1.00
C242   C     0.52700   0.12780   0.79400   0.01267  Uiso   1.00
C243   C     0.24500   0.06040   0.10940   0.01267  Uiso   1.00
C244   C     0.55988   0.15952   0.45052   0.01267  Uiso   1.00
C245   C     0.93520   0.22180   0.94520   0.01267  Uiso   1.00
C246   C     0.18778   0.39398   0.77666   0.01267  Uiso   1.00
C247   C     0.07900   0.57900   0.71484   0.01267  Uiso   1.00
C248   C     0.69096   0.32770   0.32770   0.01267  Uiso   1.00
C249   C     0.23702   0.22080   0.22080   0.01267  Uiso   1.00
C250   C     0.69873   0.88483   0.57951   0.01267  Uiso   1.00
C251   C     0.88930   0.43610   0.38930   0.01267  Uiso   1.00
C252   C     0.12890   0.53150   0.62890   0.01267  Uiso   1.00
C253   C     0.76010   0.73090   0.73090   0.01267  Uiso   1.00
C254   C     0.24156   0.65860   0.44124   0.01267  Uiso   1.00
C255   C     0.61517   0.42049   0.80127   0.01267  Uiso   1.00
C256   C     0.43254   0.78430   0.28732   0.01267  Uiso   1.00
C257   C     0.29811   0.69413   0.36217   0.01267  Uiso   1.00
C258   C     0.02380   0.77620   0.90870   0.01267  Uiso   1.00
C259   C     0.67020   0.76474   0.39486   0.01267  Uiso   1.00
C260   C     0.07951   0.83693   0.88483   0.01267  Uiso   1.00
C261   C     0.21268   0.50416   0.06746   0.01267  Uiso   1.00
C262   C     0.19413   0.64559   0.36217   0.01267  Uiso   1.00
C263   C     0.28560   0.95880   0.49940   0.01267  Uiso   1.00
C264   C     0.20870   0.22380   0.09130   0.01267  Uiso   1.00
C265   C     0.72752   0.14708   0.67908   0.01267  Uiso   1.00
C266   C     0.26220   0.76220   0.26052   0.01267  Uiso   1.00
C267   C     0.38483   0.57951   0.19873   0.01267  Uiso   1.00
C268   C     0.27820   0.56480   0.05480   0.01267  Uiso   1.00
C269   C     0.99584   0.93254   0.78430   0.01267  Uiso   1.00
C270   C     0.38483   0.19873   0.83693   0.01267  Uiso   1.00
C271   C     0.96850   0.37110   0.37110   0.01267  Uiso   1.00
C272   C     0.75500   0.93960   0.41480   0.01267  Uiso   1.00
C273   C     0.59882   0.53542   0.20178   0.01267  Uiso   1.00
C274   C     0.76052   0.76220   0.76220   0.01267  Uiso   1.00
C275   C     0.09570   0.08770   0.72890   0.01267  Uiso   1.00
C276   C     0.34048   0.94012   0.16992   0.01267  Uiso   1.00
C277   C     0.13783   0.30587   0.35441   0.01267  Uiso   1.00
C278   C     0.65952   0.83008   0.05988   0.01267  Uiso   1.00
C279   C     0.52700   0.55120   0.79400   0.01267  Uiso   1.00
C280   C     0.72190   0.73990   0.26910   0.01267  Uiso   1.00
C281   C     0.10514   0.23526   0.82980   0.01267  Uiso   1.00
C282   C     0.52700   0.12780   0.55120   0.01267  Uiso   1.00
C283   C     0.06152   0.90366   0.17844   0.01267  Uiso   1.00
C284   C     0.05192   0.88960   0.16888   0.01267  Uiso   1.00
C285   C     0.76910   0.73990   0.26910   0.01267  Uiso   1.00
C286   C     0.07951   0.19873   0.83693   0.01267  Uiso   1.00
C287   C     0.15819   0.21101   0.12419   0.01267  Uiso   1.00
C288   C     0.29467   0.92913   0.46593   0.01267  Uiso   1.00
C289   C     0.59634   0.82156   0.43848   0.01267  Uiso   1.00
C290   C     0.78732   0.78430   0.49584   0.01267  Uiso   1.00
C291   C     0.04948   0.16992   0.84048   0.01267  Uiso   1.00
C292   C     0.72380   0.70870   0.09130   0.01267  Uiso   1.00
C293   C     0.56040   0.74500   0.58520   0.01267  Uiso   1.00
C294   C     0.26220   0.71508   0.76220   0.01267  Uiso   1.00
C295   C     0.71101   0.65819   0.12419   0.01267  Uiso   1.00
C296   C     0.29811   0.69413   0.64559   0.01267  Uiso   1.00
C297   C     0.14559   0.69413   0.36217   0.01267  Uiso   1.00
C298   C     0.94630   0.92430   0.20510   0.01267  Uiso   1.00
C299   C     0.05120   0.79400   0.02700   0.01267  Uiso   1.00
C300   C     0.86217   0.69413   0.79811   0.01267  Uiso   1.00
C301   C     0.92049   0.80127   0.16307   0.01267  Uiso   1.00
C302   C     0.23990   0.26910   0.22190   0.01267  Uiso   1.00
C303   C     0.15590   0.37422   0.19338   0.01267  Uiso   1.00
C304   C     0.89398   0.77666   0.64158   0.01267  Uiso   1.00
C305   C     0.91480   0.89060   0.93960   0.01267  Uiso   1.00
C306   C     0.43960   0.25500   0.41480   0.01267  Uiso   1.00
C307   C     0.12578   0.34410   0.72350   0.01267  Uiso   1.00
C308   C     0.39499   0.35879   0.81381   0.01267  Uiso   1.00
C309   C     0.93848   0.82156   0.09634   0.01267  Uiso   1.00
C310   C     0.82770   0.32770   0.65364   0.01267  Uiso   1.00
C311   C     0.22350   0.80662   0.62578   0.01267  Uiso   1.00
C312   C     0.23090   0.26010   0.73090   0.01267  Uiso   1.00
C313   C     0.30662   0.34410   0.62578   0.01267  Uiso   1.00
C314   C     0.05368   0.32092   0.77248   0.01267  Uiso   1.00
C315   C     0.24380   0.04120   0.21440   0.01267  Uiso   1.00
C316   C     0.35292   0.77248   0.55368   0.01267  Uiso   1.00
C317   C     0.64362   0.43848   0.82156   0.01267  Uiso   1.00
C318   C     0.73780   0.73948   0.23780   0.01267  Uiso   1.00
C319   C     0.64960   0.41086   0.14960   0.01267  Uiso   1.00
C320   C     0.89398   0.68778   0.64158   0.01267  Uiso   1.00
C321   C     0.47300   0.20600   0.44880   0.01267  Uiso   1.00
C322   C     0.70510   0.92430   0.44630   0.01267  Uiso   1.00
C323   C     0.29400   0.12780   0.55120   0.01267  Uiso   1.00
C324   C     0.12578   0.80662   0.72350   0.01267  Uiso   1.00
C325   C     0.83602   0.79822   0.90118   0.01267  Uiso   1.00
C326   C     0.33008   0.45052   0.15952   0.01267  Uiso   1.00
C327   C     0.40870   0.29130   0.77620   0.01267  Uiso   1.00
C328   C     0.27666   0.39398   0.68778   0.01267  Uiso   1.00
C329   C     0.90954   0.66190   0.76666   0.01267  Uiso   1.00
C330   C     0.72180   0.89780   0.43520   0.01267  Uiso   1.00
C331   C     0.28994   0.41086   0.14960   0.01267  Uiso   1.00
C332   C     0.32980   0.23526   0.82980   0.01267  Uiso   1.00
C333   C     0.16190   0.76666   0.40954   0.01267  Uiso   1.00
C334   C     0.30127   0.42049   0.16307   0.01267  Uiso   1.00
C335   C     0.27620   0.90870   0.52380   0.01267  Uiso   1.00
C336   C     0.39780   0.43520   0.22180   0.01267  Uiso   1.00
C337   C     0.11540   0.69300   0.09580   0.01267  Uiso   1.00
C338   C     0.44520   0.89780   0.43520   0.01267  Uiso   1.00
C339   C     0.06480   0.77820   0.10220   0.01267  Uiso   1.00
C340   C     0.81222   0.60602   0.22334   0.01267  Uiso   1.00
C341   C     0.62780   0.79400   0.55120   0.01267  Uiso   1.00
C342   C     0.19413   0.64559   0.79811   0.01267  Uiso   1.00
C343   C     0.61040   0.44808   0.11040   0.01267  Uiso   1.00
C344   C     0.92100   0.37284   0.28516   0.01267  Uiso   1.00
C345   C     0.17908   0.44632   0.22752   0.01267  Uiso   1.00
C346   C     0.15860   0.44124   0.65860   0.01267  Uiso   1.00
C347   C     0.76052   0.71508   0.76220   0.01267  Uiso   1.00
C348   C     0.27850   0.88094   0.52252   0.01267  Uiso   1.00
C349   C     0.37220   0.44880   0.20600   0.01267  Uiso   1.00
C350   C     0.28899   0.49339   0.34181   0.01267  Uiso   1.00
C351   C     0.72334   0.35842   0.60602   0.01267  Uiso   1.00
C352   C     0.15819   0.50661   0.12419   0.01267  Uiso   1.00
C353   C     0.08520   0.74500   0.10940   0.01267  Uiso   1.00
C354   C     0.00060   0.04120   0.74380   0.01267  Uiso   1.00
C355   C     0.97620   0.09130   0.22380   0.01267  Uiso   1.00
C356   C     0.89398   0.68778   0.77666   0.01267  Uiso   1.00
C357   C     0.77650   0.19338   0.37422   0.01267  Uiso   1.00
C358   C     0.71570   0.50416   0.71268   0.01267  Uiso   1.00
C359   C     0.81222   0.35842   0.60602   0.01267  Uiso   1.00
C360   C     0.18973   0.20533   0.07087   0.01267  Uiso   1.00
C361   C     0.19300   0.09580   0.09580   0.01267  Uiso   1.00
C362   C     0.75844   0.34140   0.34140   0.01267  Uiso   1.00
C363   C     0.69873   0.88483   0.83693   0.01267  Uiso   1.00
C364   C     0.05368   0.32092   0.85292   0.01267  Uiso   1.00
C365   C     0.18973   0.07087   0.53407   0.01267  Uiso   1.00
C366   C     0.45880   0.49940   0.25620   0.01267  Uiso   1.00
C367   C     0.22350   0.34410   0.80662   0.01267  Uiso   1.00
C368   C     0.37220   0.20600   0.44880   0.01267  Uiso   1.00
C369   C     0.61906   0.47748   0.68196   0.01267  Uiso   1.00
C370   C     0.76298   0.77920   0.77920   0.01267  Uiso   1.00
C371   C     0.12890   0.62890   0.53150   0.01267  Uiso   1.00
C372   C     0.76010   0.77810   0.73090   0.01267  Uiso   1.00
C373   C     0.20870   0.22380   0.47620   0.01267  Uiso   1.00
C374   C     0.76052   0.76220   0.71508   0.01267  Uiso   1.00
C375   C     0.40366   0.56152   0.17844   0.01267  Uiso   1.00
C376   C     0.87110   0.28930   0.37110   0.01267  Uiso   1.00
C377   C     0.43254   0.49584   0.28732   0.01267  Uiso   1.00
C378   C     0.69873   0.57951   0.88483   0.01267  Uiso   1.00
C379   C     0.67844   0.56152   0.85638   0.01267  Uiso   1.00
C380   C     0.75620   0.78560   0.49940   0.01267  Uiso   1.00
C381   C     0.87422   0.27650   0.19338   0.01267  Uiso   1.00
C382   C     0.87422   0.65590   0.19338   0.01267  Uiso   1.00
C383   C     0.76910   0.22190   0.73990   0.01267  Uiso   1.00
C384   C     0.40118   0.79822   0.46458   0.01267  Uiso   1.00
C385   C     0.39060   0.41480   0.25500   0.01267  Uiso   1.00
C386   C     0.27820   0.05480   0.10220   0.01267  Uiso   1.00
C387   C     0.12716   0.57900   0.57900   0.01267  Uiso   1.00
C388   C     0.17230   0.67230   0.80904   0.01267  Uiso   1.00
C389   C     0.21070   0.62890   0.62890   0.01267  Uiso   1.00
C390   C     0.38094   0.31804   0.52252   0.01267  Uiso   1.00
C391   C     0.57087   0.20533   0.68973   0.01267  Uiso   1.00
C392   C     0.15590   0.19338   0.27650   0.01267  Uiso   1.00
C393   C     0.03150   0.62890   0.62890   0.01267  Uiso   1.00
C394   C     0.21470   0.56390   0.61070   0.01267  Uiso   1.00
C395   C     0.78930   0.46850   0.37110   0.01267  Uiso   1.00
C396   C     0.30904   0.34636   0.67230   0.01267  Uiso   1.00
C397   C     0.34048   0.16992   0.54948   0.01267  Uiso   1.00
C398   C     0.70510   0.44630   0.92430   0.01267  Uiso   1.00
C399   C     0.40366   0.85638   0.17844   0.01267  Uiso   1.00
C400   C     0.80587   0.63783   0.35441   0.01267  Uiso   1.00
C401   C     0.85441   0.63783   0.20189   0.01267  Uiso   1.00
C402   C     0.90430   0.91230   0.91230   0.01267  Uiso   1.00
C403   C     0.05876   0.34140   0.34140   0.01267  Uiso   1.00
C404   C     0.00060   0.21440   0.74380   0.01267  Uiso   1.00
C405   C     0.94808   0.11040   0.83112   0.01267  Uiso   1.00
C406   C     0.58770   0.72890   0.08770   0.01267  Uiso   1.00
C407   C     0.05368   0.77248   0.32092   0.01267  Uiso   1.00
C408   C     0.87110   0.46850   0.37110   0.01267  Uiso   1.00
C409   C     0.78930   0.37110   0.46850   0.01267  Uiso   1.00
C410   C     0.03150   0.62890   0.71070   0.01267  Uiso   1.00
C411   C     0.14158   0.39398   0.68778   0.01267  Uiso   1.00
C412   C     0.88930   0.43610   0.28530   0.01267  Uiso   1.00
C413   C     0.11070   0.61070   0.71470   0.01267  Uiso   1.00
C414   C     0.35638   0.17844   0.56152   0.01267  Uiso   1.00
C415   C     0.10514   0.82980   0.82980   0.01267  Uiso   1.00
C416   C     0.31381   0.89499   0.43241   0.01267  Uiso   1.00
C417   C     0.71006   0.85040   0.58914   0.01267  Uiso   1.00
C418   C     0.91480   0.25500   0.89060   0.01267  Uiso   1.00
C419   C     0.44520   0.22180   0.89780   0.01267  Uiso   1.00
C420   C     0.28560   0.49940   0.95880   0.01267  Uiso   1.00
C421   C     0.99940   0.78560   0.25620   0.01267  Uiso   1.00
C422   C     0.19300   0.09580   0.61540   0.01267  Uiso   1.00
C423   C     0.47300   0.87220   0.20600   0.01267  Uiso   1.00
C424   C     0.27620   0.29130   0.90870   0.01267  Uiso   1.00
C425   C     0.29822   0.46458   0.33602   0.01267  Uiso   1.00
C426   C     0.27820   0.10220   0.56480   0.01267  Uiso   1.00
C427   C     0.28560   0.95880   0.25620   0.01267  Uiso   1.00
C428   C     0.57087   0.68973   0.53407   0.01267  Uiso   1.00
C429   C     0.59580   0.61540   0.09580   0.01267  Uiso   1.00
C430   C     0.28430   0.93254   0.49584   0.01267  Uiso   1.00
C431   C     0.05192   0.88960   0.88960   0.01267  Uiso   1.00
C432   C     0.06152   0.17844   0.85638   0.01267  Uiso   1.00
C433   C     0.73334   0.59046   0.33810   0.01267  Uiso   1.00
C434   C     0.54120   0.50060   0.21440   0.01267  Uiso   1.00
C435   C     0.07900   0.62716   0.71484   0.01267  Uiso   1.00
C436   C     0.61517   0.80127   0.42049   0.01267  Uiso   1.00
C437   C     0.57570   0.55370   0.07570   0.01267  Uiso   1.00
C438   C     0.17908   0.44632   0.14708   0.01267  Uiso   1.00
C439   C     0.57570   0.07570   0.79490   0.01267  Uiso   1.00
C440   C     0.60501   0.18619   0.56759   0.01267  Uiso   1.00
C441   C     0.59882   0.53542   0.66398   0.01267  Uiso   1.00
C442   C     0.69096   0.65364   0.32770   0.01267  Uiso   1.00
C443   C     0.18778   0.39398   0.64158   0.01267  Uiso   1.00
C444   C     0.61040   0.11040   0.83112   0.01267  Uiso   1.00
C445   C     0.12716   0.57900   0.71484   0.01267  Uiso   1.00
C446   C     0.84140   0.25844   0.34140   0.01267  Uiso   1.00
C447   C     0.21470   0.61070   0.56390   0.01267  Uiso   1.00
C448   C     0.66307   0.11517   0.80127   0.01267  Uiso   1.00
C449   C     0.86217   0.79811   0.69413   0.01267  Uiso   1.00
C450   C     0.85842   0.31222   0.22334   0.01267  Uiso   1.00
C451   C     0.70189   0.35441   0.30587   0.01267  Uiso   1.00
C452   C     0.80587   0.35441   0.20189   0.01267  Uiso   1.00
C453   C     0.57570   0.79490   0.07570   0.01267  Uiso   1.00
C454   C     0.70533   0.68973   0.53407   0.01267  Uiso   1.00
C455   C     0.16190   0.40954   0.66190   0.01267  Uiso   1.00
C456   C     0.32980   0.23526   0.60514   0.01267  Uiso   1.00
C457   C     0.71006   0.58914   0.85040   0.01267  Uiso   1.00
C458   C     0.94124   0.74156   0.65860   0.01267  Uiso   1.00
C459   C     0.37581   0.78899   0.34181   0.01267  Uiso   1.00
C460   C     0.61906   0.22150   0.47748   0.01267  Uiso   1.00
C461   C     0.27248   0.32092   0.55368   0.01267  Uiso   1.00
C462   C     0.80700   0.90420   0.90420   0.01267  Uiso   1.00
C463   C     0.83602   0.46458   0.90118   0.01267  Uiso   1.00
C464   C     0.56040   0.10940   0.74500   0.01267  Uiso   1.00
C465   C     0.77110   0.91230   0.40430   0.01267  Uiso   1.00
C466   C     0.24380   0.21440   0.04120   0.01267  Uiso   1.00
C467   C     0.16398   0.09882   0.20178   0.01267  Uiso   1.00
C468   C     0.67844   0.90366   0.85638   0.01267  Uiso   1.00
C469   C     0.06759   0.10501   0.64121   0.01267  Uiso   1.00
C470   C     0.39780   0.94520   0.43520   0.01267  Uiso   1.00
C471   C     0.03150   0.71070   0.62890   0.01267  Uiso   1.00
C472   C     0.18778   0.77666   0.39398   0.01267  Uiso   1.00
C473   C     0.70600   0.97300   0.44880   0.01267  Uiso   1.00
C474   C     0.26220   0.26052   0.76220   0.01267  Uiso   1.00
C475   C     0.93241   0.89499   0.81381   0.01267  Uiso   1.00
C476   C     0.96458   0.33602   0.90118   0.01267  Uiso   1.00
C477   C     0.42913   0.31027   0.46593   0.01267  Uiso   1.00
C478   C     0.72080   0.73702   0.22080   0.01267  Uiso   1.00
C479   C     0.70600   0.87220   0.44880   0.01267  Uiso   1.00
C480   C     0.70189   0.30587   0.63783   0.01267  Uiso   1.00
C481   C     0.15819   0.12419   0.50661   0.01267  Uiso   1.00
C482   C     0.73526   0.82980   0.82980   0.01267  Uiso   1.00
C483   C     0.78516   0.42100   0.37284   0.01267  Uiso   1.00
C484   C     0.40870   0.29130   0.52380   0.01267  Uiso   1.00
C485   C     0.87110   0.28930   0.46850   0.01267  Uiso   1.00
C486   C     0.70178   0.09882   0.66398   0.01267  Uiso   1.00
C487   C     0.55480   0.10220   0.56480   0.01267  Uiso   1.00
C488   C     0.22350   0.34410   0.62578   0.01267  Uiso   1.00
C489   C     0.52700   0.79400   0.55120   0.01267  Uiso   1.00
C490   C     0.80587   0.35441   0.63783   0.01267  Uiso   1.00
C491   C     0.22890   0.08770   0.08770   0.01267  Uiso   1.00
C492   C     0.77650   0.65590   0.19338   0.01267  Uiso   1.00
C493   C     0.16398   0.20178   0.09882   0.01267  Uiso   1.00
C494   C     0.18196   0.11906   0.22150   0.01267  Uiso   1.00
C495   C     0.94808   0.83112   0.11040   0.01267  Uiso   1.00
C496   C     0.16398   0.20178   0.53542   0.01267  Uiso   1.00
C497   C     0.69096   0.32770   0.65364   0.01267  Uiso   1.00
C498   C     0.29822   0.90118   0.46458   0.01267  Uiso   1.00
C499   C     0.00060   0.74380   0.21440   0.01267  Uiso   1.00
C500   C     0.35638   0.17844   0.90366   0.01267  Uiso   1.00
C501   C     0.95052   0.05988   0.83008   0.01267  Uiso   1.00
C502   C     0.40420   0.38460   0.90420   0.01267  Uiso   1.00
C503   C     0.24500   0.10940   0.06040   0.01267  Uiso   1.00
C504   C     0.05120   0.79400   0.12780   0.01267  Uiso   1.00
C505   C     0.08520   0.06040   0.74500   0.01267  Uiso   1.00
C506   C     0.40366   0.17844   0.85638   0.01267  Uiso   1.00
C507   C     0.87422   0.19338   0.27650   0.01267  Uiso   1.00
C508   C     0.54120   0.74380   0.21440   0.01267  Uiso   1.00
C509   C     0.15590   0.19338   0.37422   0.01267  Uiso   1.00
C510   C     0.60220   0.77820   0.05480   0.01267  Uiso   1.00
C511   C     0.61517   0.16307   0.80127   0.01267  Uiso   1.00
C512   C     0.33112   0.11040   0.44808   0.01267  Uiso   1.00
C513   C     0.40118   0.33602   0.79822   0.01267  Uiso   1.00
C514   C     0.44520   0.43520   0.22180   0.01267  Uiso   1.00
C515   C     0.76298   0.77920   0.67862   0.01267  Uiso   1.00
C516   C     0.72080   0.22080   0.32138   0.01267  Uiso   1.00
C517   C     0.92049   0.11517   0.80127   0.01267  Uiso   1.00
C518   C     0.83810   0.33810   0.59046   0.01267  Uiso   1.00
C519   C     0.88460   0.90420   0.30700   0.01267  Uiso   1.00
C520   C     0.82138   0.73702   0.22080   0.01267  Uiso   1.00
C521   C     0.61517   0.42049   0.16307   0.01267  Uiso   1.00
C522   C     0.07900   0.71484   0.62716   0.01267  Uiso   1.00
C523   C     0.72380   0.09130   0.70870   0.01267  Uiso   1.00
C524   C     0.29822   0.90118   0.33602   0.01267  Uiso   1.00
C525   C     0.05370   0.79490   0.07570   0.01267  Uiso   1.00
C526   C     0.67844   0.90366   0.56152   0.01267  Uiso   1.00
C527   C     0.70189   0.63783   0.30587   0.01267  Uiso   1.00
C528   C     0.93520   0.22180   0.89780   0.01267  Uiso   1.00
C529   C     0.47300   0.20600   0.87220   0.01267  Uiso   1.00
C530   C     0.28430   0.93254   0.28732   0.01267  Uiso   1.00
C531   C     0.78732   0.78430   0.93254   0.01267  Uiso   1.00
C532   C     0.97620   0.70870   0.09130   0.01267  Uiso   1.00
C533   C     0.21070   0.62890   0.53150   0.01267  Uiso   1.00
C534   C     0.87284   0.42100   0.28516   0.01267  Uiso   1.00
C535   C     0.12890   0.62890   0.71070   0.01267  Uiso   1.00
C536   C     0.05120   0.12780   0.02700   0.01267  Uiso   1.00
C537   C     0.43254   0.28732   0.78430   0.01267  Uiso   1.00
C538   C     0.70189   0.30587   0.35441   0.01267  Uiso   1.00
C539   C     0.30127   0.42049   0.11517   0.01267  Uiso   1.00
C540   C     0.33008   0.15952   0.05988   0.01267  Uiso   1.00
C541   C     0.24380   0.50060   0.04120   0.01267  Uiso   1.00
C542   C     0.18196   0.47748   0.11906   0.01267  Uiso   1.00
C543   C     0.31381   0.43241   0.89499   0.01267  Uiso   1.00
C544   C     0.99339   0.78899   0.87581   0.01267  Uiso   1.00
C545   C     0.40420   0.90420   0.30700   0.01267  Uiso   1.00
C546   C     0.17908   0.22752   0.44632   0.01267  Uiso   1.00
C547   C     0.80700   0.38460   0.90420   0.01267  Uiso   1.00
C548   C     0.92100   0.28516   0.37284   0.01267  Uiso   1.00
C549   C     0.17908   0.14708   0.44632   0.01267  Uiso   1.00
C550   C     0.35292   0.32092   0.77248   0.01267  Uiso   1.00
C551   C     0.27248   0.32092   0.85292   0.01267  Uiso   1.00
C552   C     0.93520   0.89780   0.94520   0.01267  Uiso   1.00
C553   C     0.95052   0.83008   0.15952   0.01267  Uiso   1.00
C554   C     0.59634   0.14362   0.82156   0.01267  Uiso   1.00
C555   C     0.03407   0.68973   0.20533   0.01267  Uiso   1.00
C556   C     0.29811   0.64559   0.69413   0.01267  Uiso   1.00
C557   C     0.64708   0.22752   0.44632   0.01267  Uiso   1.00
C558   C     0.68619   0.64121   0.56759   0.01267  Uiso   1.00
C559   C     0.22890   0.59570   0.08770   0.01267  Uiso   1.00
C560   C     0.59634   0.82156   0.14362   0.01267  Uiso   1.00
C561   C     0.15590   0.27650   0.19338   0.01267  Uiso   1.00
C562   C     0.99940   0.25620   0.78560   0.01267  Uiso   1.00
C563   C     0.75500   0.41480   0.89060   0.01267  Uiso   1.00
C564   C     0.71570   0.71268   0.06746   0.01267  Uiso   1.00
C565   C     0.72190   0.26910   0.26910   0.01267  Uiso   1.00
C566   C     0.05368   0.77248   0.85292   0.01267  Uiso   1.00
C567   C     0.23090   0.77810   0.73090   0.01267  Uiso   1.00
C568   C     0.72080   0.22080   0.73702   0.01267  Uiso   1.00
C569   C     0.73780   0.23780   0.28492   0.01267  Uiso   1.00
C570   C     0.38094   0.77850   0.52252   0.01267  Uiso   1.00
C571   C     0.90430   0.27110   0.91230   0.01267  Uiso   1.00
C572   C     0.32156   0.09634   0.43848   0.01267  Uiso   1.00
C573   C     0.99940   0.95880   0.25620   0.01267  Uiso   1.00
C574   C     0.56040   0.10940   0.58520   0.01267  Uiso   1.00
C575   C     0.70533   0.53407   0.68973   0.01267  Uiso   1.00
C576   C     0.97748   0.22150   0.68196   0.01267  Uiso   1.00
C577   C     0.85842   0.60602   0.31222   0.01267  Uiso   1.00
C578   C     0.72150   0.47748   0.68196   0.01267  Uiso   1.00
C579   C     0.35638   0.56152   0.17844   0.01267  Uiso   1.00
C580   C     0.39060   0.93960   0.41480   0.01267  Uiso   1.00
C581   C     0.56746   0.21570   0.71268   0.01267  Uiso   1.00
C582   C     0.33693   0.57951   0.19873   0.01267  Uiso   1.00
C583   C     0.34048   0.54948   0.94012   0.01267  Uiso   1.00
C584   C     0.56040   0.58520   0.74500   0.01267  Uiso   1.00
C585   C     0.39499   0.43241   0.81381   0.01267  Uiso   1.00
C586   C     0.70533   0.07087   0.68973   0.01267  Uiso   1.00
C587   C     0.92049   0.16307   0.80127   0.01267  Uiso   1.00
C588   C     0.11070   0.71470   0.56390   0.01267  Uiso   1.00
C589   C     0.27820   0.56480   0.10220   0.01267  Uiso   1.00
C590   C     0.99940   0.78560   0.95880   0.01267  Uiso   1.00
C591   C     0.37581   0.78899   0.49339   0.01267  Uiso   1.00
C592   C     0.30662   0.72350   0.62578   0.01267  Uiso   1.00
C593   C     0.93520   0.94520   0.22180   0.01267  Uiso   1.00
C594   C     0.56040   0.74500   0.10940   0.01267  Uiso   1.00
C595   C     0.31381   0.35879   0.43241   0.01267  Uiso   1.00
C596   C     0.82092   0.77248   0.55368   0.01267  Uiso   1.00
C597   C     0.64708   0.67908   0.44632   0.01267  Uiso   1.00
C598   C     0.07951   0.83693   0.19873   0.01267  Uiso   1.00
C599   C     0.15860   0.74156   0.44124   0.01267  Uiso   1.00
C600   C     0.32156   0.43848   0.14362   0.01267  Uiso   1.00
C601   C     0.70600   0.97300   0.87220   0.01267  Uiso   1.00
C602   C     0.71440   0.50060   0.74380   0.01267  Uiso   1.00
C603   C     0.26220   0.76220   0.71508   0.01267  Uiso   1.00
C604   C     0.71440   0.04120   0.50060   0.01267  Uiso   1.00
C605   C     0.27620   0.90870   0.29130   0.01267  Uiso   1.00
C606   C     0.38094   0.31804   0.77850   0.01267  Uiso   1.00
C607   C     0.55988   0.15952   0.83008   0.01267  Uiso   1.00
C608   C     0.61906   0.68196   0.22150   0.01267  Uiso   1.00
C609   C     0.12890   0.53150   0.71070   0.01267  Uiso   1.00
C610   C     0.42430   0.44630   0.20510   0.01267  Uiso   1.00
C611   C     0.72150   0.47748   0.11906   0.01267  Uiso   1.00
C612   C     0.81222   0.60602   0.35842   0.01267  Uiso   1.00
C613   C     0.82770   0.19096   0.65364   0.01267  Uiso   1.00
C614   C     0.68619   0.56759   0.10501   0.01267  Uiso   1.00
C615   C     0.20870   0.09130   0.47620   0.01267  Uiso   1.00
C616   C     0.64960   0.41086   0.78994   0.01267  Uiso   1.00
C617   C     0.73780   0.73948   0.28492   0.01267  Uiso   1.00
C618   C     0.42430   0.20510   0.92430   0.01267  Uiso   1.00
C619   C     0.33693   0.19873   0.88483   0.01267  Uiso   1.00
C620   C     0.30662   0.72350   0.34410   0.01267  Uiso   1.00
C621   C     0.81027   0.46593   0.92913   0.01267  Uiso   1.00
C622   C     0.84181   0.87581   0.49339   0.01267  Uiso   1.00
C623   C     0.70189   0.63783   0.35441   0.01267  Uiso   1.00
C624   C     0.28899   0.49339   0.87581   0.01267  Uiso   1.00
C625   C     0.37581   0.34181   0.78899   0.01267  Uiso   1.00
C626   C     0.93520   0.94520   0.89780   0.01267  Uiso   1.00
C627   C     0.31381   0.43241   0.35879   0.01267  Uiso   1.00
C628   C     0.72334   0.60602   0.31222   0.01267  Uiso   1.00
C629   C     0.73526   0.82980   0.60514   0.01267  Uiso   1.00
C630   C     0.24156   0.44124   0.65860   0.01267  Uiso   1.00
C631   C     0.60501   0.56759   0.64121   0.01267  Uiso   1.00
C632   C     0.21268   0.06746   0.50416   0.01267  Uiso   1.00
C633   C     0.84181   0.87581   0.78899   0.01267  Uiso   1.00
C634   C     0.85441   0.30587   0.20189   0.01267  Uiso   1.00
C635   C     0.92100   0.37284   0.42100   0.01267  Uiso   1.00
C636   C     0.02380   0.90870   0.77620   0.01267  Uiso   1.00
C637   C     0.09046   0.33810   0.23334   0.01267  Uiso   1.00
C638   C     0.83810   0.23334   0.33810   0.01267  Uiso   1.00
C639   C     0.37220   0.97300   0.20600   0.01267  Uiso   1.00
C640   C     0.85879   0.81381   0.89499   0.01267  Uiso   1.00
C641   C     0.08914   0.21006   0.85040   0.01267  Uiso   1.00
C642   C     0.62419   0.50661   0.65819   0.01267  Uiso   1.00
C643   C     0.65952   0.05988   0.45052   0.01267  Uiso   1.00
C644   C     0.44012   0.16992   0.54948   0.01267  Uiso   1.00
C645   C     0.11540   0.09580   0.09580   0.01267  Uiso   1.00
C646   C     0.02252   0.88094   0.77850   0.01267  Uiso   1.00
C647   C     0.27666   0.68778   0.39398   0.01267  Uiso   1.00
C648   C     0.94632   0.14708   0.22752   0.01267  Uiso   1.00
C649   C     0.66307   0.80127   0.11517   0.01267  Uiso   1.00
C650   C     0.90954   0.76666   0.66190   0.01267  Uiso   1.00
C651   C     0.78530   0.38930   0.43610   0.01267  Uiso   1.00
C652   C     0.97748   0.11906   0.22150   0.01267  Uiso   1.00
C653   C     0.85842   0.22334   0.31222   0.01267  Uiso   1.00
C654   C     0.40118   0.46458   0.79822   0.01267  Uiso   1.00
C655   C     0.08520   0.10940   0.74500   0.01267  Uiso   1.00
C656   C     0.99339   0.34181   0.87581   0.01267  Uiso   1.00
C657   C     0.21470   0.61070   0.61070   0.01267  Uiso   1.00
C658   C     0.59882   0.20178   0.53542   0.01267  Uiso   1.00
C659   C     0.59130   0.22380   0.70870   0.01267  Uiso   1.00
C660   C     0.88930   0.38930   0.28530   0.01267  Uiso   1.00
C661   C     0.24500   0.58520   0.06040   0.01267  Uiso   1.00
C662   C     0.71440   0.74380   0.04120   0.01267  Uiso   1.00
C663   C     0.56746   0.50416   0.71268   0.01267  Uiso   1.00
C664   C     0.64708   0.44632   0.67908   0.01267  Uiso   1.00
C665   C     0.81222   0.35842   0.22334   0.01267  Uiso   1.00
C666   C     0.72080   0.32138   0.22080   0.01267  Uiso   1.00
C667   C     0.18973   0.53407   0.07087   0.01267  Uiso   1.00
C668   C     0.27920   0.26298   0.67862   0.01267  Uiso   1.00
C669   C     0.11070   0.71470   0.61070   0.01267  Uiso   1.00
C670   C     0.65952   0.45052   0.05988   0.01267  Uiso   1.00
C671   C     0.78732   0.93254   0.49584   0.01267  Uiso   1.00
C672   C     0.26474   0.17020   0.17020   0.01267  Uiso   1.00
C673   C     0.44012   0.16992   0.84048   0.01267  Uiso   1.00
C674   C     0.28430   0.49584   0.93254   0.01267  Uiso   1.00
C675   C     0.80700   0.90420   0.38460   0.01267  Uiso   1.00
C676   C     0.15364   0.32770   0.19096   0.01267  Uiso   1.00
C677   C     0.40420   0.30700   0.90420   0.01267  Uiso   1.00
C678   C     0.24500   0.10940   0.58520   0.01267  Uiso   1.00
C679   C     0.10602   0.22334   0.35842   0.01267  Uiso   1.00
C680   C     0.94124   0.65860   0.65860   0.01267  Uiso   1.00
C681   C     0.71570   0.71268   0.50416   0.01267  Uiso   1.00
C682   C     0.64960   0.14960   0.41086   0.01267  Uiso   1.00
C683   C     0.64362   0.82156   0.09634   0.01267  Uiso   1.00
C684   C     0.30127   0.11517   0.16307   0.01267  Uiso   1.00
C685   C     0.40366   0.17844   0.56152   0.01267  Uiso   1.00
C686   C     0.40366   0.56152   0.85638   0.01267  Uiso   1.00
C687   C     0.14121   0.56759   0.18619   0.01267  Uiso   1.00
C688   C     0.96458   0.79822   0.33602   0.01267  Uiso   1.00
C689   C     0.30127   0.16307   0.11517   0.01267  Uiso   1.00
C690   C     0.26474   0.17020   0.39486   0.01267  Uiso   1.00
C691   C     0.18196   0.22150   0.11906   0.01267  Uiso   1.00
C692   C     0.75500   0.93960   0.89060   0.01267  Uiso   1.00
C693   C     0.22890   0.08770   0.59570   0.01267  Uiso   1.00
C694   C     0.87110   0.46850   0.28930   0.01267  Uiso   1.00
C695   C     0.66992   0.94012   0.84048   0.01267  Uiso   1.00
C696   C     0.93241   0.81381   0.89499   0.01267  Uiso   1.00
C697   C     0.06390   0.61070   0.61070   0.01267  Uiso   1.00
C698   C     0.37220   0.44880   0.97300   0.01267  Uiso   1.00
C699   C     0.95052   0.05988   0.15952   0.01267  Uiso   1.00
C700   C     0.62780   0.79400   0.02700   0.01267  Uiso   1.00
C701   C     0.81804   0.88094   0.77850   0.01267  Uiso   1.00
C702   C     0.93241   0.89499   0.35879   0.01267  Uiso   1.00
C703   C     0.84636   0.80904   0.67230   0.01267  Uiso   1.00
C704   C     0.66888   0.88960   0.55192   0.01267  Uiso   1.00
C705   C     0.75620   0.78560   0.95880   0.01267  Uiso   1.00
C706   C     0.89486   0.17020   0.17020   0.01267  Uiso   1.00
C707   C     0.87110   0.37110   0.28930   0.01267  Uiso   1.00
C708   C     0.15590   0.27650   0.37422   0.01267  Uiso   1.00
C709   C     0.12716   0.71484   0.57900   0.01267  Uiso   1.00
C710   C     0.07951   0.19873   0.88483   0.01267  Uiso   1.00
C711   C     0.02380   0.77620   0.29130   0.01267  Uiso   1.00
C712   C     0.72752   0.14708   0.44632   0.01267  Uiso   1.00
C713   C     0.02380   0.90870   0.29130   0.01267  Uiso   1.00
C714   C     0.90954   0.66190   0.66190   0.01267  Uiso   1.00
C715   C     0.19413   0.36217   0.79811   0.01267  Uiso   1.00
C716   C     0.72380   0.70870   0.47620   0.01267  Uiso   1.00
C717   C     0.83602   0.90118   0.79822   0.01267  Uiso   1.00
C718   C     0.55480   0.56480   0.10220   0.01267  Uiso   1.00
C719   C     0.76298   0.67862   0.77920   0.01267  Uiso   1.00
C720   C     0.73334   0.33810   0.59046   0.01267  Uiso   1.00
C721   C     0.00661   0.65819   0.21101   0.01267  Uiso   1.00
C722   C     0.93610   0.28530   0.38930   0.01267  Uiso   1.00
C723   C     0.94880   0.97300   0.20600   0.01267  Uiso   1.00
C724   C     0.17862   0.77920   0.77920   0.01267  Uiso   1.00
C725   C     0.38483   0.83693   0.19873   0.01267  Uiso   1.00
C726   C     0.75620   0.49940   0.95880   0.01267  Uiso   1.00
C727   C     0.26666   0.66190   0.40954   0.01267  Uiso   1.00
C728   C     0.77110   0.40430   0.91230   0.01267  Uiso   1.00
C729   C     0.72334   0.60602   0.35842   0.01267  Uiso   1.00
C730   C     0.27850   0.88094   0.31804   0.01267  Uiso   1.00
C731   C     0.37581   0.34181   0.49339   0.01267  Uiso   1.00
C732   C     0.82092   0.85292   0.55368   0.01267  Uiso   1.00
C733   C     0.39780   0.43520   0.94520   0.01267  Uiso   1.00
C734   C     0.64960   0.14960   0.78994   0.01267  Uiso   1.00
C735   C     0.72190   0.26910   0.73990   0.01267  Uiso   1.00
C736   C     0.88930   0.38930   0.43610   0.01267  Uiso   1.00
C737   C     0.30127   0.11517   0.42049   0.01267  Uiso   1.00
C738   C     0.66307   0.11517   0.42049   0.01267  Uiso   1.00
C739   C     0.27850   0.52252   0.31804   0.01267  Uiso   1.00
C740   C     0.80587   0.63783   0.20189   0.01267  Uiso   1.00
C741   C     0.18196   0.47748   0.22150   0.01267  Uiso   1.00
C742   C     0.33008   0.05988   0.15952   0.01267  Uiso   1.00
C743   C     0.84140   0.55876   0.34140   0.01267  Uiso   1.00
C744   C     0.52700   0.79400   0.12780   0.01267  Uiso   1.00
C745   C     0.03542   0.09882   0.66398   0.01267  Uiso   1.00
C746   C     0.03542   0.66398   0.20178   0.01267  Uiso   1.00
C747   C     0.66992   0.84048   0.94012   0.01267  Uiso   1.00
C748   C     0.43960   0.41480   0.25500   0.01267  Uiso   1.00
C749   C     0.41230   0.27110   0.91230   0.01267  Uiso   1.00
C750   C     0.72334   0.31222   0.35842   0.01267  Uiso   1.00
C751   C     0.28994   0.14960   0.41086   0.01267  Uiso   1.00
C752   C     0.99339   0.78899   0.34181   0.01267  Uiso   1.00
C753   C     0.29490   0.07570   0.55370   0.01267  Uiso   1.00
C754   C     0.82138   0.22080   0.22080   0.01267  Uiso   1.00
C755   C     0.97620   0.09130   0.70870   0.01267  Uiso   1.00
C756   C     0.73780   0.28492   0.23780   0.01267  Uiso   1.00
C757   C     0.39499   0.43241   0.35879   0.01267  Uiso   1.00
C758   C     0.04948   0.16992   0.94012   0.01267  Uiso   1.00
C759   C     0.30904   0.67230   0.34636   0.01267  Uiso   1.00
C760   C     0.26474   0.39486   0.17020   0.01267  Uiso   1.00
C761   C     0.38960   0.16888   0.88960   0.01267  Uiso   1.00
C762   C     0.14158   0.39398   0.77666   0.01267  Uiso   1.00
C763   C     0.96458   0.33602   0.79822   0.01267  Uiso   1.00
C764   C     0.60220   0.77820   0.56480   0.01267  Uiso   1.00
C765   C     0.77650   0.37422   0.19338   0.01267  Uiso   1.00
C766   C     0.14121   0.18619   0.10501   0.01267  Uiso   1.00
C767   C     0.87284   0.42100   0.42100   0.01267  Uiso   1.00
C768   C     0.60220   0.56480   0.05480   0.01267  Uiso   1.00
C769   C     0.47300   0.44880   0.20600   0.01267  Uiso   1.00
C770   C     0.06759   0.18619   0.10501   0.01267  Uiso   1.00
C771   C     0.60940   0.06040   0.58520   0.01267  Uiso   1.00
C772   C     0.93241   0.35879   0.81381   0.01267  Uiso   1.00
C773   C     0.05120   0.02700   0.12780   0.01267  Uiso   1.00
C774   C     0.26220   0.71508   0.26052   0.01267  Uiso   1.00
C775   C     0.15860   0.44124   0.74156   0.01267  Uiso   1.00
C776   C     0.06480   0.10220   0.77820   0.01267  Uiso   1.00
C777   C     0.02252   0.88094   0.31804   0.01267  Uiso   1.00
C778   C     0.43254   0.49584   0.78430   0.01267  Uiso   1.00
C779   C     0.00060   0.74380   0.04120   0.01267  Uiso   1.00
C780   C     0.57087   0.20533   0.53407   0.01267  Uiso   1.00
C781   C     0.35040   0.21006   0.58914   0.01267  Uiso   1.00
C782   C     0.96458   0.90118   0.33602   0.01267  Uiso   1.00
C783   C     0.72334   0.35842   0.31222   0.01267  Uiso   1.00
C784   C     0.78732   0.93254   0.78430   0.01267  Uiso   1.00
C785   C     0.29400   0.55120   0.12780   0.01267  Uiso   1.00
C786   C     0.02252   0.31804   0.88094   0.01267  Uiso   1.00
C787   C     0.94632   0.67908   0.14708   0.01267  Uiso   1.00
C788   C     0.22350   0.80662   0.34410   0.01267  Uiso   1.00
C789   C     0.35292   0.55368   0.32092   0.01267  Uiso   1.00
C790   C     0.27666   0.39398   0.64158   0.01267  Uiso   1.00
C791   C     0.09046   0.23334   0.33810   0.01267  Uiso   1.00
C792   C     0.84410   0.72350   0.62578   0.01267  Uiso   1.00
C793   C     0.83602   0.90118   0.46458   0.01267  Uiso   1.00
C794   C     0.30127   0.16307   0.42049   0.01267  Uiso   1.00
C795   C     0.75620   0.49940   0.78560   0.01267  Uiso   1.00
C796   C     0.76910   0.73990   0.22190   0.01267  Uiso   1.00
C797   C     0.07951   0.88483   0.19873   0.01267  Uiso   1.00
C798   C     0.14158   0.77666   0.68778   0.01267  Uiso   1.00
C799   C     0.21484   0.57900   0.57900   0.01267  Uiso   1.00
C800   C     0.58770   0.59570   0.08770   0.01267  Uiso   1.00
C801   C     0.06480   0.05480   0.77820   0.01267  Uiso   1.00
C802   C     0.70178   0.09882   0.53542   0.01267  Uiso   1.00
C803   C     0.28430   0.28732   0.49584   0.01267  Uiso   1.00
C804   C     0.84140   0.25844   0.55876   0.01267  Uiso   1.00
C805   C     0.21508   0.26052   0.76220   0.01267  Uiso   1.00
C806   C     0.33693   0.88483   0.57951   0.01267  Uiso   1.00
C807   C     0.39780   0.22180   0.43520   0.01267  Uiso   1.00
C808   C     0.71006   0.85040   0.85040   0.01267  Uiso   1.00
C809   C     0.18973   0.53407   0.20533   0.01267  Uiso   1.00
C810   C     0.06152   0.85638   0.90366   0.01267  Uiso   1.00
C811   C     0.59882   0.20178   0.66398   0.01267  Uiso   1.00
C812   C     0.42913   0.46593   0.31027   0.01267  Uiso   1.00
C813   C     0.78732   0.49584   0.78430   0.01267  Uiso   1.00
C814   C     0.59580   0.09580   0.69300   0.01267  Uiso   1.00
C815   C     0.28560   0.25620   0.95880   0.01267  Uiso   1.00
C816   C     0.31381   0.35879   0.89499   0.01267  Uiso   1.00
C817   C     0.45880   0.25620   0.49940   0.01267  Uiso   1.00
C818   C     0.18778   0.64158   0.39398   0.01267  Uiso   1.00
C819   C     0.22350   0.62578   0.34410   0.01267  Uiso   1.00
C820   C     0.85441   0.30587   0.63783   0.01267  Uiso   1.00
C821   C     0.28899   0.87581   0.49339   0.01267  Uiso   1.00
C822   C     0.42913   0.46593   0.79467   0.01267  Uiso   1.00
C823   C     0.29811   0.36217   0.69413   0.01267  Uiso   1.00
C824   C     0.94880   0.87220   0.97300   0.01267  Uiso   1.00
C825   C     0.35040   0.85040   0.21006   0.01267  Uiso   1.00
C826   C     0.32980   0.82980   0.60514   0.01267  Uiso   1.00
C827   C     0.22350   0.62578   0.80662   0.01267  Uiso   1.00
C828   C     0.72380   0.09130   0.47620   0.01267  Uiso   1.00
C829   C     0.33008   0.05988   0.45052   0.01267  Uiso   1.00
C830   C     0.27850   0.52252   0.88094   0.01267  Uiso   1.00
C831   C     0.14559   0.36217   0.69413   0.01267  Uiso   1.00
C832   C     0.10514   0.82980   0.23526   0.01267  Uiso   1.00
C833   C     0.81222   0.22334   0.35842   0.01267  Uiso   1.00
C834   C     0.06759   0.64121   0.10501   0.01267  Uiso   1.00
C835   C     0.24380   0.04120   0.50060   0.01267  Uiso   1.00
C836   C     0.11070   0.56390   0.61070   0.01267  Uiso   1.00
C837   C     0.27920   0.67862   0.77920   0.01267  Uiso   1.00
C838   C     0.08520   0.06040   0.10940   0.01267  Uiso   1.00
C839   C     0.17862   0.26298   0.77920   0.01267  Uiso   1.00
C840   C     0.15364   0.32770   0.32770   0.01267  Uiso   1.00
C841   C     0.89486   0.17020   0.76474   0.01267  Uiso   1.00
C842   C     0.59634   0.43848   0.82156   0.01267  Uiso   1.00
C843   C     0.18196   0.22150   0.47748   0.01267  Uiso   1.00
C844   C     0.67020   0.39486   0.76474   0.01267  Uiso   1.00
C845   C     0.82092   0.85292   0.77248   0.01267  Uiso   1.00
C846   C     0.17230   0.67230   0.34636   0.01267  Uiso   1.00
C847   C     0.87422   0.27650   0.65590   0.01267  Uiso   1.00
C848   C     0.42430   0.92430   0.44630   0.01267  Uiso   1.00
C849   C     0.89398   0.64158   0.68778   0.01267  Uiso   1.00
C850   C     0.78530   0.43610   0.38930   0.01267  Uiso   1.00
C851   C     0.26220   0.26052   0.71508   0.01267  Uiso   1.00
C852   C     0.76010   0.73090   0.77810   0.01267  Uiso   1.00
C853   C     0.28560   0.25620   0.49940   0.01267  Uiso   1.00
C854   C     0.69338   0.65590   0.27650   0.01267  Uiso   1.00
C855   C     0.32156   0.14362   0.43848   0.01267  Uiso   1.00
C856   C     0.08520   0.74500   0.06040   0.01267  Uiso   1.00
C857   C     0.56040   0.58520   0.10940   0.01267  Uiso   1.00
C858   C     0.34048   0.94012   0.54948   0.01267  Uiso   1.00
C859   C     0.93848   0.14362   0.09634   0.01267  Uiso   1.00
C860   C     0.16190   0.66190   0.76666   0.01267  Uiso   1.00
C861   C     0.60501   0.64121   0.56759   0.01267  Uiso   1.00
C862   C     0.62419   0.21101   0.50661   0.01267  Uiso   1.00
C863   C     0.94880   0.97300   0.87220   0.01267  Uiso   1.00
C864   C     0.85441   0.63783   0.30587   0.01267  Uiso   1.00
C865   C     0.94632   0.14708   0.67908   0.01267  Uiso   1.00
C866   C     0.88930   0.28530   0.38930   0.01267  Uiso   1.00
C867   C     0.07951   0.88483   0.83693   0.01267  Uiso   1.00
C868   C     0.35040   0.85040   0.58914   0.01267  Uiso   1.00
C869   C     0.57570   0.07570   0.55370   0.01267  Uiso   1.00
C870   C     0.71440   0.74380   0.50060   0.01267  Uiso   1.00
C871   C     0.40420   0.30700   0.38460   0.01267  Uiso   1.00
C872   C     0.67844   0.85638   0.90366   0.01267  Uiso   1.00
C873   C     0.75500   0.89060   0.93960   0.01267  Uiso   1.00
C874   C     0.84410   0.80662   0.62578   0.01267  Uiso   1.00
C875   C     0.06759   0.18619   0.64121   0.01267  Uiso   1.00
C876   C     0.72380   0.47620   0.70870   0.01267  Uiso   1.00
C877   C     0.55480   0.77820   0.56480   0.01267  Uiso   1.00
C878   C     0.15860   0.65860   0.44124   0.01267  Uiso   1.00
C879   C     0.55988   0.45052   0.15952   0.01267  Uiso   1.00
C880   C     0.40870   0.77620   0.52380   0.01267  Uiso   1.00
C881   C     0.20870   0.09130   0.22380   0.01267  Uiso   1.00
C882   C     0.60940   0.74500   0.06040   0.01267  Uiso   1.00
C883   C     0.85879   0.43241   0.81381   0.01267  Uiso   1.00
C884   C     0.27620   0.52380   0.90870   0.01267  Uiso   1.00
C885   C     0.88460   0.30700   0.90420   0.01267  Uiso   1.00
C886   C     0.61040   0.83112   0.44808   0.01267  Uiso   1.00
C887   C     0.19413   0.79811   0.64559   0.01267  Uiso   1.00
C888   C     0.91480   0.89060   0.25500   0.01267  Uiso   1.00
C889   C     0.82770   0.65364   0.32770   0.01267  Uiso   1.00
C890   C     0.08914   0.85040   0.85040   0.01267  Uiso   1.00
C891   C     0.85842   0.60602   0.22334   0.01267  Uiso   1.00
C892   C     0.97748   0.68196   0.22150   0.01267  Uiso   1.00
C893   C     0.97748   0.22150   0.11906   0.01267  Uiso   1.00
C894   C     0.75844   0.55876   0.34140   0.01267  Uiso   1.00
C895   C     0.67844   0.56152   0.90366   0.01267  Uiso   1.00
C896   C     0.60940   0.06040   0.74500   0.01267  Uiso   1.00
C897   C     0.66992   0.94012   0.54948   0.01267  Uiso   1.00
C898   C     0.96593   0.31027   0.92913   0.01267  Uiso   1.00
C899   C     0.19413   0.36217   0.64559   0.01267  Uiso   1.00
C900   C     0.23702   0.22080   0.32138   0.01267  Uiso   1.00
C901   C     0.14121   0.10501   0.56759   0.01267  Uiso   1.00
C902   C     0.18973   0.20533   0.53407   0.01267  Uiso   1.00
C903   C     0.15819   0.50661   0.21101   0.01267  Uiso   1.00
C904   C     0.05370   0.07570   0.79490   0.01267  Uiso   1.00
C905   C     0.94880   0.20600   0.87220   0.01267  Uiso   1.00
C906   C     0.39060   0.25500   0.93960   0.01267  Uiso   1.00
C907   C     0.80587   0.20189   0.63783   0.01267  Uiso   1.00
C908   C     0.40870   0.52380   0.77620   0.01267  Uiso   1.00
C909   C     0.32156   0.14362   0.09634   0.01267  Uiso   1.00
C910   C     0.42913   0.31027   0.79467   0.01267  Uiso   1.00
C911   C     0.69873   0.83693   0.88483   0.01267  Uiso   1.00
C912   C     0.82092   0.55368   0.77248   0.01267  Uiso   1.00
C913   C     0.59580   0.69300   0.61540   0.01267  Uiso   1.00
C914   C     0.04948   0.84048   0.16992   0.01267  Uiso   1.00
C915   C     0.96458   0.79822   0.90118   0.01267  Uiso   1.00
C916   C     0.28560   0.49940   0.25620   0.01267  Uiso   1.00
C917   C     0.30662   0.34410   0.72350   0.01267  Uiso   1.00
C918   C     0.85879   0.43241   0.89499   0.01267  Uiso   1.00
C919   C     0.99584   0.78430   0.28732   0.01267  Uiso   1.00
C920   C     0.94808   0.11040   0.11040   0.01267  Uiso   1.00
C921   C     0.32156   0.43848   0.09634   0.01267  Uiso   1.00
C922   C     0.84140   0.34140   0.55876   0.01267  Uiso   1.00
C923   C     0.82092   0.77248   0.85292   0.01267  Uiso   1.00
C924   C     0.92100   0.42100   0.28516   0.01267  Uiso   1.00
C925   C     0.85842   0.31222   0.60602   0.01267  Uiso   1.00
C926   C     0.87422   0.19338   0.65590   0.01267  Uiso   1.00
C927   C     0.56746   0.71268   0.50416   0.01267  Uiso   1.00
C928   C     0.44012   0.84048   0.16992   0.01267  Uiso   1.00
C929   C     0.06759   0.64121   0.18619   0.01267  Uiso   1.00
C930   C     0.87284   0.28516   0.42100   0.01267  Uiso   1.00
C931   C     0.14121   0.18619   0.56759   0.01267  Uiso   1.00
C932   C     0.14559   0.69413   0.79811   0.01267  Uiso   1.00
C933   C     0.40420   0.38460   0.30700   0.01267  Uiso   1.00
C934   C     0.92049   0.16307   0.11517   0.01267  Uiso   1.00
C935   C     0.68619   0.10501   0.64121   0.01267  Uiso   1.00
C936   C     0.37220   0.97300   0.44880   0.01267  Uiso   1.00
C937   C     0.66992   0.54948   0.84048   0.01267  Uiso   1.00
C938   C     0.59882   0.66398   0.20178   0.01267  Uiso   1.00
C939   C     0.24380   0.50060   0.21440   0.01267  Uiso   1.00
C940   C     0.79130   0.90870   0.77620   0.01267  Uiso   1.00
C941   C     0.39780   0.94520   0.22180   0.01267  Uiso   1.00
C942   C     0.77110   0.91230   0.91230   0.01267  Uiso   1.00
C943   C     0.40118   0.46458   0.33602   0.01267  Uiso   1.00
C944   C     0.21484   0.62716   0.57900   0.01267  Uiso   1.00
C945   C     0.96593   0.92913   0.31027   0.01267  Uiso   1.00
C946   C     0.91480   0.93960   0.25500   0.01267  Uiso   1.00
C947   C     0.27666   0.64158   0.68778   0.01267  Uiso   1.00
C948   C     0.15819   0.12419   0.21101   0.01267  Uiso   1.00
C949   C     0.28430   0.49584   0.28732   0.01267  Uiso   1.00
C950   C     0.00661   0.21101   0.12419   0.01267  Uiso   1.00
C951   C     0.32156   0.09634   0.14362   0.01267  Uiso   1.00
C952   C     0.27820   0.10220   0.05480   0.01267  Uiso   1.00
C953   C     0.04948   0.94012   0.84048   0.01267  Uiso   1.00
C954   C     0.27920   0.67862   0.26298   0.01267  Uiso   1.00
C955   C     0.71440   0.50060   0.04120   0.01267  Uiso   1.00
C956   C     0.61517   0.16307   0.42049   0.01267  Uiso   1.00
C957   C     0.55480   0.56480   0.77820   0.01267  Uiso   1.00
C958   C     0.59634   0.43848   0.14362   0.01267  Uiso   1.00
C959   C     0.81804   0.52252   0.77850   0.01267  Uiso   1.00
C960   C     0.72752   0.67908   0.14708   0.01267  Uiso   1.00
C961   C     0.71101   0.12419   0.50661   0.01267  Uiso   1.00
C962   C     0.35638   0.90366   0.17844   0.01267  Uiso   1.00
C963   C     0.69338   0.27650   0.37422   0.01267  Uiso   1.00
C964   C     0.12578   0.34410   0.80662   0.01267  Uiso   1.00
C965   C     0.42430   0.92430   0.20510   0.01267  Uiso   1.00
C966   C     0.79130   0.90870   0.52380   0.01267  Uiso   1.00
C967   C     0.64362   0.09634   0.43848   0.01267  Uiso   1.00
C968   C     0.23090   0.77810   0.26010   0.01267  Uiso   1.00
C969   C     0.42913   0.79467   0.31027   0.01267  Uiso   1.00
C970   C     0.35292   0.77248   0.32092   0.01267  Uiso   1.00
C971   C     0.11070   0.61070   0.56390   0.01267  Uiso   1.00
C972   C     0.99339   0.87581   0.34181   0.01267  Uiso   1.00
C973   C     0.59580   0.69300   0.09580   0.01267  Uiso   1.00
C974   C     0.35638   0.90366   0.56152   0.01267  Uiso   1.00
C975   C     0.56746   0.21570   0.50416   0.01267  Uiso   1.00
C976   C     0.72180   0.89780   0.94520   0.01267  Uiso   1.00
C977   C     0.62780   0.02700   0.79400   0.01267  Uiso   1.00
C978   C     0.20870   0.47620   0.09130   0.01267  Uiso   1.00
C979   C     0.69338   0.37422   0.27650   0.01267  Uiso   1.00
C980   C     0.81027   0.92913   0.46593   0.01267  Uiso   1.00
C981   C     0.39060   0.41480   0.93960   0.01267  Uiso   1.00
C982   C     0.81804   0.77850   0.52252   0.01267  Uiso   1.00
C983   C     0.29467   0.31027   0.46593   0.01267  Uiso   1.00
C984   C     0.40118   0.33602   0.46458   0.01267  Uiso   1.00
C985   C     0.90430   0.91230   0.27110   0.01267  Uiso   1.00
C986   C     0.38094   0.52252   0.77850   0.01267  Uiso   1.00
C987   C     0.44012   0.54948   0.16992   0.01267  Uiso   1.00
C988   C     0.83810   0.33810   0.23334   0.01267  Uiso   1.00
C989   C     0.27820   0.05480   0.56480   0.01267  Uiso   1.00
C990   C     0.35040   0.58914   0.85040   0.01267  Uiso   1.00
C991   C     0.14158   0.77666   0.39398   0.01267  Uiso   1.00
C992   C     0.75500   0.89060   0.41480   0.01267  Uiso   1.00
C993   C     0.44520   0.89780   0.22180   0.01267  Uiso   1.00
C994   C     0.64708   0.67908   0.22752   0.01267  Uiso   1.00
C995   C     0.39499   0.81381   0.35879   0.01267  Uiso   1.00
C996   C     0.06480   0.77820   0.05480   0.01267  Uiso   1.00
C997   C     0.66307   0.42049   0.11517   0.01267  Uiso   1.00
C998   C     0.84181   0.78899   0.49339   0.01267  Uiso   1.00
C999   C     0.29822   0.33602   0.46458   0.01267  Uiso   1.00
C1000  C     0.33693   0.19873   0.57951   0.01267  Uiso   1.00
C1001  C     0.23090   0.26010   0.77810   0.01267  Uiso   1.00
C1002  C     0.38960   0.55192   0.88960   0.01267  Uiso   1.00
C1003  C     0.60220   0.05480   0.56480   0.01267  Uiso   1.00
C1004  C     0.60501   0.56759   0.18619   0.01267  Uiso   1.00
C1005  C     0.20870   0.47620   0.22380   0.01267  Uiso   1.00
C1006  C     0.72080   0.73702   0.32138   0.01267  Uiso   1.00
C1007  C     0.84181   0.49339   0.78899   0.01267  Uiso   1.00
C1008  C     0.23090   0.73090   0.77810   0.01267  Uiso   1.00
C1009  C     0.61906   0.47748   0.22150   0.01267  Uiso   1.00
C1010  C     0.81027   0.79467   0.92913   0.01267  Uiso   1.00
C1011  C     0.37581   0.49339   0.34181   0.01267  Uiso   1.00
C1012  C     0.72150   0.11906   0.68196   0.01267  Uiso   1.00
C1013  C     0.35040   0.21006   0.85040   0.01267  Uiso   1.00
C1014  C     0.27248   0.85292   0.55368   0.01267  Uiso   1.00
C1015  C     0.03542   0.20178   0.66398   0.01267  Uiso   1.00
C1016  C     0.72752   0.44632   0.67908   0.01267  Uiso   1.00
C1017  C     0.64362   0.09634   0.82156   0.01267  Uiso   1.00
C1018  C     0.65952   0.83008   0.45052   0.01267  Uiso   1.00
C1019  C     0.67020   0.17020   0.39486   0.01267  Uiso   1.00
C1020  C     0.62419   0.65819   0.21101   0.01267  Uiso   1.00
C1021  C     0.78930   0.37110   0.37110   0.01267  Uiso   1.00
C1022  C     0.00661   0.21101   0.65819   0.01267  Uiso   1.00
C1023  C     0.29467   0.46593   0.92913   0.01267  Uiso   1.00
C1024  C     0.71440   0.04120   0.74380   0.01267  Uiso   1.00
C1025  C     0.27810   0.73090   0.26010   0.01267  Uiso   1.00
C1026  C     0.86217   0.79811   0.64559   0.01267  Uiso   1.00
C1027  C     0.64708   0.22752   0.67908   0.01267  Uiso   1.00
C1028  C     0.93610   0.38930   0.28530   0.01267  Uiso   1.00
C1029  C     0.14559   0.79811   0.36217   0.01267  Uiso   1.00
C1030  C     0.06480   0.10220   0.05480   0.01267  Uiso   1.00
C1031  C     0.88460   0.90420   0.90420   0.01267  Uiso   1.00
C1032  C     0.21268   0.21570   0.50416   0.01267  Uiso   1.00
C1033  C     0.52700   0.55120   0.12780   0.01267  Uiso   1.00
C1034  C     0.84410   0.62578   0.80662   0.01267  Uiso   1.00
C1035  C     0.71101   0.50661   0.12419   0.01267  Uiso   1.00
C1036  C     0.82770   0.19096   0.32770   0.01267  Uiso   1.00
C1037  C     0.81027   0.92913   0.79467   0.01267  Uiso   1.00
C1038  C     0.39060   0.93960   0.25500   0.01267  Uiso   1.00
C1039  C     0.55988   0.83008   0.15952   0.01267  Uiso   1.00
C1040  C     0.43960   0.25500   0.89060   0.01267  Uiso   1.00
C1041  C     0.78516   0.42100   0.42100   0.01267  Uiso   1.00
C1042  C     0.61040   0.44808   0.83112   0.01267  Uiso   1.00
C1043  C     0.38960   0.16888   0.55192   0.01267  Uiso   1.00
C1044  C     0.75500   0.41480   0.93960   0.01267  Uiso   1.00
C1045  C     0.77650   0.65590   0.37422   0.01267  Uiso   1.00
C1046  C     0.91480   0.25500   0.93960   0.01267  Uiso   1.00
C1047  C     0.60501   0.64121   0.18619   0.01267  Uiso   1.00
C1048  C     0.89398   0.64158   0.77666   0.01267  Uiso   1.00
C1049  C     0.99584   0.28732   0.78430   0.01267  Uiso   1.00
C1050  C     0.56746   0.71268   0.21570   0.01267  Uiso   1.00
C1051  C     0.97748   0.11906   0.68196   0.01267  Uiso   1.00
C1052  C     0.14559   0.79811   0.69413   0.01267  Uiso   1.00
C1053  C     0.91086   0.14960   0.78994   0.01267  Uiso   1.00
C1054  C     0.59882   0.66398   0.53542   0.01267  Uiso   1.00
C1055  C     0.92100   0.42100   0.37284   0.01267  Uiso   1.00
C1056  C     0.27666   0.64158   0.39398   0.01267  Uiso   1.00
C1057  C     0.38960   0.88960   0.16888   0.01267  Uiso   1.00
C1058  C     0.12578   0.72350   0.80662   0.01267  Uiso   1.00
C1059  C     0.86217   0.64559   0.79811   0.01267  Uiso   1.00
C1060  C     0.43254   0.28732   0.49584   0.01267  Uiso   1.00
C1061  C     0.64708   0.44632   0.22752   0.01267  Uiso   1.00
C1062  C     0.12578   0.72350   0.34410   0.01267  Uiso   1.00
C1063  C     0.17908   0.14708   0.22752   0.01267  Uiso   1.00
C1064  C     0.83810   0.59046   0.23334   0.01267  Uiso   1.00
C1065  C     0.70178   0.53542   0.09882   0.01267  Uiso   1.00
C1066  C     0.81804   0.52252   0.88094   0.01267  Uiso   1.00
C1067  C     0.06390   0.71470   0.61070   0.01267  Uiso   1.00
C1068  C     0.78530   0.38930   0.38930   0.01267  Uiso   1.00
C1069  C     0.07900   0.57900   0.62716   0.01267  Uiso   1.00
C1070  C     0.28994   0.14960   0.14960   0.01267  Uiso   1.00
C1071  C     0.37220   0.20600   0.97300   0.01267  Uiso   1.00
C1072  C     0.12890   0.71070   0.62890   0.01267  Uiso   1.00
C1073  C     0.76910   0.26910   0.73990   0.01267  Uiso   1.00
C1074  C     0.92049   0.11517   0.16307   0.01267  Uiso   1.00
C1075  C     0.13783   0.30587   0.20189   0.01267  Uiso   1.00
C1076  C     0.73334   0.33810   0.33810   0.01267  Uiso   1.00
C1077  C     0.30904   0.67230   0.67230   0.01267  Uiso   1.00
C1078  C     0.27620   0.29130   0.52380   0.01267  Uiso   1.00
C1079  C     0.21268   0.50416   0.21570   0.01267  Uiso   1.00
C1080  C     0.65952   0.05988   0.83008   0.01267  Uiso   1.00
C1081  C     0.83602   0.46458   0.79822   0.01267  Uiso   1.00
C1082  C     0.99584   0.28732   0.93254   0.01267  Uiso   1.00
C1083  C     0.00060   0.21440   0.04120   0.01267  Uiso   1.00
C1084  C     0.97620   0.22380   0.70870   0.01267  Uiso   1.00
C1085  C     0.76910   0.26910   0.22190   0.01267  Uiso   1.00
C1086  C     0.19300   0.61540   0.09580   0.01267  Uiso   1.00
C1087  C     0.21508   0.76220   0.76220   0.01267  Uiso   1.00
C1088  C     0.71101   0.50661   0.65819   0.01267  Uiso   1.00
C1089  C     0.16398   0.09882   0.53542   0.01267  Uiso   1.00
C1090  C     0.99940   0.25620   0.95880   0.01267  Uiso   1.00
C1091  C     0.99940   0.95880   0.78560   0.01267  Uiso   1.00
C1092  C     0.05120   0.12780   0.79400   0.01267  Uiso   1.00
C1093  C     0.72080   0.32138   0.73702   0.01267  Uiso   1.00
C1094  C     0.06480   0.05480   0.10220   0.01267  Uiso   1.00
C1095  C     0.10602   0.35842   0.22334   0.01267  Uiso   1.00
C1096  C     0.70178   0.66398   0.09882   0.01267  Uiso   1.00
C1097  C     0.27248   0.85292   0.32092   0.01267  Uiso   1.00
C1098  C     0.86217   0.64559   0.69413   0.01267  Uiso   1.00
C1099  C     0.17230   0.80904   0.34636   0.01267  Uiso   1.00
C1100  C     0.07900   0.62716   0.57900   0.01267  Uiso   1.00
C1101  C     0.78492   0.73948   0.23780   0.01267  Uiso   1.00
C1102  C     0.72752   0.44632   0.14708   0.01267  Uiso   1.00
C1103  C     0.43960   0.89060   0.41480   0.01267  Uiso   1.00
C1104  C     0.05368   0.85292   0.32092   0.01267  Uiso   1.00
C1105  C     0.28899   0.34181   0.49339   0.01267  Uiso   1.00
C1106  C     0.75620   0.95880   0.49940   0.01267  Uiso   1.00
C1107  C     0.83810   0.23334   0.59046   0.01267  Uiso   1.00
C1108  C     0.69338   0.27650   0.65590   0.01267  Uiso   1.00
C1109  C     0.43960   0.41480   0.89060   0.01267  Uiso   1.00
C1110  C     0.72180   0.43520   0.89780   0.01267  Uiso   1.00
C1111  C     0.27810   0.26010   0.73090   0.01267  Uiso   1.00
C1112  C     0.04948   0.84048   0.94012   0.01267  Uiso   1.00
C1113  C     0.94880   0.20600   0.97300   0.01267  Uiso   1.00
C1114  C     0.71570   0.50416   0.06746   0.01267  Uiso   1.00
C1115  C     0.82092   0.55368   0.85292   0.01267  Uiso   1.00
C1116  C     0.03407   0.20533   0.07087   0.01267  Uiso   1.00
C1117  C     0.07900   0.71484   0.57900   0.01267  Uiso   1.00
C1118  C     0.72380   0.47620   0.09130   0.01267  Uiso   1.00
C1119  C     0.43254   0.78430   0.49584   0.01267  Uiso   1.00
C1120  C     0.70533   0.53407   0.07087   0.01267  Uiso   1.00
C1121  C     0.42430   0.44630   0.92430   0.01267  Uiso   1.00
C1122  C     0.27920   0.77920   0.67862   0.01267  Uiso   1.00
C1123  C     0.72150   0.68196   0.11906   0.01267  Uiso   1.00
C1124  C     0.66992   0.54948   0.94012   0.01267  Uiso   1.00
C1125  C     0.67020   0.39486   0.17020   0.01267  Uiso   1.00
C1126  C     0.27248   0.55368   0.85292   0.01267  Uiso   1.00
C1127  C     0.15819   0.21101   0.50661   0.01267  Uiso   1.00
C1128  C     0.81804   0.77850   0.88094   0.01267  Uiso   1.00
C1129  C     0.67844   0.85638   0.56152   0.01267  Uiso   1.00
C1130  C     0.27920   0.77920   0.26298   0.01267  Uiso   1.00
C1131  C     0.85441   0.20189   0.30587   0.01267  Uiso   1.00
C1132  C     0.38960   0.88960   0.55192   0.01267  Uiso   1.00
C1133  C     0.88930   0.28530   0.43610   0.01267  Uiso   1.00
C1134  C     0.00416   0.71268   0.06746   0.01267  Uiso   1.00
C1135  C     0.03542   0.20178   0.09882   0.01267  Uiso   1.00
C1136  C     0.05192   0.16888   0.88960   0.01267  Uiso   1.00
C1137  C     0.84140   0.55876   0.25844   0.01267  Uiso   1.00
C1138  C     0.33693   0.88483   0.19873   0.01267  Uiso   1.00
C1139  C     0.60940   0.74500   0.58520   0.01267  Uiso   1.00
C1140  C     0.44012   0.84048   0.54948   0.01267  Uiso   1.00
C1141  C     0.68619   0.56759   0.64121   0.01267  Uiso   1.00
C1142  C     0.94124   0.65860   0.74156   0.01267  Uiso   1.00
C1143  C     0.83602   0.79822   0.46458   0.01267  Uiso   1.00
C1144  C     0.03542   0.66398   0.09882   0.01267  Uiso   1.00
C1145  C     0.16398   0.53542   0.09882   0.01267  Uiso   1.00
C1146  C     0.23090   0.73090   0.26010   0.01267  Uiso   1.00
C1147  C     0.55988   0.83008   0.45052   0.01267  Uiso   1.00
C1148  C     0.11540   0.09580   0.69300   0.01267  Uiso   1.00
C1149  C     0.81027   0.46593   0.79467   0.01267  Uiso   1.00
C1150  C     0.42430   0.20510   0.44630   0.01267  Uiso   1.00
C1151  C     0.93848   0.09634   0.82156   0.01267  Uiso   1.00
C1152  C     0.33112   0.44808   0.11040   0.01267  Uiso   1.00
C1153  C     0.94630   0.20510   0.92430   0.01267  Uiso   1.00
C1154  C     0.64362   0.43848   0.09634   0.01267  Uiso   1.00
C1155  C     0.38483   0.57951   0.83693   0.01267  Uiso   1.00
C1156  C     0.70533   0.68973   0.07087   0.01267  Uiso   1.00
C1157  C     0.09046   0.33810   0.33810   0.01267  Uiso   1.00
C1158  C     0.47300   0.87220   0.44880   0.01267  Uiso   1.00
C1159  C     0.23948   0.23780   0.28492   0.01267  Uiso   1.00
C1160  C     0.95052   0.15952   0.83008   0.01267  Uiso   1.00
C1161  C     0.28899   0.34181   0.87581   0.01267  Uiso   1.00
C1162  C     0.62419   0.65819   0.50661   0.01267  Uiso   1.00
C1163  C     0.72150   0.11906   0.47748   0.01267  Uiso   1.00
C1164  C     0.19413   0.79811   0.36217   0.01267  Uiso   1.00
C1165  C     0.93848   0.14362   0.82156   0.01267  Uiso   1.00
C1166  C     0.23990   0.22190   0.26910   0.01267  Uiso   1.00
C1167  C     0.14158   0.68778   0.39398   0.01267  Uiso   1.00
C1168  C     0.84410   0.62578   0.72350   0.01267  Uiso   1.00
C1169  C     0.12578   0.80662   0.34410   0.01267  Uiso   1.00
C1170  C     0.79130   0.52380   0.90870   0.01267  Uiso   1.00
C1171  C     0.11070   0.56390   0.71470   0.01267  Uiso   1.00
C1172  C     0.73780   0.28492   0.73948   0.01267  Uiso   1.00
C1173  C     0.31381   0.89499   0.35879   0.01267  Uiso   1.00
C1174  C     0.30662   0.62578   0.72350   0.01267  Uiso   1.00
C1175  C     0.24156   0.65860   0.65860   0.01267  Uiso   1.00
C1176  C     0.00416   0.71268   0.21570   0.01267  Uiso   1.00
C1177  C     0.91086   0.14960   0.14960   0.01267  Uiso   1.00
C1178  C     0.55480   0.10220   0.77820   0.01267  Uiso   1.00
C1179  C     0.41230   0.91230   0.40430   0.01267  Uiso   1.00
C1180  C     0.33008   0.45052   0.05988   0.01267  Uiso   1.00
C1181  C     0.94630   0.92430   0.92430   0.01267  Uiso   1.00
C1182  C     0.06152   0.17844   0.90366   0.01267  Uiso   1.00
C1183  C     0.43960   0.89060   0.25500   0.01267  Uiso   1.00
C1184  C     0.99584   0.93254   0.28732   0.01267  Uiso   1.00
C1185  C     0.18778   0.77666   0.64158   0.01267  Uiso   1.00
C1186  C     0.05876   0.25844   0.34140   0.01267  Uiso   1.00
C1187  C     0.66992   0.84048   0.54948   0.01267  Uiso   1.00
C1188  C     0.00060   0.04120   0.21440   0.01267  Uiso   1.00
C1189  C     0.73526   0.60514   0.82980   0.01267  Uiso   1.00
C1190  C     0.03407   0.68973   0.07087   0.01267  Uiso   1.00
C1191  C     0.03407   0.20533   0.68973   0.01267  Uiso   1.00
C1192  C     0.38094   0.77850   0.31804   0.01267  Uiso   1.00
C1193  C     0.59634   0.14362   0.43848   0.01267  Uiso   1.00
C1194  C     0.45880   0.78560   0.25620   0.01267  Uiso   1.00
C1195  C     0.78516   0.37284   0.42100   0.01267  Uiso   1.00
C1196  C     0.94880   0.87220   0.20600   0.01267  Uiso   1.00
C1197  C     0.06152   0.90366   0.85638   0.01267  Uiso   1.00
C1198  C     0.84140   0.34140   0.25844   0.01267  Uiso   1.00
C1199  C     0.93520   0.89780   0.22180   0.01267  Uiso   1.00
C1200  C     0.57087   0.53407   0.68973   0.01267  Uiso   1.00
C1201  C     0.09570   0.72890   0.08770   0.01267  Uiso   1.00
C1202  C     0.05370   0.07570   0.07570   0.01267  Uiso   1.00
C1203  C     0.24500   0.58520   0.10940   0.01267  Uiso   1.00
C1204  C     0.39780   0.22180   0.94520   0.01267  Uiso   1.00
C1205  C     0.96850   0.28930   0.37110   0.01267  Uiso   1.00
C1206  C     0.03407   0.07087   0.20533   0.01267  Uiso   1.00
C1207  C     0.00416   0.06746   0.21570   0.01267  Uiso   1.00
C1208  C     0.21268   0.06746   0.21570   0.01267  Uiso   1.00
C1209  C     0.95052   0.83008   0.05988   0.01267  Uiso   1.00
C1210  C     0.92049   0.80127   0.11517   0.01267  Uiso   1.00
C1211  C     0.40420   0.90420   0.38460   0.01267  Uiso   1.00
C1212  C     0.02380   0.29130   0.90870   0.01267  Uiso   1.00
C1213  C     0.85879   0.89499   0.81381   0.01267  Uiso   1.00
C1214  C     0.84181   0.49339   0.87581   0.01267  Uiso   1.00
C1215  C     0.13783   0.35441   0.30587   0.01267  Uiso   1.00
C1216  C     0.94632   0.22752   0.14708   0.01267  Uiso   1.00
C1217  C     0.93848   0.09634   0.14362   0.01267  Uiso   1.00
C1218  C     0.69338   0.65590   0.37422   0.01267  Uiso   1.00
C1219  C     0.85879   0.89499   0.43241   0.01267  Uiso   1.00
C1220  C     0.72180   0.94520   0.89780   0.01267  Uiso   1.00
C1221  C     0.60220   0.05480   0.77820   0.01267  Uiso   1.00
C1222  C     0.61040   0.83112   0.11040   0.01267  Uiso   1.00
C1223  C     0.29467   0.31027   0.92913   0.01267  Uiso   1.00
C1224  C     0.35292   0.55368   0.77248   0.01267  Uiso   1.00
O1     O     0.90708   0.91746   0.82266   0.01267  Uiso   1.00
O2     O     0.87900   0.87100   0.37900   0.01267  Uiso   1.00
O3     O     0.73506   0.70238   0.14186   0.01267  Uiso   1.00
O4     O     0.31930   0.18930   0.44122   0.01267  Uiso   1.00
O5     O     0.63234   0.56620   0.18162   0.01267  Uiso   1.00
O6     O     0.98073   0.29123   0.38603   0.01267  Uiso   1.00
O7     O     0.68930   0.81930   0.05018   0.01267  Uiso   1.00
O8     O     0.24038   0.36524   0.26146   0.01267  Uiso   1.00
O9     O     0.52876   0.42006   0.25030   0.01267  Uiso   1.00
O10    O     0.09292   0.64720   0.17734   0.01267  Uiso   1.00
O11    O     0.65614   0.19958   0.38846   0.01267  Uiso   1.00
O12    O     0.24614   0.20770   0.52722   0.01267  Uiso   1.00
O13    O     0.94122   0.81930   0.05018   0.01267  Uiso   1.00
O14    O     0.41746   0.82266   0.35280   0.01267  Uiso   1.00
O15    O     0.62095   0.67889   0.62289   0.01267  Uiso   1.00
O16    O     0.07994   0.74970   0.97124   0.01267  Uiso   1.00
O17    O     0.38620   0.11380   0.50000   0.01267  Uiso   1.00
O18    O     0.32266   0.91746   0.35280   0.01267  Uiso   1.00
O19    O     0.50000   0.88620   0.11380   0.01267  Uiso   1.00
O20    O     0.94161   0.22277   0.98777   0.01267  Uiso   1.00
O21    O     0.73540   0.77986   0.52576   0.01267  Uiso   1.00
O22    O     0.54304   0.14132   0.46894   0.01267  Uiso   1.00
O23    O     0.34670   0.46894   0.14132   0.01267  Uiso   1.00
O24    O     0.21454   0.58486   0.71454   0.01267  Uiso   1.00
O25    O     0.94161   0.98777   0.84785   0.01267  Uiso   1.00
O26    O     0.24038   0.26146   0.36524   0.01267  Uiso   1.00
O27    O     0.51894   0.20770   0.52722   0.01267  Uiso   1.00
O28    O     0.25582   0.19958   0.38846   0.01267  Uiso   1.00
O29    O     0.05878   0.81070   0.18070   0.01267  Uiso   1.00
O30    O     0.31930   0.44122   0.18930   0.01267  Uiso   1.00
O31    O     0.01394   0.41514   0.28546   0.01267  Uiso   1.00
O32    O     0.35814   0.29762   0.57930   0.01267  Uiso   1.00
O33    O     0.47124   0.74970   0.19912   0.01267  Uiso   1.00
O34    O     0.73687   0.19283   0.33423   0.01267  Uiso   1.00
O35    O     0.92070   0.14186   0.23506   0.01267  Uiso   1.00
O36    O     0.09292   0.64720   0.08254   0.01267  Uiso   1.00
O37    O     0.65215   0.01223   0.77723   0.01267  Uiso   1.00
O38    O     0.23607   0.33423   0.19283   0.01267  Uiso   1.00
O39    O     0.37905   0.37711   0.92273   0.01267  Uiso   1.00
O40    O     0.46216   0.35180   0.83424   0.01267  Uiso   1.00
O41    O     0.42273   0.37711   0.32111   0.01267  Uiso   1.00
O42    O     0.17889   0.12095   0.07727   0.01267  Uiso   1.00
O43    O     0.51894   0.52722   0.74614   0.01267  Uiso   1.00
O44    O     0.31840   0.43160   0.81840   0.01267  Uiso   1.00
O45    O     0.68930   0.05018   0.44122   0.01267  Uiso   1.00
O46    O     0.54304   0.84670   0.14132   0.01267  Uiso   1.00
O47    O     0.24289   0.35951   0.60439   0.01267  Uiso   1.00
O48    O     0.15769   0.17231   0.44797   0.01267  Uiso   1.00
O49    O     0.27723   0.55839   0.15215   0.01267  Uiso   1.00
O50    O     0.82053   0.26891   0.36435   0.01267  Uiso   1.00
O51    O     0.62134   0.02152   0.53340   0.01267  Uiso   1.00
O52    O     0.01394   0.28546   0.28546   0.01267  Uiso   1.00
O53    O     0.86714   0.68478   0.17664   0.01267  Uiso   1.00
O54    O     0.32336   0.31522   0.63286   0.01267  Uiso   1.00
O55    O     0.64132   0.84670   0.04304   0.01267  Uiso   1.00
O56    O     0.79762   0.57930   0.85814   0.01267  Uiso   1.00
O57    O     0.94122   0.05018   0.81930   0.01267  Uiso   1.00
O58    O     0.29230   0.98106   0.25386   0.01267  Uiso   1.00
O59    O     0.70574   0.20574   0.69696   0.01267  Uiso   1.00
O60    O     0.14820   0.64820   0.03784   0.01267  Uiso   1.00
O61    O     0.50000   0.18700   0.50000   0.01267  Uiso   1.00
O62    O     0.13565   0.45379   0.67947   0.01267  Uiso   1.00
O63    O     0.46216   0.35180   0.35180   0.01267  Uiso   1.00
O64    O     0.82111   0.87905   0.37711   0.01267  Uiso   1.00
O65    O     0.87711   0.32111   0.92273   0.01267  Uiso   1.00
O66    O     0.04621   0.32053   0.36435   0.01267  Uiso   1.00
O67    O     0.63234   0.61984   0.18162   0.01267  Uiso   1.00
O68    O     0.31070   0.18070   0.94982   0.01267  Uiso   1.00
O69    O     0.14049   0.39561   0.20679   0.01267  Uiso   1.00
O70    O     0.50000   0.50000   0.88620   0.01267  Uiso   1.00
O71    O     0.94797   0.17231   0.65769   0.01267  Uiso   1.00
O72    O     0.05839   0.01223   0.15215   0.01267  Uiso   1.00
O73    O     0.97424   0.76460   0.04102   0.01267  Uiso   1.00
O74    O     0.88016   0.86766   0.43380   0.01267  Uiso   1.00
O75    O     0.05878   0.18070   0.81070   0.01267  Uiso   1.00
O76    O     0.92070   0.70238   0.14186   0.01267  Uiso   1.00
O77    O     0.70574   0.20574   0.39156   0.01267  Uiso   1.00
O78    O     0.00000   0.00000   0.81300   0.01267  Uiso   1.00
O79    O     0.84231   0.77797   0.55203   0.01267  Uiso   1.00
O80    O     0.65215   0.01223   0.55839   0.01267  Uiso   1.00
O81    O     0.14820   0.16576   0.03784   0.01267  Uiso   1.00
O82    O     0.50000   0.11380   0.88620   0.01267  Uiso   1.00
O83    O     0.65215   0.77723   0.01223   0.01267  Uiso   1.00
O84    O     0.04621   0.36435   0.26891   0.01267  Uiso   1.00
O85    O     0.01927   0.70877   0.61397   0.01267  Uiso   1.00
O86    O     0.09292   0.17734   0.08254   0.01267  Uiso   1.00
O87    O     0.48106   0.47278   0.25386   0.01267  Uiso   1.00
O88    O     0.42273   0.87905   0.32111   0.01267  Uiso   1.00
O89    O     0.76146   0.74038   0.36524   0.01267  Uiso   1.00
O90    O     0.92006   0.02876   0.80088   0.01267  Uiso   1.00
O91    O     0.02576   0.77986   0.23540   0.01267  Uiso   1.00
O92    O     0.11397   0.65799   0.70877   0.01267  Uiso   1.00
O93    O     0.75030   0.80088   0.02876   0.01267  Uiso   1.00
O94    O     0.48106   0.79230   0.25386   0.01267  Uiso   1.00
O95    O     0.35814   0.29762   0.76494   0.01267  Uiso   1.00
O96    O     0.78546   0.41514   0.28546   0.01267  Uiso   1.00
O97    O     0.68700   0.50000  -0.00000   0.01267  Uiso   1.00
O98    O     0.64132   0.46894   0.84670   0.01267  Uiso   1.00
O99    O     0.48106   0.79230   0.47278   0.01267  Uiso   1.00
O100   O     0.23854   0.86708   0.63476   0.01267  Uiso   1.00
O101   O     0.11397   0.70877   0.51927   0.01267  Uiso   1.00
O102   O     0.72277   0.98777   0.44161   0.01267  Uiso   1.00
O103   O     0.17121   0.67121   0.48637   0.01267  Uiso   1.00
O104   O     0.14049   0.25711   0.20679   0.01267  Uiso   1.00
O105   O     0.83423   0.23687   0.19283   0.01267  Uiso   1.00
O106   O     0.65215   0.77723   0.55839   0.01267  Uiso   1.00
O107   O     0.26494   0.85814   0.57930   0.01267  Uiso   1.00
O108   O     0.30088   0.25030   0.42006   0.01267  Uiso   1.00
O109   O     0.11984   0.18162   0.13234   0.01267  Uiso   1.00
O110   O     0.15769   0.44797   0.22203   0.01267  Uiso   1.00
O111   O     0.74418   0.61154   0.84386   0.01267  Uiso   1.00
O112   O     0.32769   0.34231   0.55203   0.01267  Uiso   1.00
O113   O     0.37866   0.17626   0.46660   0.01267  Uiso   1.00
O114   O     0.15769   0.22203   0.44797   0.01267  Uiso   1.00
O115   O     0.68162   0.13234   0.61984   0.01267  Uiso   1.00
O116   O     0.69283   0.33423   0.23687   0.01267  Uiso   1.00
O117   O     0.83423   0.23687   0.73607   0.01267  Uiso   1.00
O118   O     0.63234   0.18162   0.56620   0.01267  Uiso   1.00
O119   O     0.65215   0.55839   0.01223   0.01267  Uiso   1.00
O120   O     0.11984   0.56620   0.13234   0.01267  Uiso   1.00
O121   O     0.70770   0.52722   0.01894   0.01267  Uiso   1.00
O122   O     0.84231   0.82769   0.55203   0.01267  Uiso   1.00
O123   O     0.63292   0.26146   0.36524   0.01267  Uiso   1.00
O124   O     0.82053   0.36435   0.54621   0.01267  Uiso   1.00
O125   O     0.36766   0.43380   0.81838   0.01267  Uiso   1.00
O126   O     0.11984   0.13234   0.18162   0.01267  Uiso   1.00
O127   O     0.30088   0.42006   0.02876   0.01267  Uiso   1.00
O128   O     0.29426   0.79426   0.30304   0.01267  Uiso   1.00
O129   O     0.22856   0.31522   0.63286   0.01267  Uiso   1.00
O130   O     0.20238   0.23506   0.14186   0.01267  Uiso   1.00
O131   O     0.36708   0.25962   0.63476   0.01267  Uiso   1.00
O132   O     0.45696   0.53106   0.15330   0.01267  Uiso   1.00
O133   O     0.13476   0.86708   0.25962   0.01267  Uiso   1.00
O134   O     0.88016   0.81838   0.86766   0.01267  Uiso   1.00
O135   O     0.15799   0.70877   0.51927   0.01267  Uiso   1.00
O136   O     0.73540   0.95898   0.77986   0.01267  Uiso   1.00
O137   O     0.73687   0.19283   0.73607   0.01267  Uiso   1.00
O138   O     0.35868   0.15330   0.53106   0.01267  Uiso   1.00
O139   O     0.98073   0.34201   0.38603   0.01267  Uiso   1.00
O140   O     0.42273   0.87905   0.37711   0.01267  Uiso   1.00
O141   O     0.65330   0.53106   0.95696   0.01267  Uiso   1.00
O142   O     0.92006   0.25030   0.02876   0.01267  Uiso   1.00
O143   O     0.78546   0.28546   0.41514   0.01267  Uiso   1.00
O144   O     0.31838   0.43380   0.86766   0.01267  Uiso   1.00
O145   O     0.93160   0.81840   0.81840   0.01267  Uiso   1.00
O146   O     0.96894   0.84670   0.04304   0.01267  Uiso   1.00
O147   O     0.18478   0.36714   0.27144   0.01267  Uiso   1.00
O148   O     0.17947   0.45379   0.73109   0.01267  Uiso   1.00
O149   O     0.73540   0.52576   0.95898   0.01267  Uiso   1.00
O150   O     0.67734   0.59292   0.64720   0.01267  Uiso   1.00
O151   O     0.86714   0.17664   0.68478   0.01267  Uiso   1.00
O152   O     0.34785   0.22277   0.98777   0.01267  Uiso   1.00
O153   O     0.26460   0.47424   0.04102   0.01267  Uiso   1.00
O154   O     0.88016   0.43380   0.86766   0.01267  Uiso   1.00
O155   O     0.76146   0.13292   0.74038   0.01267  Uiso   1.00
O156   O     0.17889   0.07727   0.62289   0.01267  Uiso   1.00
O157   O     0.07930   0.76494   0.85814   0.01267  Uiso   1.00
O158   O     0.72203   0.44797   0.65769   0.01267  Uiso   1.00
O159   O     0.69958   0.15614   0.75582   0.01267  Uiso   1.00
O160   O     0.27675   0.39303   0.77675   0.01267  Uiso   1.00
O161   O     0.86435   0.54621   0.26891   0.01267  Uiso   1.00
O162   O     0.67626   0.97848   0.87866   0.01267  Uiso   1.00
O163   O     0.96660   0.97848   0.17626   0.01267  Uiso   1.00
O164   O     0.51894   0.52722   0.20770   0.01267  Uiso   1.00
O165   O     0.67626   0.97848   0.46660   0.01267  Uiso   1.00
O166   O     0.73687   0.73607   0.19283   0.01267  Uiso   1.00
O167   O     0.07930   0.85814   0.29762   0.01267  Uiso   1.00
O168   O     0.48777   0.44161   0.84785   0.01267  Uiso   1.00
O169   O     0.24970   0.97124   0.19912   0.01267  Uiso   1.00
O170   O     0.27675   0.55347   0.39303   0.01267  Uiso   1.00
O171   O     0.79123   0.34201   0.38603   0.01267  Uiso   1.00
O172   O     0.65614   0.75582   0.38846   0.01267  Uiso   1.00
O173   O     0.93380   0.38016   0.86766   0.01267  Uiso   1.00
O174   O     0.67231   0.44797   0.65769   0.01267  Uiso   1.00
O175   O     0.94797   0.65769   0.22203   0.01267  Uiso   1.00
O176   O     0.68160   0.56840   0.18160   0.01267  Uiso   1.00
O177   O     0.63234   0.18162   0.61984   0.01267  Uiso   1.00
O178   O     0.79762   0.57930   0.76494   0.01267  Uiso   1.00
O179   O     0.05203   0.77797   0.82769   0.01267  Uiso   1.00
O180   O     0.14720   0.17734   0.59292   0.01267  Uiso   1.00
O181   O     0.55018   0.18930   0.44122   0.01267  Uiso   1.00
O182   O     0.03106   0.95696   0.15330   0.01267  Uiso   1.00
O183   O     0.24970   0.57994   0.19912   0.01267  Uiso   1.00
O184   O     0.26313   0.66577   0.80717   0.01267  Uiso   1.00
O185   O    -0.00000   0.88620   0.11380   0.01267  Uiso   1.00
O186   O     0.03340   0.82374   0.02152   0.01267  Uiso   1.00
O187   O     0.62134   0.53340   0.02152   0.01267  Uiso   1.00
O188   O     0.88846   0.19958   0.15614   0.01267  Uiso   1.00
O189   O     0.74418   0.80042   0.84386   0.01267  Uiso   1.00
O190   O     0.27986   0.95898   0.52576   0.01267  Uiso   1.00
O191   O     0.96660   0.17626   0.97848   0.01267  Uiso   1.00
O192   O     0.74418   0.84386   0.61154   0.01267  Uiso   1.00
O193   O     0.12289   0.07727   0.67889   0.01267  Uiso   1.00
O194   O     0.14820   0.16576   0.64820   0.01267  Uiso   1.00
O195   O     0.31930   0.44122   0.05018   0.01267  Uiso   1.00
O196   O     0.48106   0.25386   0.47278   0.01267  Uiso   1.00
O197   O     0.86435   0.32053   0.54621   0.01267  Uiso   1.00
O198   O     0.35868   0.15330   0.95696   0.01267  Uiso   1.00
O199   O     0.45696   0.53106   0.85868   0.01267  Uiso   1.00
O200   O     0.72014   0.04102   0.76460   0.01267  Uiso   1.00
O201   O     0.51223   0.15215   0.77723   0.01267  Uiso   1.00
O202   O     0.72203   0.65769   0.17231   0.01267  Uiso   1.00
O203   O     0.57727   0.62289   0.12095   0.01267  Uiso   1.00
O204   O     0.42273   0.32111   0.87905   0.01267  Uiso   1.00
O205   O     0.17947   0.73109   0.63565   0.01267  Uiso   1.00
O206   O     0.72203   0.44797   0.17231   0.01267  Uiso   1.00
O207   O     0.96894   0.04304   0.14132   0.01267  Uiso   1.00
O208   O     0.53784   0.16576   0.64820   0.01267  Uiso   1.00
O209   O     0.67734   0.64720   0.59292   0.01267  Uiso   1.00
O210   O     0.24614   0.01894   0.52722   0.01267  Uiso   1.00
O211   O     0.29426   0.30304   0.79426   0.01267  Uiso   1.00
O212   O     0.03106   0.15330   0.95696   0.01267  Uiso   1.00
O213   O     0.75711   0.20679   0.64049   0.01267  Uiso   1.00
O214   O     0.69283   0.33423   0.73607   0.01267  Uiso   1.00
O215   O     0.86435   0.26891   0.54621   0.01267  Uiso   1.00
O216   O     0.77144   0.17664   0.36714   0.01267  Uiso   1.00
O217   O     0.93380   0.86766   0.38016   0.01267  Uiso   1.00
O218   O     0.89156   0.20574   0.20574   0.01267  Uiso   1.00
O219   O     0.41746   0.82266   0.40708   0.01267  Uiso   1.00
O220   O     0.51223   0.55839   0.77723   0.01267  Uiso   1.00
O221   O     0.42273   0.32111   0.37711   0.01267  Uiso   1.00
O222   O     0.87900   0.87100   0.87100   0.01267  Uiso   1.00
O223   O     0.06620   0.61984   0.13234   0.01267  Uiso   1.00
O224   O     0.10697   0.22325   0.44653   0.01267  Uiso   1.00
O225   O     0.33424   0.35180   0.96216   0.01267  Uiso   1.00
O226   O     0.32336   0.72856   0.63286   0.01267  Uiso   1.00
O227   O     0.05878   0.94982   0.18070   0.01267  Uiso   1.00
O228   O     0.88016   0.86766   0.81838   0.01267  Uiso   1.00
O229   O     0.87711   0.87905   0.92273   0.01267  Uiso   1.00
O230   O     0.68930   0.81930   0.44122   0.01267  Uiso   1.00
O231   O     0.76891   0.36435   0.32053   0.01267  Uiso   1.00
O232   O     0.07930   0.29762   0.76494   0.01267  Uiso   1.00
O233   O     0.54304   0.84670   0.46894   0.01267  Uiso   1.00
O234   O     0.64132   0.84670   0.46894   0.01267  Uiso   1.00
O235   O     0.10439   0.74289   0.79321   0.01267  Uiso   1.00
O236   O     0.30088   0.25030   0.02876   0.01267  Uiso   1.00
O237   O     0.32374   0.53340   0.02152   0.01267  Uiso   1.00
O238   O     0.24614   0.20770   0.01894   0.01267  Uiso   1.00
O239   O     0.85180   0.83424   0.35180   0.01267  Uiso   1.00
O240   O     0.45898   0.52576   0.23540   0.01267  Uiso   1.00
O241   O     0.07994   0.97124   0.74970   0.01267  Uiso   1.00
O242   O     0.58254   0.64720   0.59292   0.01267  Uiso   1.00
O243   O     0.50000   0.50000   0.18700   0.01267  Uiso   1.00
O244   O     0.26313   0.66577   0.26393   0.01267  Uiso   1.00
O245   O     0.86435   0.26891   0.32053   0.01267  Uiso   1.00
O246   O     0.83423   0.19283   0.23687   0.01267  Uiso   1.00
O247   O     0.79123   0.38603   0.48073   0.01267  Uiso   1.00
O248   O     0.97278   0.25386   0.98106   0.01267  Uiso   1.00
O249   O     0.11984   0.13234   0.56620   0.01267  Uiso   1.00
O250   O     0.67734   0.08254   0.59292   0.01267  Uiso   1.00
O251   O     0.37866   0.46660   0.17626   0.01267  Uiso   1.00
O252   O     0.05203   0.34231   0.77797   0.01267  Uiso   1.00
O253   O     0.95379   0.63565   0.73109   0.01267  Uiso   1.00
O254   O     0.29321   0.60439   0.74289   0.01267  Uiso   1.00
O255   O     0.27675   0.55347   0.77675   0.01267  Uiso   1.00
O256   O     0.48777   0.84785   0.22277   0.01267  Uiso   1.00
O257   O     0.89303   0.55347   0.77675   0.01267  Uiso   1.00
O258   O     0.45696   0.15330   0.85868   0.01267  Uiso   1.00
O259   O     0.14820   0.03784   0.64820   0.01267  Uiso   1.00
O260   O     0.11154   0.24418   0.84386   0.01267  Uiso   1.00
O261   O     0.97278   0.79230   0.98106   0.01267  Uiso   1.00
O262   O     0.65614   0.38846   0.19958   0.01267  Uiso   1.00
O263   O     0.32266   0.35280   0.91746   0.01267  Uiso   1.00
O264   O     0.81522   0.82336   0.72856   0.01267  Uiso   1.00
O265   O     0.02576   0.77986   0.95898   0.01267  Uiso   1.00
O266   O     0.15799   0.61397   0.70877   0.01267  Uiso   1.00
O267   O     0.72277   0.84785   0.98777   0.01267  Uiso   1.00
O268   O     0.05878   0.81070   0.94982   0.01267  Uiso   1.00
O269   O     0.34670   0.14132   0.04304   0.01267  Uiso   1.00
O270   O     0.79123   0.48073   0.34201   0.01267  Uiso   1.00
O271   O     0.70679   0.39561   0.64049   0.01267  Uiso   1.00
O272   O     0.31300  -0.00000   0.50000   0.01267  Uiso   1.00
O273   O     0.91514   0.28546   0.28546   0.01267  Uiso   1.00
O274   O     0.98637   0.67121   0.67121   0.01267  Uiso   1.00
O275   O     0.75030   0.42006   0.02876   0.01267  Uiso   1.00
O276   O     0.47848   0.87866   0.46660   0.01267  Uiso   1.00
O277   O     0.13286   0.82336   0.72856   0.01267  Uiso   1.00
O278   O     0.34785   0.22277   0.44161   0.01267  Uiso   1.00
O279   O     0.86714   0.27144   0.68478   0.01267  Uiso   1.00
O280   O     0.10844   0.79426   0.30304   0.01267  Uiso   1.00
O281   O     0.25582   0.38846   0.19958   0.01267  Uiso   1.00
O282   O     0.23109   0.67947   0.63565   0.01267  Uiso   1.00
O283   O     0.08486   0.71454   0.71454   0.01267  Uiso   1.00
O284   O     0.02722   0.01894   0.20770   0.01267  Uiso   1.00
O285   O     0.72014   0.76460   0.47424   0.01267  Uiso   1.00
O286   O     0.26460   0.47424   0.22014   0.01267  Uiso   1.00
O287   O     0.24970   0.19912   0.97124   0.01267  Uiso   1.00
O288   O     0.79762   0.85814   0.76494   0.01267  Uiso   1.00
O289   O     0.26494   0.29762   0.85814   0.01267  Uiso   1.00
O290   O     0.12289   0.12095   0.07727   0.01267  Uiso   1.00
O291   O     0.25582   0.19958   0.15614   0.01267  Uiso   1.00
O292   O     0.23854   0.63476   0.25962   0.01267  Uiso   1.00
O293   O     0.07930   0.29762   0.85814   0.01267  Uiso   1.00
O294   O     0.87900   0.37900   0.87100   0.01267  Uiso   1.00
O295   O     0.69912   0.97124   0.74970   0.01267  Uiso   1.00
O296   O     0.54304   0.14132   0.84670   0.01267  Uiso   1.00
O297   O     0.69283   0.73607   0.23687   0.01267  Uiso   1.00
O298   O     0.75962   0.73854   0.63476   0.01267  Uiso   1.00
O299   O     0.24614   0.01894   0.20770   0.01267  Uiso   1.00
O300   O     0.10697   0.22325   0.22325   0.01267  Uiso   1.00
O301   O     0.11154   0.84386   0.80042   0.01267  Uiso   1.00
O302   O     0.13476   0.73854   0.86708   0.01267  Uiso   1.00
O303   O     0.67734   0.64720   0.08254   0.01267  Uiso   1.00
O304   O     0.95379   0.73109   0.67947   0.01267  Uiso   1.00
O305   O     0.88846   0.75582   0.19958   0.01267  Uiso   1.00
O306   O     0.90708   0.91746   0.35280   0.01267  Uiso   1.00
O307   O     0.00000   0.18700   0.81300   0.01267  Uiso   1.00
O308   O     0.05839   0.01223   0.77723   0.01267  Uiso   1.00
O309   O     0.37866   0.17626   0.97848   0.01267  Uiso   1.00
O310   O     0.23109   0.45379   0.63565   0.01267  Uiso   1.00
O311   O     0.29230   0.47278   0.25386   0.01267  Uiso   1.00
O312   O     0.85180   0.35180   0.96216   0.01267  Uiso   1.00
O313   O     0.17947   0.73109   0.45379   0.01267  Uiso   1.00
O314   O     0.54102   0.47424   0.22014   0.01267  Uiso   1.00
O315   O     0.52152   0.12134   0.82374   0.01267  Uiso   1.00
O316   O     0.67231   0.65769   0.44797   0.01267  Uiso   1.00
O317   O     0.30717   0.66577   0.76313   0.01267  Uiso   1.00
O318   O     0.72325   0.44653   0.60697   0.01267  Uiso   1.00
O319   O     0.24038   0.36524   0.13292   0.01267  Uiso   1.00
O320   O     0.96660   0.87866   0.97848   0.01267  Uiso   1.00
O321   O     0.94161   0.84785   0.98777   0.01267  Uiso   1.00
O322   O     0.61380   0.50000  -0.00000   0.01267  Uiso   1.00
O323   O     0.94161   0.84785   0.22277   0.01267  Uiso   1.00
O324   O     0.76393   0.80717   0.66577   0.01267  Uiso   1.00
O325   O     0.95379   0.73109   0.63565   0.01267  Uiso   1.00
O326   O     0.57727   0.67889   0.62289   0.01267  Uiso   1.00
O327   O     0.62095   0.67889   0.07727   0.01267  Uiso   1.00
O328   O     0.81522   0.63286   0.82336   0.01267  Uiso   1.00
O329   O     0.64132   0.04304   0.84670   0.01267  Uiso   1.00
O330   O     0.85280   0.40708   0.91746   0.01267  Uiso   1.00
O331   O     0.87711   0.32111   0.87905   0.01267  Uiso   1.00
O332   O     0.05203   0.82769   0.77797   0.01267  Uiso   1.00
O333   O     0.67664   0.36714   0.68478   0.01267  Uiso   1.00
O334   O     0.37100   0.87100   0.37900   0.01267  Uiso   1.00
O335   O     0.88603   0.29123   0.34201   0.01267  Uiso   1.00
O336   O     0.00000   0.00000   0.18700   0.01267  Uiso   1.00
O337   O     0.75386   0.98106   0.47278   0.01267  Uiso   1.00
O338   O     0.85951   0.79321   0.60439   0.01267  Uiso   1.00
O339   O     0.86524   0.74038   0.13292   0.01267  Uiso   1.00
O340   O     0.74418   0.80042   0.61154   0.01267  Uiso   1.00
O341   O     0.84201   0.48073   0.29123   0.01267  Uiso   1.00
O342   O     0.29321   0.74289   0.60439   0.01267  Uiso   1.00
O343   O     0.68070   0.81070   0.55878   0.01267  Uiso   1.00
O344   O     0.35814   0.57930   0.76494   0.01267  Uiso   1.00
O345   O     0.12100   0.12900   0.62100   0.01267  Uiso   1.00
O346   O     0.34670   0.04304   0.14132   0.01267  Uiso   1.00
O347   O     0.20877   0.61397   0.65799   0.01267  Uiso   1.00
O348   O     0.16577   0.26393   0.80717   0.01267  Uiso   1.00
O349   O     0.31300   0.00000   0.18700   0.01267  Uiso   1.00
O350   O     0.30042   0.24418   0.61154   0.01267  Uiso   1.00
O351   O     0.68930   0.05018   0.81930   0.01267  Uiso   1.00
O352   O     0.03340   0.02152   0.12134   0.01267  Uiso   1.00
O353   O     0.23607   0.23687   0.19283   0.01267  Uiso   1.00
O354   O     0.13286   0.31522   0.82336   0.01267  Uiso   1.00
O355   O     0.15799   0.70877   0.61397   0.01267  Uiso   1.00
O356   O     0.25582   0.38846   0.15614   0.01267  Uiso   1.00
O357   O     0.69958   0.38846   0.15614   0.01267  Uiso   1.00
O358   O     0.32266   0.40708   0.91746   0.01267  Uiso   1.00
O359   O     0.69958   0.38846   0.75582   0.01267  Uiso   1.00
O360   O     0.35814   0.76494   0.29762   0.01267  Uiso   1.00
O361   O     0.73687   0.73607   0.33423   0.01267  Uiso   1.00
O362   O     0.29426   0.60844   0.30304   0.01267  Uiso   1.00
O363   O     0.63292   0.74038   0.36524   0.01267  Uiso   1.00
O364   O     0.21454   0.71454   0.48606   0.01267  Uiso   1.00
O365   O     0.93380   0.81838   0.38016   0.01267  Uiso   1.00
O366   O     0.31070   0.94982   0.55878   0.01267  Uiso   1.00
O367   O     0.72325   0.60697   0.22325   0.01267  Uiso   1.00
O368   O     0.45696   0.15330   0.53106   0.01267  Uiso   1.00
O369   O     0.22856   0.63286   0.31522   0.01267  Uiso   1.00
O370   O     0.63292   0.36524   0.74038   0.01267  Uiso   1.00
O371   O     0.05203   0.77797   0.34231   0.01267  Uiso   1.00
O372   O     0.26313   0.80717   0.66577   0.01267  Uiso   1.00
O373   O     0.84201   0.38603   0.48073   0.01267  Uiso   1.00
O374   O     0.68930   0.44122   0.05018   0.01267  Uiso   1.00
O375   O     0.01927   0.65799   0.70877   0.01267  Uiso   1.00
O376   O     0.11397   0.51927   0.70877   0.01267  Uiso   1.00
O377   O     0.62900   0.62100   0.62100   0.01267  Uiso   1.00
O378   O     0.47124   0.19912   0.74970   0.01267  Uiso   1.00
O379   O     0.81522   0.72856   0.63286   0.01267  Uiso   1.00
O380   O    -0.00000   0.11380   0.88620   0.01267  Uiso   1.00
O381   O     0.70679   0.39561   0.25711   0.01267  Uiso   1.00
O382   O     0.89561   0.25711   0.64049   0.01267  Uiso   1.00
O383   O     0.67231   0.22203   0.65769   0.01267  Uiso   1.00
O384   O     0.52876   0.25030   0.42006   0.01267  Uiso   1.00
O385   O     0.17889   0.12095   0.62289   0.01267  Uiso   1.00
O386   O     0.10844   0.30304   0.79426   0.01267  Uiso   1.00
O387   O     0.64186   0.42070   0.70238   0.01267  Uiso   1.00
O388   O     0.15799   0.51927   0.61397   0.01267  Uiso   1.00
O389   O     0.67664   0.27144   0.36714   0.01267  Uiso   1.00
O390   O     0.34670   0.14132   0.46894   0.01267  Uiso   1.00
O391   O     0.47848   0.17626   0.46660   0.01267  Uiso   1.00
O392   O     0.15769   0.44797   0.17231   0.01267  Uiso   1.00
O393   O     0.63292   0.74038   0.26146   0.01267  Uiso   1.00
O394   O     0.62134   0.02152   0.82374   0.01267  Uiso   1.00
O395   O     0.12100   0.62100   0.12900   0.01267  Uiso   1.00
O396   O     0.50000   0.18700   0.81300   0.01267  Uiso   1.00
O397   O     0.24970   0.19912   0.57994   0.01267  Uiso   1.00
O398   O     0.41746   0.40708   0.35280   0.01267  Uiso   1.00
O399   O     0.11984   0.18162   0.56620   0.01267  Uiso   1.00
O400   O     0.68162   0.56620   0.13234   0.01267  Uiso   1.00
O401   O     0.20877   0.51927   0.65799   0.01267  Uiso   1.00
O402   O     0.34670   0.04304   0.46894   0.01267  Uiso   1.00
O403   O     0.04621   0.32053   0.26891   0.01267  Uiso   1.00
O404   O     0.64186   0.42070   0.23506   0.01267  Uiso   1.00
O405   O     0.75030   0.80088   0.42006   0.01267  Uiso   1.00
O406   O     0.74418   0.61154   0.80042   0.01267  Uiso   1.00
O407   O     0.75962   0.63476   0.86708   0.01267  Uiso   1.00
O408   O     0.97424   0.22014   0.76460   0.01267  Uiso   1.00
O409   O     0.84201   0.48073   0.38603   0.01267  Uiso   1.00
O410   O     0.75962   0.86708   0.73854   0.01267  Uiso   1.00
O411   O     0.79123   0.34201   0.48073   0.01267  Uiso   1.00
O412   O     0.57727   0.12095   0.67889   0.01267  Uiso   1.00
O413   O     0.62900   0.12900   0.62100   0.01267  Uiso   1.00
O414   O     0.18478   0.36714   0.17664   0.01267  Uiso   1.00
O415   O     0.16577   0.76313   0.26393   0.01267  Uiso   1.00
O416   O     0.92006   0.80088   0.02876   0.01267  Uiso   1.00
O417   O     0.77144   0.36714   0.17664   0.01267  Uiso   1.00
O418   O     0.36708   0.63476   0.73854   0.01267  Uiso   1.00
O419   O     0.83423   0.19283   0.73607   0.01267  Uiso   1.00
O420   O     0.76146   0.36524   0.74038   0.01267  Uiso   1.00
O421   O     0.72325   0.22325   0.60697   0.01267  Uiso   1.00
O422   O     0.73540   0.77986   0.95898   0.01267  Uiso   1.00
O423   O     0.75386   0.47278   0.79230   0.01267  Uiso   1.00
O424   O     0.86524   0.26146   0.13292   0.01267  Uiso   1.00
O425   O     0.94161   0.98777   0.22277   0.01267  Uiso   1.00
O426   O     0.86524   0.13292   0.26146   0.01267  Uiso   1.00
O427   O     0.06620   0.13234   0.61984   0.01267  Uiso   1.00
O428   O     0.41746   0.35280   0.40708   0.01267  Uiso   1.00
O429   O     0.50000   0.81300   0.18700   0.01267  Uiso   1.00
O430   O     0.86435   0.32053   0.26891   0.01267  Uiso   1.00
O431   O     0.76146   0.36524   0.13292   0.01267  Uiso   1.00
O432   O     0.29426   0.79426   0.60844   0.01267  Uiso   1.00
O433   O     0.20238   0.42070   0.23506   0.01267  Uiso   1.00
O434   O     0.76891   0.32053   0.36435   0.01267  Uiso   1.00
O435   O     0.17889   0.07727   0.12095   0.01267  Uiso   1.00
O436   O     0.76146   0.13292   0.36524   0.01267  Uiso   1.00
O437   O     0.00000   0.81300   0.18700   0.01267  Uiso   1.00
O438   O     0.87711   0.87905   0.32111   0.01267  Uiso   1.00
O439   O     0.85280   0.91746   0.40708   0.01267  Uiso   1.00
O440   O     0.26313   0.26393   0.66577   0.01267  Uiso   1.00
O441   O     0.96660   0.97848   0.87866   0.01267  Uiso   1.00
O442   O     0.20238   0.14186   0.23506   0.01267  Uiso   1.00
O443   O     0.96894   0.84670   0.14132   0.01267  Uiso   1.00
O444   O     0.04621   0.36435   0.32053   0.01267  Uiso   1.00
O445   O     0.83423   0.73607   0.23687   0.01267  Uiso   1.00
O446   O     0.79123   0.38603   0.34201   0.01267  Uiso   1.00
O447   O     0.32374   0.02152   0.53340   0.01267  Uiso   1.00
O448   O     0.69958   0.15614   0.38846   0.01267  Uiso   1.00
O449   O     0.76393   0.66577   0.76313   0.01267  Uiso   1.00
O450   O     0.86524   0.26146   0.74038   0.01267  Uiso   1.00
O451   O     0.63234   0.61984   0.56620   0.01267  Uiso   1.00
O452   O     0.27723   0.01223   0.15215   0.01267  Uiso   1.00
O453   O     0.72014   0.47424   0.04102   0.01267  Uiso   1.00
O454   O     0.89561   0.64049   0.20679   0.01267  Uiso   1.00
O455   O     0.54304   0.46894   0.84670   0.01267  Uiso   1.00
O456   O     0.62095   0.62289   0.67889   0.01267  Uiso   1.00
O457   O     0.62095   0.07727   0.67889   0.01267  Uiso   1.00
O458   O     0.08486   0.71454   0.48606   0.01267  Uiso   1.00
O459   O     0.13286   0.31522   0.72856   0.01267  Uiso   1.00
O460   O     0.85280   0.82266   0.91746   0.01267  Uiso   1.00
O461   O     0.11154   0.24418   0.80042   0.01267  Uiso   1.00
O462   O     0.96894   0.14132   0.04304   0.01267  Uiso   1.00
O463   O     0.58254   0.59292   0.17734   0.01267  Uiso   1.00
O464   O     0.17121   0.48637   0.67121   0.01267  Uiso   1.00
O465   O     0.77144   0.36714   0.68478   0.01267  Uiso   1.00
O466   O     0.06620   0.18162   0.61984   0.01267  Uiso   1.00
O467   O     0.64132   0.46894   0.04304   0.01267  Uiso   1.00
O468   O     0.31838   0.38016   0.86766   0.01267  Uiso   1.00
O469   O     0.86435   0.54621   0.32053   0.01267  Uiso   1.00
O470   O     0.51223   0.55839   0.15215   0.01267  Uiso   1.00
O471   O     0.21454   0.48606   0.71454   0.01267  Uiso   1.00
O472   O     0.34386   0.61154   0.24418   0.01267  Uiso   1.00
O473   O     0.14720   0.08254   0.59292   0.01267  Uiso   1.00
O474   O     0.44982   0.55878   0.81070   0.01267  Uiso   1.00
O475   O     0.88603   0.48073   0.29123   0.01267  Uiso   1.00
O476   O     0.75711   0.20679   0.39561   0.01267  Uiso   1.00
O477   O     0.17947   0.63565   0.45379   0.01267  Uiso   1.00
O478   O     0.32266   0.35280   0.40708   0.01267  Uiso   1.00
O479   O     0.55018   0.44122   0.18930   0.01267  Uiso   1.00
O480   O     0.34386   0.61154   0.80042   0.01267  Uiso   1.00
O481   O     0.75386   0.98106   0.79230   0.01267  Uiso   1.00
O482   O     0.30088   0.02876   0.25030   0.01267  Uiso   1.00
O483   O     0.06840   0.18160   0.18160   0.01267  Uiso   1.00
O484   O     0.68070   0.55878   0.81070   0.01267  Uiso   1.00
O485   O     0.44982   0.18070   0.55878   0.01267  Uiso   1.00
O486   O     0.67626   0.46660   0.97848   0.01267  Uiso   1.00
O487   O     0.12289   0.67889   0.07727   0.01267  Uiso   1.00
O488   O     0.01927   0.70877   0.65799   0.01267  Uiso   1.00
O489   O     0.37905   0.92273   0.32111   0.01267  Uiso   1.00
O490   O     0.10439   0.74289   0.35951   0.01267  Uiso   1.00
O491   O     0.46216   0.83424   0.35180   0.01267  Uiso   1.00
O492   O     0.08486   0.48606   0.71454   0.01267  Uiso   1.00
O493   O     0.13286   0.72856   0.31522   0.01267  Uiso   1.00
O494   O     0.47124   0.57994   0.74970   0.01267  Uiso   1.00
O495   O     0.94653   0.60697   0.22325   0.01267  Uiso   1.00
O496   O     0.05347   0.39303   0.77675   0.01267  Uiso   1.00
O497   O     0.13286   0.82336   0.31522   0.01267  Uiso   1.00
O498   O     0.62134   0.82374   0.53340   0.01267  Uiso   1.00
O499   O     0.57727   0.67889   0.12095   0.01267  Uiso   1.00
O500   O     0.88603   0.34201   0.48073   0.01267  Uiso   1.00
O501   O     0.85951   0.74289   0.60439   0.01267  Uiso   1.00
O502   O     0.38620   0.00000   0.50000   0.01267  Uiso   1.00
O503   O     0.55018   0.44122   0.81930   0.01267  Uiso   1.00
O504   O     0.52152   0.12134   0.53340   0.01267  Uiso   1.00
O505   O     0.94122   0.05018   0.18930   0.01267  Uiso   1.00
O506   O     0.02576   0.95898   0.77986   0.01267  Uiso   1.00
O507   O     0.89303   0.77675   0.77675   0.01267  Uiso   1.00
O508   O     0.11154   0.80042   0.24418   0.01267  Uiso   1.00
O509   O     0.23854   0.86708   0.25962   0.01267  Uiso   1.00
O510   O     0.30042   0.61154   0.24418   0.01267  Uiso   1.00
O511   O     0.27797   0.82769   0.34231   0.01267  Uiso   1.00
O512   O     0.16577   0.80717   0.26393   0.01267  Uiso   1.00
O513   O     0.26494   0.29762   0.57930   0.01267  Uiso   1.00
O514   O     0.30717   0.76313   0.26393   0.01267  Uiso   1.00
O515   O     0.93380   0.86766   0.81838   0.01267  Uiso   1.00
O516   O     0.33424   0.96216   0.35180   0.01267  Uiso   1.00
O517   O     0.69958   0.75582   0.38846   0.01267  Uiso   1.00
O518   O     0.85180   0.83424   0.96216   0.01267  Uiso   1.00
O519   O     0.51223   0.77723   0.55839   0.01267  Uiso   1.00
O520   O     0.87711   0.92273   0.87905   0.01267  Uiso   1.00
O521   O     0.20238   0.23506   0.42070   0.01267  Uiso   1.00
O522   O     0.72203   0.17231   0.44797   0.01267  Uiso   1.00
O523   O     0.62095   0.62289   0.07727   0.01267  Uiso   1.00
O524   O     0.03340   0.12134   0.82374   0.01267  Uiso   1.00
O525   O     0.02722   0.01894   0.74614   0.01267  Uiso   1.00
O526   O     0.13565   0.67947   0.45379   0.01267  Uiso   1.00
O527   O     0.76891   0.32053   0.54621   0.01267  Uiso   1.00
O528   O     0.80304   0.79426   0.60844   0.01267  Uiso   1.00
O529   O     0.24614   0.52722   0.20770   0.01267  Uiso   1.00
O530   O     0.72203   0.65769   0.44797   0.01267  Uiso   1.00
O531   O     0.97278   0.98106   0.25386   0.01267  Uiso   1.00
O532   O     0.04621   0.26891   0.36435   0.01267  Uiso   1.00
O533   O     0.35814   0.76494   0.57930   0.01267  Uiso   1.00
O534   O     0.47848   0.46660   0.87866   0.01267  Uiso   1.00
O535   O     0.94122   0.81930   0.18930   0.01267  Uiso   1.00
O536   O     0.55018   0.81930   0.44122   0.01267  Uiso   1.00
O537   O     0.06620   0.18162   0.13234   0.01267  Uiso   1.00
O538   O     0.34386   0.80042   0.61154   0.01267  Uiso   1.00
O539   O     0.73506   0.42070   0.70238   0.01267  Uiso   1.00
O540   O     0.68700   0.81300  -0.00000   0.01267  Uiso   1.00
O541   O     0.48106   0.25386   0.79230   0.01267  Uiso   1.00
O542   O     0.76146   0.74038   0.13292   0.01267  Uiso   1.00
O543   O     0.70770   0.74614   0.01894   0.01267  Uiso   1.00
O544   O     0.31300   0.18700   0.50000   0.01267  Uiso   1.00
O545   O     0.97424   0.04102   0.22014   0.01267  Uiso   1.00
O546   O     0.14720   0.08254   0.17734   0.01267  Uiso   1.00
O547   O     0.05878   0.18070   0.94982   0.01267  Uiso   1.00
O548   O     0.82879   0.32879   0.32879   0.01267  Uiso   1.00
O549   O     0.47848   0.87866   0.17626   0.01267  Uiso   1.00
O550   O     0.69912   0.74970   0.57994   0.01267  Uiso   1.00
O551   O     0.34670   0.46894   0.04304   0.01267  Uiso   1.00
O552   O     0.36708   0.25962   0.73854   0.01267  Uiso   1.00
O553   O     0.90708   0.35280   0.82266   0.01267  Uiso   1.00
O554   O     0.20238   0.14186   0.42070   0.01267  Uiso   1.00
O555   O     0.76393   0.76313   0.66577   0.01267  Uiso   1.00
O556   O     0.27986   0.52576   0.23540   0.01267  Uiso   1.00
O557   O     0.94161   0.22277   0.84785   0.01267  Uiso   1.00
O558   O     0.84231   0.77797   0.82769   0.01267  Uiso   1.00
O559   O     0.90708   0.35280   0.91746   0.01267  Uiso   1.00
O560   O     0.05839   0.77723   0.01223   0.01267  Uiso   1.00
O561   O     0.06620   0.61984   0.18162   0.01267  Uiso   1.00
O562   O     0.90708   0.82266   0.35280   0.01267  Uiso   1.00
O563   O     0.07994   0.19912   0.74970   0.01267  Uiso   1.00
O564   O     0.00000   0.00000   0.88620   0.01267  Uiso   1.00
O565   O     0.78546   0.28546   0.51394   0.01267  Uiso   1.00
O566   O     0.96660   0.17626   0.87866   0.01267  Uiso   1.00
O567   O     0.27797   0.34231   0.82769   0.01267  Uiso   1.00
O568   O     0.62900   0.62100   0.12900   0.01267  Uiso   1.00
O569   O     0.50000   0.50000   0.11380   0.01267  Uiso   1.00
O570   O     0.67231   0.22203   0.44797   0.01267  Uiso   1.00
O571   O     0.27723   0.15215   0.55839   0.01267  Uiso   1.00
O572   O     0.31300   0.50000  -0.00000   0.01267  Uiso   1.00
O573   O     0.34785   0.98777   0.22277   0.01267  Uiso   1.00
O574   O     0.67664   0.68478   0.27144   0.01267  Uiso   1.00
O575   O     0.48777   0.44161   0.22277   0.01267  Uiso   1.00
O576   O     0.32769   0.55203   0.34231   0.01267  Uiso   1.00
O577   O     0.07930   0.85814   0.76494   0.01267  Uiso   1.00
O578   O     0.07994   0.97124   0.19912   0.01267  Uiso   1.00
O579   O     0.67664   0.68478   0.36714   0.01267  Uiso   1.00
O580   O     0.24289   0.79321   0.35951   0.01267  Uiso   1.00
O581   O     0.98606   0.58486   0.71454   0.01267  Uiso   1.00
O582   O     0.72277   0.44161   0.84785   0.01267  Uiso   1.00
O583   O     0.76393   0.66577   0.80717   0.01267  Uiso   1.00
O584   O     0.69912   0.74970   0.97124   0.01267  Uiso   1.00
O585   O     0.85180   0.35180   0.83424   0.01267  Uiso   1.00
O586   O     0.38620   0.11380  -0.00000   0.01267  Uiso   1.00
O587   O     0.32374   0.53340   0.12134   0.01267  Uiso   1.00
O588   O     0.65330   0.85868   0.53106   0.01267  Uiso   1.00
O589   O     0.65330   0.85868   0.95696   0.01267  Uiso   1.00
O590   O     0.64186   0.23506   0.42070   0.01267  Uiso   1.00
O591   O     0.72014   0.04102   0.47424   0.01267  Uiso   1.00
O592   O     0.85180   0.96216   0.35180   0.01267  Uiso   1.00
O593   O     0.51894   0.20770   0.74614   0.01267  Uiso   1.00
O594   O     0.52876   0.80088   0.42006   0.01267  Uiso   1.00
O595   O     0.81522   0.72856   0.82336   0.01267  Uiso   1.00
O596   O     0.42273   0.37711   0.87905   0.01267  Uiso   1.00
O597   O     0.67626   0.87866   0.46660   0.01267  Uiso   1.00
O598   O     0.67734   0.08254   0.64720   0.01267  Uiso   1.00
O599   O     0.19696   0.20574   0.20574   0.01267  Uiso   1.00
O600   O     0.29230   0.25386   0.98106   0.01267  Uiso   1.00
O601   O     0.61380   0.00000   0.50000   0.01267  Uiso   1.00
O602   O     0.30088   0.02876   0.42006   0.01267  Uiso   1.00
O603   O     0.57727   0.12095   0.62289   0.01267  Uiso   1.00
O604   O     0.51894   0.74614   0.20770   0.01267  Uiso   1.00
O605   O     0.58254   0.17734   0.64720   0.01267  Uiso   1.00
O606   O     0.18478   0.17664   0.36714   0.01267  Uiso   1.00
O607   O     0.67231   0.44797   0.22203   0.01267  Uiso   1.00
O608   O     0.73506   0.14186   0.42070   0.01267  Uiso   1.00
O609   O     0.62134   0.53340   0.82374   0.01267  Uiso   1.00
O610   O     0.85280   0.40708   0.82266   0.01267  Uiso   1.00
O611   O     0.13565   0.67947   0.73109   0.01267  Uiso   1.00
O612   O     0.52152   0.82374   0.12134   0.01267  Uiso   1.00
O613   O     0.14049   0.20679   0.25711   0.01267  Uiso   1.00
O614   O     0.88603   0.29123   0.48073   0.01267  Uiso   1.00
O615   O     0.69912   0.57994   0.97124   0.01267  Uiso   1.00
O616   O     0.30042   0.84386   0.24418   0.01267  Uiso   1.00
O617   O     0.32336   0.63286   0.72856   0.01267  Uiso   1.00
O618   O     0.37905   0.37711   0.32111   0.01267  Uiso   1.00
O619   O     0.70574   0.69696   0.39156   0.01267  Uiso   1.00
O620   O     0.30717   0.26393   0.76313   0.01267  Uiso   1.00
O621   O     0.34785   0.98777   0.44161   0.01267  Uiso   1.00
O622   O     0.25582   0.15614   0.19958   0.01267  Uiso   1.00
O623   O     0.31930   0.05018   0.44122   0.01267  Uiso   1.00
O624   O     0.13565   0.45379   0.73109   0.01267  Uiso   1.00
O625   O     0.38620   0.50000  -0.00000   0.01267  Uiso   1.00
O626   O     0.30717   0.66577   0.26393   0.01267  Uiso   1.00
O627   O     0.54102   0.76460   0.47424   0.01267  Uiso   1.00
O628   O     0.97278   0.25386   0.79230   0.01267  Uiso   1.00
O629   O     0.84231   0.82769   0.77797   0.01267  Uiso   1.00
O630   O     0.72277   0.84785   0.44161   0.01267  Uiso   1.00
O631   O     0.31840   0.81840   0.43160   0.01267  Uiso   1.00
O632   O     0.72277   0.98777   0.84785   0.01267  Uiso   1.00
O633   O     0.95379   0.67947   0.63565   0.01267  Uiso   1.00
O634   O     0.93160   0.43160   0.81840   0.01267  Uiso   1.00
O635   O     0.13476   0.25962   0.73854   0.01267  Uiso   1.00
O636   O     0.73506   0.70238   0.42070   0.01267  Uiso   1.00
O637   O     0.69912   0.57994   0.74970   0.01267  Uiso   1.00
O638   O     0.05347   0.77675   0.77675   0.01267  Uiso   1.00
O639   O     0.82879   0.32879   0.51363   0.01267  Uiso   1.00
O640   O     0.11154   0.84386   0.24418   0.01267  Uiso   1.00
O641   O     0.29321   0.35951   0.74289   0.01267  Uiso   1.00
O642   O     0.54102   0.76460   0.22014   0.01267  Uiso   1.00
O643   O     0.73687   0.33423   0.19283   0.01267  Uiso   1.00
O644   O     0.62095   0.07727   0.62289   0.01267  Uiso   1.00
O645   O     0.53784   0.64820   0.16576   0.01267  Uiso   1.00
O646   O     0.93380   0.81838   0.86766   0.01267  Uiso   1.00
O647   O     0.68162   0.61984   0.56620   0.01267  Uiso   1.00
O648   O     0.66576   0.64820   0.03784   0.01267  Uiso   1.00
O649   O     0.73540   0.95898   0.52576   0.01267  Uiso   1.00
O650   O     0.24038   0.26146   0.13292   0.01267  Uiso   1.00
O651   O     0.15799   0.61397   0.51927   0.01267  Uiso   1.00
O652   O     0.65614   0.75582   0.19958   0.01267  Uiso   1.00
O653   O     0.58254   0.59292   0.64720   0.01267  Uiso   1.00
O654   O     0.32336   0.31522   0.72856   0.01267  Uiso   1.00
O655   O     0.86524   0.74038   0.26146   0.01267  Uiso   1.00
O656   O     0.31070   0.18070   0.55878   0.01267  Uiso   1.00
O657   O     0.64186   0.23506   0.70238   0.01267  Uiso   1.00
O658   O     0.78546   0.51394   0.28546   0.01267  Uiso   1.00
O659   O     0.10439   0.35951   0.74289   0.01267  Uiso   1.00
O660   O     0.27986   0.95898   0.23540   0.01267  Uiso   1.00
O661   O     0.79762   0.76494   0.57930   0.01267  Uiso   1.00
O662   O     0.92070   0.23506   0.70238   0.01267  Uiso   1.00
O663   O     0.01927   0.61397   0.70877   0.01267  Uiso   1.00
O664   O     0.70679   0.64049   0.25711   0.01267  Uiso   1.00
O665   O     0.07994   0.19912   0.97124   0.01267  Uiso   1.00
O666   O     0.03106   0.95696   0.85868   0.01267  Uiso   1.00
O667   O     0.82111   0.37711   0.87905   0.01267  Uiso   1.00
O668   O     0.76891   0.54621   0.36435   0.01267  Uiso   1.00
O669   O     0.14820   0.03784   0.16576   0.01267  Uiso   1.00
O670   O     0.29321   0.35951   0.60439   0.01267  Uiso   1.00
O671   O     0.94122   0.18930   0.05018   0.01267  Uiso   1.00
O672   O     0.44982   0.81070   0.55878   0.01267  Uiso   1.00
O673   O     0.45898   0.52576   0.77986   0.01267  Uiso   1.00
O674   O     0.68162   0.56620   0.61984   0.01267  Uiso   1.00
O675   O     0.77144   0.17664   0.68478   0.01267  Uiso   1.00
O676   O     0.37100   0.37900   0.87100   0.01267  Uiso   1.00
O677   O     0.70770   0.01894   0.74614   0.01267  Uiso   1.00
O678   O     0.20877   0.61397   0.51927   0.01267  Uiso   1.00
O679   O     0.31070   0.94982   0.18070   0.01267  Uiso   1.00
O680   O     0.20238   0.42070   0.14186   0.01267  Uiso   1.00
O681   O     0.98073   0.38603   0.34201   0.01267  Uiso   1.00
O682   O     0.13565   0.73109   0.45379   0.01267  Uiso   1.00
O683   O     0.73506   0.14186   0.70238   0.01267  Uiso   1.00
O684   O     0.37100   0.37900   0.37900   0.01267  Uiso   1.00
O685   O     0.88016   0.43380   0.81838   0.01267  Uiso   1.00
O686   O     0.92006   0.80088   0.25030   0.01267  Uiso   1.00
O687   O     0.65330   0.53106   0.85868   0.01267  Uiso   1.00
O688   O     0.50000   0.50000   0.81300   0.01267  Uiso   1.00
O689   O     0.02576   0.23540   0.77986   0.01267  Uiso   1.00
O690   O     0.85951   0.60439   0.79321   0.01267  Uiso   1.00
O691   O     0.34386   0.24418   0.61154   0.01267  Uiso   1.00
O692   O     0.84201   0.29123   0.38603   0.01267  Uiso   1.00
O693   O     0.02722   0.20770   0.74614   0.01267  Uiso   1.00
O694   O     0.02576   0.95898   0.23540   0.01267  Uiso   1.00
O695   O     0.12100   0.12900   0.12900   0.01267  Uiso   1.00
O696   O     0.68070   0.55878   0.94982   0.01267  Uiso   1.00
O697   O     0.06620   0.13234   0.18162   0.01267  Uiso   1.00
O698   O     0.38620   0.50000   0.11380   0.01267  Uiso   1.00
O699   O     0.18478   0.27144   0.36714   0.01267  Uiso   1.00
O700   O     0.75386   0.79230   0.47278   0.01267  Uiso   1.00
O701   O     0.01927   0.65799   0.61397   0.01267  Uiso   1.00
O702   O     0.23607   0.33423   0.23687   0.01267  Uiso   1.00
O703   O     0.68700   0.00000   0.81300   0.01267  Uiso   1.00
O704   O     0.23607   0.19283   0.33423   0.01267  Uiso   1.00
O705   O     0.44982   0.55878   0.18070   0.01267  Uiso   1.00
O706   O     0.75962   0.73854   0.86708   0.01267  Uiso   1.00
O707   O     0.74418   0.84386   0.80042   0.01267  Uiso   1.00
O708   O     0.14720   0.59292   0.17734   0.01267  Uiso   1.00
O709   O     0.17947   0.63565   0.73109   0.01267  Uiso   1.00
O710   O     0.77144   0.68478   0.36714   0.01267  Uiso   1.00
O711   O     0.24038   0.13292   0.26146   0.01267  Uiso   1.00
O712   O     0.70574   0.39156   0.69696   0.01267  Uiso   1.00
O713   O     0.82053   0.54621   0.26891   0.01267  Uiso   1.00
O714   O     0.79762   0.85814   0.57930   0.01267  Uiso   1.00
O715   O     0.75386   0.47278   0.98106   0.01267  Uiso   1.00
O716   O     0.27797   0.34231   0.55203   0.01267  Uiso   1.00
O717   O     0.33424   0.35180   0.35180   0.01267  Uiso   1.00
O718   O     0.07994   0.74970   0.19912   0.01267  Uiso   1.00
O719   O     0.67626   0.46660   0.87866   0.01267  Uiso   1.00
O720   O     0.57727   0.62289   0.67889   0.01267  Uiso   1.00
O721   O     0.91514   0.51394   0.28546   0.01267  Uiso   1.00
O722   O     0.78546   0.51394   0.41514   0.01267  Uiso   1.00
O723   O     0.98606   0.71454   0.71454   0.01267  Uiso   1.00
O724   O     0.92070   0.14186   0.70238   0.01267  Uiso   1.00
O725   O     0.69912   0.97124   0.57994   0.01267  Uiso   1.00
O726   O     0.11154   0.80042   0.84386   0.01267  Uiso   1.00
O727   O     0.37905   0.32111   0.37711   0.01267  Uiso   1.00
O728   O     0.27675   0.39303   0.55347   0.01267  Uiso   1.00
O729   O     0.22856   0.82336   0.63286   0.01267  Uiso   1.00
O730   O     0.67734   0.59292   0.08254   0.01267  Uiso   1.00
O731   O     0.23607   0.19283   0.23687   0.01267  Uiso   1.00
O732   O     0.15799   0.51927   0.70877   0.01267  Uiso   1.00
O733   O     0.68160   0.18160   0.56840   0.01267  Uiso   1.00
O734   O     0.90708   0.82266   0.91746   0.01267  Uiso   1.00
O735   O     0.52876   0.25030   0.80088   0.01267  Uiso   1.00
O736   O     0.13476   0.86708   0.73854   0.01267  Uiso   1.00
O737   O     0.32769   0.55203   0.77797   0.01267  Uiso   1.00
O738   O     0.32374   0.02152   0.12134   0.01267  Uiso   1.00
O739   O     0.83423   0.73607   0.19283   0.01267  Uiso   1.00
O740   O     0.41746   0.35280   0.82266   0.01267  Uiso   1.00
O741   O     0.62134   0.82374   0.02152   0.01267  Uiso   1.00
O742   O     0.85280   0.82266   0.40708   0.01267  Uiso   1.00
O743   O     0.75962   0.63476   0.73854   0.01267  Uiso   1.00
O744   O     0.26460   0.04102   0.47424   0.01267  Uiso   1.00
O745   O     0.03106   0.15330   0.85868   0.01267  Uiso   1.00
O746   O     0.02722   0.74614   0.20770   0.01267  Uiso   1.00
O747   O     0.29426   0.30304   0.60844   0.01267  Uiso   1.00
O748   O     0.68930   0.44122   0.81930   0.01267  Uiso   1.00
O749   O     0.07930   0.76494   0.29762   0.01267  Uiso   1.00
O750   O     0.96894   0.04304   0.84670   0.01267  Uiso   1.00
O751   O     0.34785   0.44161   0.98777   0.01267  Uiso   1.00
O752   O     0.47124   0.57994   0.19912   0.01267  Uiso   1.00
O753   O     0.73506   0.42070   0.14186   0.01267  Uiso   1.00
O754   O     0.79123   0.48073   0.38603   0.01267  Uiso   1.00
O755   O     0.45696   0.85868   0.53106   0.01267  Uiso   1.00
O756   O     0.82053   0.54621   0.36435   0.01267  Uiso   1.00
O757   O     0.26494   0.57930   0.29762   0.01267  Uiso   1.00
O758   O     0.32266   0.91746   0.40708   0.01267  Uiso   1.00
O759   O     0.94653   0.22325   0.22325   0.01267  Uiso   1.00
O760   O     0.75962   0.86708   0.63476   0.01267  Uiso   1.00
O761   O     0.26494   0.85814   0.29762   0.01267  Uiso   1.00
O762   O     0.27723   0.55839   0.01223   0.01267  Uiso   1.00
O763   O     0.94797   0.17231   0.22203   0.01267  Uiso   1.00
O764   O     0.31930   0.18930   0.05018   0.01267  Uiso   1.00
O765   O     0.23854   0.25962   0.86708   0.01267  Uiso   1.00
O766   O     0.89561   0.25711   0.20679   0.01267  Uiso   1.00
O767   O     0.68160   0.56840   0.56840   0.01267  Uiso   1.00
O768   O     0.48106   0.47278   0.79230   0.01267  Uiso   1.00
O769   O     0.70574   0.69696   0.20574   0.01267  Uiso   1.00
O770   O     0.03340   0.82374   0.12134   0.01267  Uiso   1.00
O771   O     0.36708   0.73854   0.63476   0.01267  Uiso   1.00
O772   O     0.29230   0.47278   0.98106   0.01267  Uiso   1.00
O773   O     0.09292   0.17734   0.64720   0.01267  Uiso   1.00
O774   O     0.09292   0.08254   0.64720   0.01267  Uiso   1.00
O775   O     0.68162   0.13234   0.56620   0.01267  Uiso   1.00
O776   O     0.66576   0.64820   0.64820   0.01267  Uiso   1.00
O777   O     0.69283   0.23687   0.73607   0.01267  Uiso   1.00
O778   O     0.68700   0.81300   0.50000   0.01267  Uiso   1.00
O779   O     0.58254   0.64720   0.17734   0.01267  Uiso   1.00
O780   O     0.03340   0.02152   0.82374   0.01267  Uiso   1.00
O781   O     0.24970   0.57994   0.97124   0.01267  Uiso   1.00
O782   O     0.50000   0.81300   0.50000   0.01267  Uiso   1.00
O783   O     0.23854   0.25962   0.63476   0.01267  Uiso   1.00
O784   O     0.86714   0.27144   0.17664   0.01267  Uiso   1.00
O785   O     0.82879   0.51363   0.32879   0.01267  Uiso   1.00
O786   O     0.05878   0.94982   0.81070   0.01267  Uiso   1.00
O787   O     0.10439   0.35951   0.79321   0.01267  Uiso   1.00
O788   O     0.52876   0.80088   0.25030   0.01267  Uiso   1.00
O789   O     0.87711   0.92273   0.32111   0.01267  Uiso   1.00
O790   O     0.05839   0.15215   0.01223   0.01267  Uiso   1.00
O791   O     0.95379   0.67947   0.73109   0.01267  Uiso   1.00
O792   O     0.64132   0.04304   0.46894   0.01267  Uiso   1.00
O793   O     0.65330   0.95696   0.85868   0.01267  Uiso   1.00
O794   O     0.01394   0.28546   0.41514   0.01267  Uiso   1.00
O795   O     0.24289   0.35951   0.79321   0.01267  Uiso   1.00
O796   O     0.70770   0.01894   0.52722   0.01267  Uiso   1.00
O797   O     0.26460   0.04102   0.22014   0.01267  Uiso   1.00
O798   O     0.72325   0.22325   0.44653   0.01267  Uiso   1.00
O799   O     0.37905   0.32111   0.92273   0.01267  Uiso   1.00
O800   O     0.61380   0.88620  -0.00000   0.01267  Uiso   1.00
O801   O     0.10439   0.79321   0.74289   0.01267  Uiso   1.00
O802   O     0.68700   0.00000   0.50000   0.01267  Uiso   1.00
O803   O     0.70679   0.64049   0.39561   0.01267  Uiso   1.00
O804   O     0.76891   0.36435   0.54621   0.01267  Uiso   1.00
O805   O     0.18478   0.17664   0.27144   0.01267  Uiso   1.00
O806   O     0.67664   0.27144   0.68478   0.01267  Uiso   1.00
O807   O     0.10697   0.44653   0.22325   0.01267  Uiso   1.00
O808   O     0.35868   0.95696   0.53106   0.01267  Uiso   1.00
O809   O     0.24289   0.60439   0.35951   0.01267  Uiso   1.00
O810   O     0.97278   0.79230   0.25386   0.01267  Uiso   1.00
O811   O     0.66576   0.03784   0.64820   0.01267  Uiso   1.00
O812   O     0.32374   0.12134   0.02152   0.01267  Uiso   1.00
O813   O     0.86524   0.13292   0.74038   0.01267  Uiso   1.00
O814   O     0.72325   0.60697   0.44653   0.01267  Uiso   1.00
O815   O     0.05839   0.77723   0.15215   0.01267  Uiso   1.00
O816   O     0.36766   0.81838   0.43380   0.01267  Uiso   1.00
O817   O     0.31930   0.05018   0.18930   0.01267  Uiso   1.00
O818   O     0.14049   0.25711   0.39561   0.01267  Uiso   1.00
O819   O     0.96660   0.87866   0.17626   0.01267  Uiso   1.00
O820   O     0.97424   0.04102   0.76460   0.01267  Uiso   1.00
O821   O     0.16577   0.76313   0.80717   0.01267  Uiso   1.00
O822   O     0.27986   0.52576   0.95898   0.01267  Uiso   1.00
O823   O     0.26460   0.22014   0.04102   0.01267  Uiso   1.00
O824   O     0.92006   0.02876   0.25030   0.01267  Uiso   1.00
O825   O     0.85951   0.60439   0.74289   0.01267  Uiso   1.00
O826   O     0.98073   0.34201   0.29123   0.01267  Uiso   1.00
O827   O     0.88846   0.75582   0.15614   0.01267  Uiso   1.00
O828   O     0.37866   0.97848   0.17626   0.01267  Uiso   1.00
O829   O     0.89561   0.20679   0.25711   0.01267  Uiso   1.00
O830   O     0.54102   0.22014   0.47424   0.01267  Uiso   1.00
O831   O     0.30717   0.26393   0.66577   0.01267  Uiso   1.00
O832   O     0.17889   0.62289   0.12095   0.01267  Uiso   1.00
O833   O     0.04621   0.26891   0.32053   0.01267  Uiso   1.00
O834   O     0.89156   0.20574   0.69696   0.01267  Uiso   1.00
O835   O     0.80304   0.60844   0.79426   0.01267  Uiso   1.00
O836   O     0.16577   0.26393   0.76313   0.01267  Uiso   1.00
O837   O     0.00000   0.81300  -0.00000   0.01267  Uiso   1.00
O838   O     0.41746   0.40708   0.82266   0.01267  Uiso   1.00
O839   O     0.03106   0.85868   0.15330   0.01267  Uiso   1.00
O840   O     0.51894   0.74614   0.52722   0.01267  Uiso   1.00
O841   O     0.12289   0.12095   0.67889   0.01267  Uiso   1.00
O842   O     0.96894   0.14132   0.84670   0.01267  Uiso   1.00
O843   O     0.00000   0.11380   0.00000   0.01267  Uiso   1.00
O844   O     0.69283   0.23687   0.33423   0.01267  Uiso   1.00
O845   O     0.36766   0.81838   0.38016   0.01267  Uiso   1.00
O846   O     0.45898   0.23540   0.52576   0.01267  Uiso   1.00
O847   O     0.13476   0.73854   0.25962   0.01267  Uiso   1.00
O848   O     0.70770   0.52722   0.74614   0.01267  Uiso   1.00
O849   O     0.26494   0.57930   0.85814   0.01267  Uiso   1.00
O850   O     0.24614   0.52722   0.01894   0.01267  Uiso   1.00
O851   O     0.69958   0.75582   0.15614   0.01267  Uiso   1.00
O852   O     0.10439   0.79321   0.35951   0.01267  Uiso   1.00
O853   O     0.02722   0.20770   0.01894   0.01267  Uiso   1.00
O854   O     0.98073   0.38603   0.29123   0.01267  Uiso   1.00
O855   O     0.93380   0.38016   0.81838   0.01267  Uiso   1.00
O856   O     0.72014   0.76460   0.04102   0.01267  Uiso   1.00
O857   O     0.35814   0.57930   0.29762   0.01267  Uiso   1.00
O858   O     0.27986   0.23540   0.95898   0.01267  Uiso   1.00
O859   O     0.36708   0.63476   0.25962   0.01267  Uiso   1.00
O860   O     0.06840   0.18160   0.56840   0.01267  Uiso   1.00
O861   O     0.27675   0.77675   0.55347   0.01267  Uiso   1.00
O862   O     0.63234   0.56620   0.61984   0.01267  Uiso   1.00
O863   O     0.85280   0.91746   0.82266   0.01267  Uiso   1.00
O864   O     0.21454   0.58486   0.48606   0.01267  Uiso   1.00
O865   O     0.00000   0.88620  -0.00000   0.01267  Uiso   1.00
O866   O     0.75386   0.79230   0.98106   0.01267  Uiso   1.00
O867   O     0.92070   0.70238   0.23506   0.01267  Uiso   1.00
O868   O     0.23109   0.63565   0.45379   0.01267  Uiso   1.00
O869   O     0.65614   0.38846   0.75582   0.01267  Uiso   1.00
O870   O     0.52152   0.53340   0.82374   0.01267  Uiso   1.00
O871   O     0.14820   0.64820   0.16576   0.01267  Uiso   1.00
O872   O     0.70679   0.25711   0.39561   0.01267  Uiso   1.00
O873   O     0.75711   0.39561   0.20679   0.01267  Uiso   1.00
O874   O     0.21454   0.48606   0.58486   0.01267  Uiso   1.00
O875   O     0.27797   0.82769   0.55203   0.01267  Uiso   1.00
O876   O     0.01927   0.61397   0.65799   0.01267  Uiso   1.00
O877   O     0.86714   0.68478   0.27144   0.01267  Uiso   1.00
O878   O     0.50000   0.88620   0.50000   0.01267  Uiso   1.00
O879   O     0.67626   0.87866   0.97848   0.01267  Uiso   1.00
O880   O     0.27723   0.15215   0.01223   0.01267  Uiso   1.00
O881   O     0.85180   0.96216   0.83424   0.01267  Uiso   1.00
O882   O     0.47848   0.17626   0.87866   0.01267  Uiso   1.00
O883   O     0.14049   0.20679   0.39561   0.01267  Uiso   1.00
O884   O     0.35868   0.53106   0.15330   0.01267  Uiso   1.00
O885   O     0.30717   0.76313   0.66577   0.01267  Uiso   1.00
O886   O     0.45898   0.77986   0.52576   0.01267  Uiso   1.00
O887   O     0.61380   0.50000   0.88620   0.01267  Uiso   1.00
O888   O     0.31070   0.55878   0.94982   0.01267  Uiso   1.00
O889   O     0.32266   0.40708   0.35280   0.01267  Uiso   1.00
O890   O     0.00000   0.18700   0.00000   0.01267  Uiso   1.00
O891   O     0.48777   0.22277   0.44161   0.01267  Uiso   1.00
O892   O     0.84201   0.38603   0.29123   0.01267  Uiso   1.00
O893   O     0.27723   0.01223   0.55839   0.01267  Uiso   1.00
O894   O     0.14720   0.59292   0.08254   0.01267  Uiso   1.00
O895   O     0.05839   0.15215   0.77723   0.01267  Uiso   1.00
O896   O     0.29230   0.25386   0.47278   0.01267  Uiso   1.00
O897   O     0.65215   0.55839   0.77723   0.01267  Uiso   1.00
O898   O     0.94797   0.22203   0.17231   0.01267  Uiso   1.00
O899   O     0.23109   0.45379   0.67947   0.01267  Uiso   1.00
O900   O     0.61380   0.88620   0.50000   0.01267  Uiso   1.00
O901   O     0.38620   0.00000   0.11380   0.01267  Uiso   1.00
O902   O     0.73687   0.33423   0.73607   0.01267  Uiso   1.00
O903   O     0.27797   0.55203   0.34231   0.01267  Uiso   1.00
O904   O     0.52876   0.42006   0.80088   0.01267  Uiso   1.00
O905   O     0.70574   0.39156   0.20574   0.01267  Uiso   1.00
O906   O     0.75030   0.42006   0.80088   0.01267  Uiso   1.00
O907   O     0.92070   0.23506   0.14186   0.01267  Uiso   1.00
O908   O     0.22856   0.82336   0.31522   0.01267  Uiso   1.00
O909   O     0.72014   0.47424   0.76460   0.01267  Uiso   1.00
O910   O     0.82053   0.26891   0.54621   0.01267  Uiso   1.00
O911   O     0.44982   0.18070   0.81070   0.01267  Uiso   1.00
O912   O     0.95379   0.63565   0.67947   0.01267  Uiso   1.00
O913   O     0.65330   0.95696   0.53106   0.01267  Uiso   1.00
O914   O     0.45898   0.77986   0.23540   0.01267  Uiso   1.00
O915   O     0.27986   0.23540   0.52576   0.01267  Uiso   1.00
O916   O     0.31840   0.43160   0.43160   0.01267  Uiso   1.00
O917   O     0.19696   0.39156   0.20574   0.01267  Uiso   1.00
O918   O     0.13286   0.72856   0.82336   0.01267  Uiso   1.00
O919   O     0.27797   0.55203   0.82769   0.01267  Uiso   1.00
O920   O     0.50000   0.11380   0.50000   0.01267  Uiso   1.00
O921   O     0.05203   0.34231   0.82769   0.01267  Uiso   1.00
O922   O     0.44982   0.81070   0.18070   0.01267  Uiso   1.00
O923   O     0.86714   0.17664   0.27144   0.01267  Uiso   1.00
O924   O     0.34386   0.24418   0.80042   0.01267  Uiso   1.00
O925   O     0.26313   0.80717   0.26393   0.01267  Uiso   1.00
O926   O     0.47124   0.74970   0.57994   0.01267  Uiso   1.00
O927   O     0.88846   0.15614   0.75582   0.01267  Uiso   1.00
O928   O     0.20877   0.51927   0.61397   0.01267  Uiso   1.00
O929   O     0.82111   0.87905   0.92273   0.01267  Uiso   1.00
O930   O     0.81522   0.63286   0.72856   0.01267  Uiso   1.00
O931   O     0.30042   0.61154   0.84386   0.01267  Uiso   1.00
O932   O     0.85951   0.79321   0.74289   0.01267  Uiso   1.00
O933   O     0.30088   0.42006   0.25030   0.01267  Uiso   1.00
O934   O     0.55018   0.81930   0.18930   0.01267  Uiso   1.00
O935   O     0.54304   0.46894   0.14132   0.01267  Uiso   1.00
O936   O     0.15769   0.22203   0.17231   0.01267  Uiso   1.00
O937   O     0.17889   0.62289   0.07727   0.01267  Uiso   1.00
O938   O     0.30042   0.24418   0.84386   0.01267  Uiso   1.00
O939   O     0.45696   0.85868   0.15330   0.01267  Uiso   1.00
O940   O     0.67664   0.36714   0.27144   0.01267  Uiso   1.00
O941   O     0.78546   0.41514   0.51394   0.01267  Uiso   1.00
O942   O     0.51223   0.77723   0.15215   0.01267  Uiso   1.00
O943   O     0.23854   0.63476   0.86708   0.01267  Uiso   1.00
O944   O     0.37905   0.92273   0.37711   0.01267  Uiso   1.00
O945   O     0.54102   0.22014   0.76460   0.01267  Uiso   1.00
O946   O     0.69283   0.73607   0.33423   0.01267  Uiso   1.00
O947   O     0.18478   0.27144   0.17664   0.01267  Uiso   1.00
O948   O     0.63292   0.26146   0.74038   0.01267  Uiso   1.00
O949   O     0.94797   0.22203   0.65769   0.01267  Uiso   1.00
O950   O     0.36766   0.43380   0.38016   0.01267  Uiso   1.00
O951   O     0.72203   0.17231   0.65769   0.01267  Uiso   1.00
O952   O     0.68070   0.81070   0.94982   0.01267  Uiso   1.00
O953   O     0.75711   0.39561   0.64049   0.01267  Uiso   1.00
O954   O     0.32769   0.77797   0.34231   0.01267  Uiso   1.00
O955   O     0.82111   0.92273   0.87905   0.01267  Uiso   1.00
O956   O     0.84231   0.55203   0.77797   0.01267  Uiso   1.00
O957   O     0.68070   0.94982   0.81070   0.01267  Uiso   1.00
O958   O     0.85951   0.74289   0.79321   0.01267  Uiso   1.00
O959   O     0.76393   0.76313   0.80717   0.01267  Uiso   1.00
O960   O     0.73540   0.52576   0.77986   0.01267  Uiso   1.00
O961   O     0.70679   0.25711   0.64049   0.01267  Uiso   1.00
O962   O     0.12289   0.67889   0.12095   0.01267  Uiso   1.00
O963   O     0.35868   0.53106   0.95696   0.01267  Uiso   1.00
O964   O     0.19696   0.20574   0.39156   0.01267  Uiso   1.00
O965   O     0.36708   0.73854   0.25962   0.01267  Uiso   1.00
O966   O     0.72277   0.44161   0.98777   0.01267  Uiso   1.00
O967   O     0.09292   0.08254   0.17734   0.01267  Uiso   1.00
O968   O     0.65614   0.19958   0.75582   0.01267  Uiso   1.00
O969   O     0.94797   0.65769   0.17231   0.01267  Uiso   1.00
O970   O     0.31838   0.86766   0.38016   0.01267  Uiso   1.00
O971   O     0.23607   0.23687   0.33423   0.01267  Uiso   1.00
O972   O     0.36766   0.38016   0.81838   0.01267  Uiso   1.00
O973   O     0.14049   0.39561   0.25711   0.01267  Uiso   1.00
O974   O     0.17121   0.67121   0.67121   0.01267  Uiso   1.00
O975   O     0.76393   0.80717   0.76313   0.01267  Uiso   1.00
O976   O     0.29321   0.74289   0.35951   0.01267  Uiso   1.00
O977   O     0.79762   0.76494   0.85814   0.01267  Uiso   1.00
O978   O     0.48777   0.84785   0.44161   0.01267  Uiso   1.00
O979   O     0.68162   0.61984   0.13234   0.01267  Uiso   1.00
O980   O     0.21454   0.71454   0.58486   0.01267  Uiso   1.00
O981   O     0.47124   0.19912   0.57994   0.01267  Uiso   1.00
O982   O     0.84201   0.29123   0.48073   0.01267  Uiso   1.00
O983   O     0.98606   0.71454   0.58486   0.01267  Uiso   1.00
O984   O     0.52152   0.82374   0.53340   0.01267  Uiso   1.00
O985   O     0.52152   0.53340   0.12134   0.01267  Uiso   1.00
O986   O     0.88016   0.81838   0.43380   0.01267  Uiso   1.00
O987   O     0.75030   0.02876   0.80088   0.01267  Uiso   1.00
O988   O     0.80304   0.79426   0.79426   0.01267  Uiso   1.00
O989   O     0.16577   0.80717   0.76313   0.01267  Uiso   1.00
O990   O     0.61380   0.00000   0.88620   0.01267  Uiso   1.00
O991   O     0.00000   0.00000   0.11380   0.01267  Uiso   1.00
O992   O     0.31838   0.43380   0.38016   0.01267  Uiso   1.00
O993   O     0.82111   0.92273   0.37711   0.01267  Uiso   1.00
O994   O     0.88846   0.19958   0.75582   0.01267  Uiso   1.00
O995   O     0.70770   0.74614   0.52722   0.01267  Uiso   1.00
O996   O     0.03106   0.85868   0.95696   0.01267  Uiso   1.00
O997   O     0.24289   0.60439   0.79321   0.01267  Uiso   1.00
O998   O     0.45898   0.23540   0.77986   0.01267  Uiso   1.00
O999   O     0.37866   0.46660   0.97848   0.01267  Uiso   1.00
O1000  O     0.24038   0.13292   0.36524   0.01267  Uiso   1.00
O1001  O     0.88603   0.34201   0.29123   0.01267  Uiso   1.00
O1002  O     0.64186   0.70238   0.42070   0.01267  Uiso   1.00
O1003  O     0.93160   0.81840   0.43160   0.01267  Uiso   1.00
O1004  O     0.30042   0.84386   0.61154   0.01267  Uiso   1.00
O1005  O     0.84231   0.55203   0.82769   0.01267  Uiso   1.00
O1006  O     0.88846   0.15614   0.19958   0.01267  Uiso   1.00
O1007  O     0.51223   0.15215   0.55839   0.01267  Uiso   1.00
O1008  O     0.32336   0.63286   0.31522   0.01267  Uiso   1.00
O1009  O     0.13565   0.73109   0.67947   0.01267  Uiso   1.00
O1010  O     0.75030   0.02876   0.42006   0.01267  Uiso   1.00
O1011  O     0.11397   0.65799   0.51927   0.01267  Uiso   1.00
O1012  O     0.98073   0.29123   0.34201   0.01267  Uiso   1.00
O1013  O     0.89561   0.20679   0.64049   0.01267  Uiso   1.00
O1014  O     0.67231   0.65769   0.22203   0.01267  Uiso   1.00
O1015  O     0.97278   0.98106   0.79230   0.01267  Uiso   1.00
O1016  O     0.29426   0.60844   0.79426   0.01267  Uiso   1.00
O1017  O     0.15769   0.17231   0.22203   0.01267  Uiso   1.00
O1018  O     0.82111   0.37711   0.92273   0.01267  Uiso   1.00
O1019  O     0.34785   0.44161   0.22277   0.01267  Uiso   1.00
O1020  O     0.31838   0.38016   0.43380   0.01267  Uiso   1.00
O1021  O     0.35868   0.95696   0.15330   0.01267  Uiso   1.00
O1022  O     0.68700   0.50000   0.81300   0.01267  Uiso   1.00
O1023  O     0.89561   0.64049   0.25711   0.01267  Uiso   1.00
O1024  O     0.34386   0.80042   0.24418   0.01267  Uiso   1.00
O1025  O     0.31300   0.50000   0.18700   0.01267  Uiso   1.00
O1026  O     0.17947   0.45379   0.63565   0.01267  Uiso   1.00
O1027  O     0.58254   0.17734   0.59292   0.01267  Uiso   1.00
O1028  O     0.76891   0.54621   0.32053   0.01267  Uiso   1.00
O1029  O     0.75711   0.64049   0.20679   0.01267  Uiso   1.00
O1030  O     0.36766   0.38016   0.43380   0.01267  Uiso   1.00
O1031  O     0.32769   0.77797   0.55203   0.01267  Uiso   1.00
O1032  O     0.27675   0.77675   0.39303   0.01267  Uiso   1.00
O1033  O     0.03340   0.12134   0.02152   0.01267  Uiso   1.00
O1034  O     0.53784   0.64820   0.64820   0.01267  Uiso   1.00
O1035  O     0.54102   0.47424   0.76460   0.01267  Uiso   1.00
O1036  O     0.32769   0.34231   0.77797   0.01267  Uiso   1.00
O1037  O     0.64186   0.70238   0.23506   0.01267  Uiso   1.00
O1038  O     0.68070   0.94982   0.55878   0.01267  Uiso   1.00
O1039  O     0.24970   0.97124   0.57994   0.01267  Uiso   1.00
O1040  O     0.97424   0.22014   0.04102   0.01267  Uiso   1.00
O1041  O     0.01363   0.32879   0.32879   0.01267  Uiso   1.00
O1042  O     0.97424   0.76460   0.22014   0.01267  Uiso   1.00
O1043  O     0.12289   0.07727   0.12095   0.01267  Uiso   1.00
O1044  O     0.11984   0.56620   0.18162   0.01267  Uiso   1.00
O1045  O     0.92006   0.25030   0.80088   0.01267  Uiso   1.00
O1046  O     0.31300   0.18700  -0.00000   0.01267  Uiso   1.00
O1047  O     0.31070   0.55878   0.18070   0.01267  Uiso   1.00
O1048  O     0.11397   0.70877   0.65799   0.01267  Uiso   1.00
O1049  O     0.88603   0.48073   0.34201   0.01267  Uiso   1.00
O1050  O     0.05347   0.77675   0.39303   0.01267  Uiso   1.00
O1051  O     0.94122   0.18930   0.81930   0.01267  Uiso   1.00
O1052  O     0.11397   0.51927   0.65799   0.01267  Uiso   1.00
O1053  O     0.20877   0.65799   0.61397   0.01267  Uiso   1.00
O1054  O     0.77144   0.68478   0.17664   0.01267  Uiso   1.00
O1055  O     0.81522   0.82336   0.63286   0.01267  Uiso   1.00
O1056  O     0.32374   0.12134   0.53340   0.01267  Uiso   1.00
O1057  O     0.13476   0.25962   0.86708   0.01267  Uiso   1.00
O1058  O     0.31838   0.86766   0.43380   0.01267  Uiso   1.00
O1059  O     0.06840   0.56840   0.18160   0.01267  Uiso   1.00
O1060  O     0.89156   0.69696   0.20574   0.01267  Uiso   1.00
O1061  O     0.24289   0.79321   0.60439   0.01267  Uiso   1.00
O1062  O     0.75711   0.64049   0.39561   0.01267  Uiso   1.00
O1063  O     0.48777   0.22277   0.84785   0.01267  Uiso   1.00
O1064  O     0.91514   0.28546   0.51394   0.01267  Uiso   1.00
O1065  O     0.94653   0.22325   0.60697   0.01267  Uiso   1.00
O1066  O     0.26460   0.22014   0.47424   0.01267  Uiso   1.00
O1067  O     0.20877   0.65799   0.51927   0.01267  Uiso   1.00
O1068  O     0.89303   0.77675   0.55347   0.01267  Uiso   1.00
O1069  O     0.37866   0.97848   0.46660   0.01267  Uiso   1.00
O1070  O     0.26313   0.26393   0.80717   0.01267  Uiso   1.00
O1071  O     0.02722   0.74614   0.01894   0.01267  Uiso   1.00
O1072  O     0.47848   0.46660   0.17626   0.01267  Uiso   1.00
O1073  O     0.22856   0.31522   0.82336   0.01267  Uiso   1.00
O1074  O     0.63292   0.36524   0.26146   0.01267  Uiso   1.00
O1075  O     0.23109   0.63565   0.67947   0.01267  Uiso   1.00
O1076  O     0.10844   0.79426   0.79426   0.01267  Uiso   1.00
O1077  O     0.02576   0.23540   0.95898   0.01267  Uiso   1.00
O1078  O     0.25582   0.15614   0.38846   0.01267  Uiso   1.00
O1079  O     0.14720   0.17734   0.08254   0.01267  Uiso   1.00
O1080  O     0.05203   0.82769   0.34231   0.01267  Uiso   1.00
O1081  O     0.55018   0.18930   0.81930   0.01267  Uiso   1.00
O1082  O     0.23109   0.67947   0.45379   0.01267  Uiso   1.00
O1083  O     0.29321   0.60439   0.35951   0.01267  Uiso   1.00
O1084  O     0.29230   0.98106   0.47278   0.01267  Uiso   1.00
O1085  O     0.82053   0.36435   0.26891   0.01267  Uiso   1.00
O1086  O     0.22856   0.63286   0.82336   0.01267  Uiso   1.00
O1087  O     0.72325   0.44653   0.22325   0.01267  Uiso   1.00
O1088  O     0.32336   0.72856   0.31522   0.01267  Uiso   1.00
