data_image0
_cell_length_a       22.9079
_cell_length_b       22.9079
_cell_length_c       22.9079
_cell_angle_alpha    90
_cell_angle_beta     90
_cell_angle_gamma    90

_symmetry_space_group_name_H-M    P 1
_symmetry_int_tables_number       1

loop_
  _symmetry_equiv_pos_as_xyz
  'x, y, z'

loop_
  _atom_site_label
  _atom_site_occupancy
  _atom_site_fract_x
  _atom_site_fract_y
  _atom_site_fract_z
  _atom_site_thermal_displace_type
  _atom_site_B_iso_or_equiv
  _atom_site_type_symbol
  Zn1      1.0000 0.77374  0.28820  0.67500  Biso   1.000  Zn
  Zn2      1.0000 0.72626  0.71180  0.17500  Biso   1.000  Zn
  Zn3      1.0000 0.22626  0.78820  0.82500  Biso   1.000  Zn
  Zn4      1.0000 0.27374  0.21180  0.32500  Biso   1.000  Zn
  Zn5      1.0000 0.67500  0.77374  0.28820  Biso   1.000  Zn
  Zn6      1.0000 0.17500  0.72626  0.71180  Biso   1.000  Zn
  Zn7      1.0000 0.82500  0.22626  0.78820  Biso   1.000  Zn
  Zn8      1.0000 0.32500  0.27374  0.21180  Biso   1.000  Zn
  Zn9      1.0000 0.28820  0.67500  0.77374  Biso   1.000  Zn
  Zn10     1.0000 0.71180  0.17500  0.72626  Biso   1.000  Zn
  Zn11     1.0000 0.78820  0.82500  0.22626  Biso   1.000  Zn
  Zn12     1.0000 0.21180  0.32500  0.27374  Biso   1.000  Zn
  P1       1.0000 0.64049  0.64049  0.64049  Biso   1.000  P
  P2       1.0000 0.85951  0.35951  0.14049  Biso   1.000  P
  P3       1.0000 0.35951  0.14049  0.85951  Biso   1.000  P
  P4       1.0000 0.14049  0.85951  0.35951  Biso   1.000  P
  P5       1.0000 0.64817  0.14817  0.35183  Biso   1.000  P
  P6       1.0000 0.85183  0.85183  0.85183  Biso   1.000  P
  P7       1.0000 0.35183  0.64817  0.14817  Biso   1.000  P
  P8       1.0000 0.14817  0.35183  0.64817  Biso   1.000  P
  H1       1.0000 0.57180  0.53540  0.66060  Biso   1.000  H
  H2       1.0000 0.59720  0.43600  0.67430  Biso   1.000  H
  H3       1.0000 0.76560  0.47530  0.65160  Biso   1.000  H
  H4       1.0000 0.74160  0.57420  0.64330  Biso   1.000  H
  H5       1.0000 0.65520  0.07900  0.45930  Biso   1.000  H
  H6       1.0000 0.66750  0.10470  0.55740  Biso   1.000  H
  H7       1.0000 0.70200  0.26770  0.50880  Biso   1.000  H
  H8       1.0000 0.67350  0.24730  0.41510  Biso   1.000  H
  H9       1.0000 0.92820  0.46460  0.16060  Biso   1.000  H
  H10      1.0000 0.90280  0.56400  0.17430  Biso   1.000  H
  H11      1.0000 0.73440  0.52470  0.15160  Biso   1.000  H
  H12      1.0000 0.75840  0.42580  0.14330  Biso   1.000  H
  H13      1.0000 0.84480  0.92100  0.95930  Biso   1.000  H
  H14      1.0000 0.83250  0.89530  0.05740  Biso   1.000  H
  H15      1.0000 0.79800  0.73230  0.00880  Biso   1.000  H
  H16      1.0000 0.82650  0.75270  0.91510  Biso   1.000  H
  H17      1.0000 0.42820  0.03540  0.83940  Biso   1.000  H
  H18      1.0000 0.40280  0.93600  0.82570  Biso   1.000  H
  H19      1.0000 0.23440  0.97530  0.84840  Biso   1.000  H
  H20      1.0000 0.25840  0.07420  0.85670  Biso   1.000  H
  H21      1.0000 0.34480  0.57900  0.04070  Biso   1.000  H
  H22      1.0000 0.33250  0.60470  0.94260  Biso   1.000  H
  H23      1.0000 0.29800  0.76770  0.99120  Biso   1.000  H
  H24      1.0000 0.32650  0.74730  0.08490  Biso   1.000  H
  H25      1.0000 0.07180  0.96460  0.33940  Biso   1.000  H
  H26      1.0000 0.09720  0.06400  0.32570  Biso   1.000  H
  H27      1.0000 0.26560  0.02470  0.34840  Biso   1.000  H
  H28      1.0000 0.24160  0.92580  0.35670  Biso   1.000  H
  H29      1.0000 0.15520  0.42100  0.54070  Biso   1.000  H
  H30      1.0000 0.16750  0.39530  0.44260  Biso   1.000  H
  H31      1.0000 0.20200  0.23230  0.49120  Biso   1.000  H
  H32      1.0000 0.17350  0.25270  0.58490  Biso   1.000  H
  H33      1.0000 0.66060  0.57180  0.53540  Biso   1.000  H
  H34      1.0000 0.67430  0.59720  0.43600  Biso   1.000  H
  H35      1.0000 0.65160  0.76560  0.47530  Biso   1.000  H
  H36      1.0000 0.64330  0.74160  0.57420  Biso   1.000  H
  H37      1.0000 0.45930  0.65520  0.07900  Biso   1.000  H
  H38      1.0000 0.55740  0.66750  0.10470  Biso   1.000  H
  H39      1.0000 0.50880  0.70200  0.26770  Biso   1.000  H
  H40      1.0000 0.41510  0.67350  0.24730  Biso   1.000  H
  H41      1.0000 0.16060  0.92820  0.46460  Biso   1.000  H
  H42      1.0000 0.17430  0.90280  0.56400  Biso   1.000  H
  H43      1.0000 0.15160  0.73440  0.52470  Biso   1.000  H
  H44      1.0000 0.14330  0.75840  0.42580  Biso   1.000  H
  H45      1.0000 0.95930  0.84480  0.92100  Biso   1.000  H
  H46      1.0000 0.05740  0.83250  0.89530  Biso   1.000  H
  H47      1.0000 0.00880  0.79800  0.73230  Biso   1.000  H
  H48      1.0000 0.91510  0.82650  0.75270  Biso   1.000  H
  H49      1.0000 0.83940  0.42820  0.03540  Biso   1.000  H
  H50      1.0000 0.82570  0.40280  0.93600  Biso   1.000  H
  H51      1.0000 0.84840  0.23440  0.97530  Biso   1.000  H
  H52      1.0000 0.85670  0.25840  0.07420  Biso   1.000  H
  H53      1.0000 0.04070  0.34480  0.57900  Biso   1.000  H
  H54      1.0000 0.94260  0.33250  0.60470  Biso   1.000  H
  H55      1.0000 0.99120  0.29800  0.76770  Biso   1.000  H
  H56      1.0000 0.08490  0.32650  0.74730  Biso   1.000  H
  H57      1.0000 0.33940  0.07180  0.96460  Biso   1.000  H
  H58      1.0000 0.32570  0.09720  0.06400  Biso   1.000  H
  H59      1.0000 0.34840  0.26560  0.02470  Biso   1.000  H
  H60      1.0000 0.35670  0.24160  0.92580  Biso   1.000  H
  H61      1.0000 0.54070  0.15520  0.42100  Biso   1.000  H
  H62      1.0000 0.44260  0.16750  0.39530  Biso   1.000  H
  H63      1.0000 0.49120  0.20200  0.23230  Biso   1.000  H
  H64      1.0000 0.58490  0.17350  0.25270  Biso   1.000  H
  H65      1.0000 0.53540  0.66060  0.57180  Biso   1.000  H
  H66      1.0000 0.43600  0.67430  0.59720  Biso   1.000  H
  H67      1.0000 0.47530  0.65160  0.76560  Biso   1.000  H
  H68      1.0000 0.57420  0.64330  0.74160  Biso   1.000  H
  H69      1.0000 0.07900  0.45930  0.65520  Biso   1.000  H
  H70      1.0000 0.10470  0.55740  0.66750  Biso   1.000  H
  H71      1.0000 0.26770  0.50880  0.70200  Biso   1.000  H
  H72      1.0000 0.24730  0.41510  0.67350  Biso   1.000  H
  H73      1.0000 0.46460  0.16060  0.92820  Biso   1.000  H
  H74      1.0000 0.56400  0.17430  0.90280  Biso   1.000  H
  H75      1.0000 0.52470  0.15160  0.73440  Biso   1.000  H
  H76      1.0000 0.42580  0.14330  0.75840  Biso   1.000  H
  H77      1.0000 0.92100  0.95930  0.84480  Biso   1.000  H
  H78      1.0000 0.89530  0.05740  0.83250  Biso   1.000  H
  H79      1.0000 0.73230  0.00880  0.79800  Biso   1.000  H
  H80      1.0000 0.75270  0.91510  0.82650  Biso   1.000  H
  H81      1.0000 0.03540  0.83940  0.42820  Biso   1.000  H
  H82      1.0000 0.93600  0.82570  0.40280  Biso   1.000  H
  H83      1.0000 0.97530  0.84840  0.23440  Biso   1.000  H
  H84      1.0000 0.07420  0.85670  0.25840  Biso   1.000  H
  H85      1.0000 0.57900  0.04070  0.34480  Biso   1.000  H
  H86      1.0000 0.60470  0.94260  0.33250  Biso   1.000  H
  H87      1.0000 0.76770  0.99120  0.29800  Biso   1.000  H
  H88      1.0000 0.74730  0.08490  0.32650  Biso   1.000  H
  H89      1.0000 0.96460  0.33940  0.07180  Biso   1.000  H
  H90      1.0000 0.06400  0.32570  0.09720  Biso   1.000  H
  H91      1.0000 0.02470  0.34840  0.26560  Biso   1.000  H
  H92      1.0000 0.92580  0.35670  0.24160  Biso   1.000  H
  H93      1.0000 0.42100  0.54070  0.15520  Biso   1.000  H
  H94      1.0000 0.39530  0.44260  0.16750  Biso   1.000  H
  H95      1.0000 0.23230  0.49120  0.20200  Biso   1.000  H
  H96      1.0000 0.25270  0.58490  0.17350  Biso   1.000  H
  H97      1.0000 0.72620  0.27380  0.77380  Biso   1.000  H
  H98      1.0000 0.77380  0.72620  0.27380  Biso   1.000  H
  H99      1.0000 0.27380  0.77380  0.72620  Biso   1.000  H
  H100     1.0000 0.22620  0.22620  0.22620  Biso   1.000  H
  C1       1.0000 0.65480  0.56380  0.65140  Biso   1.000  C
  C2       1.0000 0.61160  0.52360  0.65990  Biso   1.000  C
  C3       1.0000 0.62700  0.46400  0.66780  Biso   1.000  C
  C4       1.0000 0.68300  0.44640  0.66620  Biso   1.000  C
  C5       1.0000 0.72600  0.48730  0.65510  Biso   1.000  C
  C6       1.0000 0.71160  0.54620  0.64910  Biso   1.000  C
  C7       1.0000 0.69770  0.38280  0.67590  Biso   1.000  C
  C8       1.0000 0.66250  0.16210  0.42800  Biso   1.000  C
  C9       1.0000 0.66220  0.11840  0.47000  Biso   1.000  C
  C10      1.0000 0.67230  0.13340  0.52780  Biso   1.000  C
  C11      1.0000 0.68910  0.18810  0.54270  Biso   1.000  C
  C12      1.0000 0.69020  0.22910  0.49930  Biso   1.000  C
  C13      1.0000 0.67510  0.21700  0.44330  Biso   1.000  C
  C14      1.0000 0.70770  0.20390  0.60350  Biso   1.000  C
  C15      1.0000 0.84520  0.43620  0.15140  Biso   1.000  C
  C16      1.0000 0.88840  0.47640  0.15990  Biso   1.000  C
  C17      1.0000 0.87300  0.53600  0.16780  Biso   1.000  C
  C18      1.0000 0.81700  0.55360  0.16620  Biso   1.000  C
  C19      1.0000 0.77400  0.51270  0.15510  Biso   1.000  C
  C20      1.0000 0.78840  0.45380  0.14910  Biso   1.000  C
  C21      1.0000 0.80230  0.61720  0.17590  Biso   1.000  C
  C22      1.0000 0.83750  0.83790  0.92800  Biso   1.000  C
  C23      1.0000 0.83780  0.88160  0.97000  Biso   1.000  C
  C24      1.0000 0.82770  0.86660  0.02780  Biso   1.000  C
  C25      1.0000 0.81090  0.81190  0.04270  Biso   1.000  C
  C26      1.0000 0.80980  0.77090  0.99930  Biso   1.000  C
  C27      1.0000 0.82490  0.78300  0.94330  Biso   1.000  C
  C28      1.0000 0.79230  0.79610  0.10350  Biso   1.000  C
  C29      1.0000 0.34520  0.06380  0.84860  Biso   1.000  C
  C30      1.0000 0.38840  0.02360  0.84010  Biso   1.000  C
  C31      1.0000 0.37300  0.96400  0.83220  Biso   1.000  C
  C32      1.0000 0.31700  0.94640  0.83380  Biso   1.000  C
  C33      1.0000 0.27400  0.98730  0.84490  Biso   1.000  C
  C34      1.0000 0.28840  0.04620  0.85090  Biso   1.000  C
  C35      1.0000 0.30230  0.88280  0.82410  Biso   1.000  C
  C36      1.0000 0.33750  0.66210  0.07200  Biso   1.000  C
  C37      1.0000 0.33780  0.61840  0.03000  Biso   1.000  C
  C38      1.0000 0.32770  0.63340  0.97220  Biso   1.000  C
  C39      1.0000 0.31090  0.68810  0.95730  Biso   1.000  C
  C40      1.0000 0.30980  0.72910  0.00070  Biso   1.000  C
  C41      1.0000 0.32490  0.71700  0.05670  Biso   1.000  C
  C42      1.0000 0.29230  0.70390  0.89650  Biso   1.000  C
  C43      1.0000 0.15480  0.93620  0.34860  Biso   1.000  C
  C44      1.0000 0.11160  0.97640  0.34010  Biso   1.000  C
  C45      1.0000 0.12700  0.03600  0.33220  Biso   1.000  C
  C46      1.0000 0.18300  0.05360  0.33380  Biso   1.000  C
  C47      1.0000 0.22600  0.01270  0.34490  Biso   1.000  C
  C48      1.0000 0.21160  0.95380  0.35090  Biso   1.000  C
  C49      1.0000 0.19770  0.11720  0.32410  Biso   1.000  C
  C50      1.0000 0.16250  0.33790  0.57200  Biso   1.000  C
  C51      1.0000 0.16220  0.38160  0.53000  Biso   1.000  C
  C52      1.0000 0.17230  0.36660  0.47220  Biso   1.000  C
  C53      1.0000 0.18910  0.31190  0.45730  Biso   1.000  C
  C54      1.0000 0.19020  0.27090  0.50070  Biso   1.000  C
  C55      1.0000 0.17510  0.28300  0.55670  Biso   1.000  C
  C56      1.0000 0.20770  0.29610  0.39650  Biso   1.000  C
  C57      1.0000 0.65140  0.65480  0.56380  Biso   1.000  C
  C58      1.0000 0.65990  0.61160  0.52360  Biso   1.000  C
  C59      1.0000 0.66780  0.62700  0.46400  Biso   1.000  C
  C60      1.0000 0.66620  0.68300  0.44640  Biso   1.000  C
  C61      1.0000 0.65510  0.72600  0.48730  Biso   1.000  C
  C62      1.0000 0.64910  0.71160  0.54620  Biso   1.000  C
  C63      1.0000 0.67590  0.69770  0.38280  Biso   1.000  C
  C64      1.0000 0.42800  0.66250  0.16210  Biso   1.000  C
  C65      1.0000 0.47000  0.66220  0.11840  Biso   1.000  C
  C66      1.0000 0.52780  0.67230  0.13340  Biso   1.000  C
  C67      1.0000 0.54270  0.68910  0.18810  Biso   1.000  C
  C68      1.0000 0.49930  0.69020  0.22910  Biso   1.000  C
  C69      1.0000 0.44330  0.67510  0.21700  Biso   1.000  C
  C70      1.0000 0.60350  0.70770  0.20390  Biso   1.000  C
  C71      1.0000 0.15140  0.84520  0.43620  Biso   1.000  C
  C72      1.0000 0.15990  0.88840  0.47640  Biso   1.000  C
  C73      1.0000 0.16780  0.87300  0.53600  Biso   1.000  C
  C74      1.0000 0.16620  0.81700  0.55360  Biso   1.000  C
  C75      1.0000 0.15510  0.77400  0.51270  Biso   1.000  C
  C76      1.0000 0.14910  0.78840  0.45380  Biso   1.000  C
  C77      1.0000 0.17590  0.80230  0.61720  Biso   1.000  C
  C78      1.0000 0.92800  0.83750  0.83790  Biso   1.000  C
  C79      1.0000 0.97000  0.83780  0.88160  Biso   1.000  C
  C80      1.0000 0.02780  0.82770  0.86660  Biso   1.000  C
  C81      1.0000 0.04270  0.81090  0.81190  Biso   1.000  C
  C82      1.0000 0.99930  0.80980  0.77090  Biso   1.000  C
  C83      1.0000 0.94330  0.82490  0.78300  Biso   1.000  C
  C84      1.0000 0.10350  0.79230  0.79610  Biso   1.000  C
  C85      1.0000 0.84860  0.34520  0.06380  Biso   1.000  C
  C86      1.0000 0.84010  0.38840  0.02360  Biso   1.000  C
  C87      1.0000 0.83220  0.37300  0.96400  Biso   1.000  C
  C88      1.0000 0.83380  0.31700  0.94640  Biso   1.000  C
  C89      1.0000 0.84490  0.27400  0.98730  Biso   1.000  C
  C90      1.0000 0.85090  0.28840  0.04620  Biso   1.000  C
  C91      1.0000 0.82410  0.30230  0.88280  Biso   1.000  C
  C92      1.0000 0.07200  0.33750  0.66210  Biso   1.000  C
  C93      1.0000 0.03000  0.33780  0.61840  Biso   1.000  C
  C94      1.0000 0.97220  0.32770  0.63340  Biso   1.000  C
  C95      1.0000 0.95730  0.31090  0.68810  Biso   1.000  C
  C96      1.0000 0.00070  0.30980  0.72910  Biso   1.000  C
  C97      1.0000 0.05670  0.32490  0.71700  Biso   1.000  C
  C98      1.0000 0.89650  0.29230  0.70390  Biso   1.000  C
  C99      1.0000 0.34860  0.15480  0.93620  Biso   1.000  C
  C100     1.0000 0.34010  0.11160  0.97640  Biso   1.000  C
  C101     1.0000 0.33220  0.12700  0.03600  Biso   1.000  C
  C102     1.0000 0.33380  0.18300  0.05360  Biso   1.000  C
  C103     1.0000 0.34490  0.22600  0.01270  Biso   1.000  C
  C104     1.0000 0.35090  0.21160  0.95380  Biso   1.000  C
  C105     1.0000 0.32410  0.19770  0.11720  Biso   1.000  C
  C106     1.0000 0.57200  0.16250  0.33790  Biso   1.000  C
  C107     1.0000 0.53000  0.16220  0.38160  Biso   1.000  C
  C108     1.0000 0.47220  0.17230  0.36660  Biso   1.000  C
  C109     1.0000 0.45730  0.18910  0.31190  Biso   1.000  C
  C110     1.0000 0.50070  0.19020  0.27090  Biso   1.000  C
  C111     1.0000 0.55670  0.17510  0.28300  Biso   1.000  C
  C112     1.0000 0.39650  0.20770  0.29610  Biso   1.000  C
  C113     1.0000 0.56380  0.65140  0.65480  Biso   1.000  C
  C114     1.0000 0.52360  0.65990  0.61160  Biso   1.000  C
  C115     1.0000 0.46400  0.66780  0.62700  Biso   1.000  C
  C116     1.0000 0.44640  0.66620  0.68300  Biso   1.000  C
  C117     1.0000 0.48730  0.65510  0.72600  Biso   1.000  C
  C118     1.0000 0.54620  0.64910  0.71160  Biso   1.000  C
  C119     1.0000 0.38280  0.67590  0.69770  Biso   1.000  C
  C120     1.0000 0.16210  0.42800  0.66250  Biso   1.000  C
  C121     1.0000 0.11840  0.47000  0.66220  Biso   1.000  C
  C122     1.0000 0.13340  0.52780  0.67230  Biso   1.000  C
  C123     1.0000 0.18810  0.54270  0.68910  Biso   1.000  C
  C124     1.0000 0.22910  0.49930  0.69020  Biso   1.000  C
  C125     1.0000 0.21700  0.44330  0.67510  Biso   1.000  C
  C126     1.0000 0.20390  0.60350  0.70770  Biso   1.000  C
  C127     1.0000 0.43620  0.15140  0.84520  Biso   1.000  C
  C128     1.0000 0.47640  0.15990  0.88840  Biso   1.000  C
  C129     1.0000 0.53600  0.16780  0.87300  Biso   1.000  C
  C130     1.0000 0.55360  0.16620  0.81700  Biso   1.000  C
  C131     1.0000 0.51270  0.15510  0.77400  Biso   1.000  C
  C132     1.0000 0.45380  0.14910  0.78840  Biso   1.000  C
  C133     1.0000 0.61720  0.17590  0.80230  Biso   1.000  C
  C134     1.0000 0.83790  0.92800  0.83750  Biso   1.000  C
  C135     1.0000 0.88160  0.97000  0.83780  Biso   1.000  C
  C136     1.0000 0.86660  0.02780  0.82770  Biso   1.000  C
  C137     1.0000 0.81190  0.04270  0.81090  Biso   1.000  C
  C138     1.0000 0.77090  0.99930  0.80980  Biso   1.000  C
  C139     1.0000 0.78300  0.94330  0.82490  Biso   1.000  C
  C140     1.0000 0.79610  0.10350  0.79230  Biso   1.000  C
  C141     1.0000 0.06380  0.84860  0.34520  Biso   1.000  C
  C142     1.0000 0.02360  0.84010  0.38840  Biso   1.000  C
  C143     1.0000 0.96400  0.83220  0.37300  Biso   1.000  C
  C144     1.0000 0.94640  0.83380  0.31700  Biso   1.000  C
  C145     1.0000 0.98730  0.84490  0.27400  Biso   1.000  C
  C146     1.0000 0.04620  0.85090  0.28840  Biso   1.000  C
  C147     1.0000 0.88280  0.82410  0.30230  Biso   1.000  C
  C148     1.0000 0.66210  0.07200  0.33750  Biso   1.000  C
  C149     1.0000 0.61840  0.03000  0.33780  Biso   1.000  C
  C150     1.0000 0.63340  0.97220  0.32770  Biso   1.000  C
  C151     1.0000 0.68810  0.95730  0.31090  Biso   1.000  C
  C152     1.0000 0.72910  0.00070  0.30980  Biso   1.000  C
  C153     1.0000 0.71700  0.05670  0.32490  Biso   1.000  C
  C154     1.0000 0.70390  0.89650  0.29230  Biso   1.000  C
  C155     1.0000 0.93620  0.34860  0.15480  Biso   1.000  C
  C156     1.0000 0.97640  0.34010  0.11160  Biso   1.000  C
  C157     1.0000 0.03600  0.33220  0.12700  Biso   1.000  C
  C158     1.0000 0.05360  0.33380  0.18300  Biso   1.000  C
  C159     1.0000 0.01270  0.34490  0.22600  Biso   1.000  C
  C160     1.0000 0.95380  0.35090  0.21160  Biso   1.000  C
  C161     1.0000 0.11720  0.32410  0.19770  Biso   1.000  C
  C162     1.0000 0.33790  0.57200  0.16250  Biso   1.000  C
  C163     1.0000 0.38160  0.53000  0.16220  Biso   1.000  C
  C164     1.0000 0.36660  0.47220  0.17230  Biso   1.000  C
  C165     1.0000 0.31190  0.45730  0.18910  Biso   1.000  C
  C166     1.0000 0.27090  0.50070  0.19020  Biso   1.000  C
  C167     1.0000 0.28300  0.55670  0.17510  Biso   1.000  C
  C168     1.0000 0.29610  0.39650  0.20770  Biso   1.000  C
  O1       1.0000 0.75190  0.36960  0.67410  Biso   1.000  O
  O2       1.0000 0.66020  0.34660  0.67890  Biso   1.000  O
  O3       1.0000 0.73440  0.25290  0.60890  Biso   1.000  O
  O4       1.0000 0.69790  0.16590  0.64310  Biso   1.000  O
  O5       1.0000 0.74810  0.63040  0.17410  Biso   1.000  O
  O6       1.0000 0.83980  0.65340  0.17890  Biso   1.000  O
  O7       1.0000 0.76560  0.74710  0.10890  Biso   1.000  O
  O8       1.0000 0.80210  0.83410  0.14310  Biso   1.000  O
  O9       1.0000 0.24810  0.86960  0.82590  Biso   1.000  O
  O10      1.0000 0.33980  0.84660  0.82110  Biso   1.000  O
  O11      1.0000 0.26560  0.75290  0.89110  Biso   1.000  O
  O12      1.0000 0.30210  0.66590  0.85690  Biso   1.000  O
  O13      1.0000 0.25190  0.13040  0.32590  Biso   1.000  O
  O14      1.0000 0.16020  0.15340  0.32110  Biso   1.000  O
  O15      1.0000 0.23440  0.24710  0.39110  Biso   1.000  O
  O16      1.0000 0.19790  0.33410  0.35690  Biso   1.000  O
  O17      1.0000 0.67410  0.75190  0.36960  Biso   1.000  O
  O18      1.0000 0.67890  0.66020  0.34660  Biso   1.000  O
  O19      1.0000 0.60890  0.73440  0.25290  Biso   1.000  O
  O20      1.0000 0.64310  0.69790  0.16590  Biso   1.000  O
  O21      1.0000 0.17410  0.74810  0.63040  Biso   1.000  O
  O22      1.0000 0.17890  0.83980  0.65340  Biso   1.000  O
  O23      1.0000 0.10890  0.76560  0.74710  Biso   1.000  O
  O24      1.0000 0.14310  0.80210  0.83410  Biso   1.000  O
  O25      1.0000 0.82590  0.24810  0.86960  Biso   1.000  O
  O26      1.0000 0.82110  0.33980  0.84660  Biso   1.000  O
  O27      1.0000 0.89110  0.26560  0.75290  Biso   1.000  O
  O28      1.0000 0.85690  0.30210  0.66590  Biso   1.000  O
  O29      1.0000 0.32590  0.25190  0.13040  Biso   1.000  O
  O30      1.0000 0.32110  0.16020  0.15340  Biso   1.000  O
  O31      1.0000 0.39110  0.23440  0.24710  Biso   1.000  O
  O32      1.0000 0.35690  0.19790  0.33410  Biso   1.000  O
  O33      1.0000 0.36960  0.67410  0.75190  Biso   1.000  O
  O34      1.0000 0.34660  0.67890  0.66020  Biso   1.000  O
  O35      1.0000 0.25290  0.60890  0.73440  Biso   1.000  O
  O36      1.0000 0.16590  0.64310  0.69790  Biso   1.000  O
  O37      1.0000 0.63040  0.17410  0.74810  Biso   1.000  O
  O38      1.0000 0.65340  0.17890  0.83980  Biso   1.000  O
  O39      1.0000 0.74710  0.10890  0.76560  Biso   1.000  O
  O40      1.0000 0.83410  0.14310  0.80210  Biso   1.000  O
  O41      1.0000 0.86960  0.82590  0.24810  Biso   1.000  O
  O42      1.0000 0.84660  0.82110  0.33980  Biso   1.000  O
  O43      1.0000 0.75290  0.89110  0.26560  Biso   1.000  O
  O44      1.0000 0.66590  0.85690  0.30210  Biso   1.000  O
  O45      1.0000 0.13040  0.32590  0.25190  Biso   1.000  O
  O46      1.0000 0.15340  0.32110  0.16020  Biso   1.000  O
  O47      1.0000 0.24710  0.39110  0.23440  Biso   1.000  O
  O48      1.0000 0.33410  0.35690  0.19790  Biso   1.000  O
  O49      1.0000 0.67810  0.67810  0.67810  Biso   1.000  O
  O50      1.0000 0.82190  0.32190  0.17810  Biso   1.000  O
  O51      1.0000 0.32190  0.17810  0.82190  Biso   1.000  O
  O52      1.0000 0.17810  0.82190  0.32190  Biso   1.000  O
  O53      1.0000 0.68660  0.18660  0.31340  Biso   1.000  O
  O54      1.0000 0.81340  0.81340  0.81340  Biso   1.000  O
  O55      1.0000 0.31340  0.68660  0.18660  Biso   1.000  O
  O56      1.0000 0.18660  0.31340  0.68660  Biso   1.000  O
  O57      1.0000 0.75140  0.24860  0.74860  Biso   1.000  O
  O58      1.0000 0.74860  0.75140  0.24860  Biso   1.000  O
  O59      1.0000 0.24860  0.74860  0.75140  Biso   1.000  O
  O60      1.0000 0.25140  0.25140  0.25140  Biso   1.000  O
  Zn13     1.0000 0.22626  0.71180  0.32500  Biso   1.000  Zn
  Zn14     1.0000 0.27374  0.28820  0.82500  Biso   1.000  Zn
  Zn15     1.0000 0.77374  0.21180  0.17500  Biso   1.000  Zn
  Zn16     1.0000 0.72626  0.78820  0.67500  Biso   1.000  Zn
  Zn17     1.0000 0.32500  0.22626  0.71180  Biso   1.000  Zn
  Zn18     1.0000 0.82500  0.27374  0.28820  Biso   1.000  Zn
  Zn19     1.0000 0.17500  0.77374  0.21180  Biso   1.000  Zn
  Zn20     1.0000 0.67500  0.72626  0.78820  Biso   1.000  Zn
  Zn21     1.0000 0.71180  0.32500  0.22626  Biso   1.000  Zn
  Zn22     1.0000 0.28820  0.82500  0.27374  Biso   1.000  Zn
  Zn23     1.0000 0.21180  0.17500  0.77374  Biso   1.000  Zn
  Zn24     1.0000 0.78820  0.67500  0.72626  Biso   1.000  Zn
  P9       1.0000 0.35951  0.35951  0.35951  Biso   1.000  P
  P10      1.0000 0.14049  0.64049  0.85951  Biso   1.000  P
  P11      1.0000 0.64049  0.85951  0.14049  Biso   1.000  P
  P12      1.0000 0.85951  0.14049  0.64049  Biso   1.000  P
  P13      1.0000 0.35183  0.85183  0.64817  Biso   1.000  P
  P14      1.0000 0.14817  0.14817  0.14817  Biso   1.000  P
  P15      1.0000 0.64817  0.35183  0.85183  Biso   1.000  P
  P16      1.0000 0.85183  0.64817  0.35183  Biso   1.000  P
  H101     1.0000 0.42820  0.46460  0.33940  Biso   1.000  H
  H102     1.0000 0.40280  0.56400  0.32570  Biso   1.000  H
  H103     1.0000 0.23440  0.52470  0.34840  Biso   1.000  H
  H104     1.0000 0.25840  0.42580  0.35670  Biso   1.000  H
  H105     1.0000 0.34480  0.92100  0.54070  Biso   1.000  H
  H106     1.0000 0.33250  0.89530  0.44260  Biso   1.000  H
  H107     1.0000 0.29800  0.73230  0.49120  Biso   1.000  H
  H108     1.0000 0.32650  0.75270  0.58490  Biso   1.000  H
  H109     1.0000 0.07180  0.53540  0.83940  Biso   1.000  H
  H110     1.0000 0.09720  0.43600  0.82570  Biso   1.000  H
  H111     1.0000 0.26560  0.47530  0.84840  Biso   1.000  H
  H112     1.0000 0.24160  0.57420  0.85670  Biso   1.000  H
  H113     1.0000 0.15520  0.07900  0.04070  Biso   1.000  H
  H114     1.0000 0.16750  0.10470  0.94260  Biso   1.000  H
  H115     1.0000 0.20200  0.26770  0.99120  Biso   1.000  H
  H116     1.0000 0.17350  0.24730  0.08490  Biso   1.000  H
  H117     1.0000 0.57180  0.96460  0.16060  Biso   1.000  H
  H118     1.0000 0.59720  0.06400  0.17430  Biso   1.000  H
  H119     1.0000 0.76560  0.02470  0.15160  Biso   1.000  H
  H120     1.0000 0.74160  0.92580  0.14330  Biso   1.000  H
  H121     1.0000 0.65520  0.42100  0.95930  Biso   1.000  H
  H122     1.0000 0.66750  0.39530  0.05740  Biso   1.000  H
  H123     1.0000 0.70200  0.23230  0.00880  Biso   1.000  H
  H124     1.0000 0.67350  0.25270  0.91510  Biso   1.000  H
  H125     1.0000 0.92820  0.03540  0.66060  Biso   1.000  H
  H126     1.0000 0.90280  0.93600  0.67430  Biso   1.000  H
  H127     1.0000 0.73440  0.97530  0.65160  Biso   1.000  H
  H128     1.0000 0.75840  0.07420  0.64330  Biso   1.000  H
  H129     1.0000 0.84480  0.57900  0.45930  Biso   1.000  H
  H130     1.0000 0.83250  0.60470  0.55740  Biso   1.000  H
  H131     1.0000 0.79800  0.76770  0.50880  Biso   1.000  H
  H132     1.0000 0.82650  0.74730  0.41510  Biso   1.000  H
  H133     1.0000 0.33940  0.42820  0.46460  Biso   1.000  H
  H134     1.0000 0.32570  0.40280  0.56400  Biso   1.000  H
  H135     1.0000 0.34840  0.23440  0.52470  Biso   1.000  H
  H136     1.0000 0.35670  0.25840  0.42580  Biso   1.000  H
  H137     1.0000 0.54070  0.34480  0.92100  Biso   1.000  H
  H138     1.0000 0.44260  0.33250  0.89530  Biso   1.000  H
  H139     1.0000 0.49120  0.29800  0.73230  Biso   1.000  H
  H140     1.0000 0.58490  0.32650  0.75270  Biso   1.000  H
  H141     1.0000 0.83940  0.07180  0.53540  Biso   1.000  H
  H142     1.0000 0.82570  0.09720  0.43600  Biso   1.000  H
  H143     1.0000 0.84840  0.26560  0.47530  Biso   1.000  H
  H144     1.0000 0.85670  0.24160  0.57420  Biso   1.000  H
  H145     1.0000 0.04070  0.15520  0.07900  Biso   1.000  H
  H146     1.0000 0.94260  0.16750  0.10470  Biso   1.000  H
  H147     1.0000 0.99120  0.20200  0.26770  Biso   1.000  H
  H148     1.0000 0.08490  0.17350  0.24730  Biso   1.000  H
  H149     1.0000 0.16060  0.57180  0.96460  Biso   1.000  H
  H150     1.0000 0.17430  0.59720  0.06400  Biso   1.000  H
  H151     1.0000 0.15160  0.76560  0.02470  Biso   1.000  H
  H152     1.0000 0.14330  0.74160  0.92580  Biso   1.000  H
  H153     1.0000 0.95930  0.65520  0.42100  Biso   1.000  H
  H154     1.0000 0.05740  0.66750  0.39530  Biso   1.000  H
  H155     1.0000 0.00880  0.70200  0.23230  Biso   1.000  H
  H156     1.0000 0.91510  0.67350  0.25270  Biso   1.000  H
  H157     1.0000 0.66060  0.92820  0.03540  Biso   1.000  H
  H158     1.0000 0.67430  0.90280  0.93600  Biso   1.000  H
  H159     1.0000 0.65160  0.73440  0.97530  Biso   1.000  H
  H160     1.0000 0.64330  0.75840  0.07420  Biso   1.000  H
  H161     1.0000 0.45930  0.84480  0.57900  Biso   1.000  H
  H162     1.0000 0.55740  0.83250  0.60470  Biso   1.000  H
  H163     1.0000 0.50880  0.79800  0.76770  Biso   1.000  H
  H164     1.0000 0.41510  0.82650  0.74730  Biso   1.000  H
  H165     1.0000 0.46460  0.33940  0.42820  Biso   1.000  H
  H166     1.0000 0.56400  0.32570  0.40280  Biso   1.000  H
  H167     1.0000 0.52470  0.34840  0.23440  Biso   1.000  H
  H168     1.0000 0.42580  0.35670  0.25840  Biso   1.000  H
  H169     1.0000 0.92100  0.54070  0.34480  Biso   1.000  H
  H170     1.0000 0.89530  0.44260  0.33250  Biso   1.000  H
  H171     1.0000 0.73230  0.49120  0.29800  Biso   1.000  H
  H172     1.0000 0.75270  0.58490  0.32650  Biso   1.000  H
  H173     1.0000 0.53540  0.83940  0.07180  Biso   1.000  H
  H174     1.0000 0.43600  0.82570  0.09720  Biso   1.000  H
  H175     1.0000 0.47530  0.84840  0.26560  Biso   1.000  H
  H176     1.0000 0.57420  0.85670  0.24160  Biso   1.000  H
  H177     1.0000 0.07900  0.04070  0.15520  Biso   1.000  H
  H178     1.0000 0.10470  0.94260  0.16750  Biso   1.000  H
  H179     1.0000 0.26770  0.99120  0.20200  Biso   1.000  H
  H180     1.0000 0.24730  0.08490  0.17350  Biso   1.000  H
  H181     1.0000 0.96460  0.16060  0.57180  Biso   1.000  H
  H182     1.0000 0.06400  0.17430  0.59720  Biso   1.000  H
  H183     1.0000 0.02470  0.15160  0.76560  Biso   1.000  H
  H184     1.0000 0.92580  0.14330  0.74160  Biso   1.000  H
  H185     1.0000 0.42100  0.95930  0.65520  Biso   1.000  H
  H186     1.0000 0.39530  0.05740  0.66750  Biso   1.000  H
  H187     1.0000 0.23230  0.00880  0.70200  Biso   1.000  H
  H188     1.0000 0.25270  0.91510  0.67350  Biso   1.000  H
  H189     1.0000 0.03540  0.66060  0.92820  Biso   1.000  H
  H190     1.0000 0.93600  0.67430  0.90280  Biso   1.000  H
  H191     1.0000 0.97530  0.65160  0.73440  Biso   1.000  H
  H192     1.0000 0.07420  0.64330  0.75840  Biso   1.000  H
  H193     1.0000 0.57900  0.45930  0.84480  Biso   1.000  H
  H194     1.0000 0.60470  0.55740  0.83250  Biso   1.000  H
  H195     1.0000 0.76770  0.50880  0.79800  Biso   1.000  H
  H196     1.0000 0.74730  0.41510  0.82650  Biso   1.000  H
  H197     1.0000 0.27380  0.72620  0.22620  Biso   1.000  H
  H198     1.0000 0.22620  0.27380  0.72620  Biso   1.000  H
  H199     1.0000 0.72620  0.22620  0.27380  Biso   1.000  H
  H200     1.0000 0.77380  0.77380  0.77380  Biso   1.000  H
  C169     1.0000 0.34520  0.43620  0.34860  Biso   1.000  C
  C170     1.0000 0.38840  0.47640  0.34010  Biso   1.000  C
  C171     1.0000 0.37300  0.53600  0.33220  Biso   1.000  C
  C172     1.0000 0.31700  0.55360  0.33380  Biso   1.000  C
  C173     1.0000 0.27400  0.51270  0.34490  Biso   1.000  C
  C174     1.0000 0.28840  0.45380  0.35090  Biso   1.000  C
  C175     1.0000 0.30230  0.61720  0.32410  Biso   1.000  C
  C176     1.0000 0.33750  0.83790  0.57200  Biso   1.000  C
  C177     1.0000 0.33780  0.88160  0.53000  Biso   1.000  C
  C178     1.0000 0.32770  0.86660  0.47220  Biso   1.000  C
  C179     1.0000 0.31090  0.81190  0.45730  Biso   1.000  C
  C180     1.0000 0.30980  0.77090  0.50070  Biso   1.000  C
  C181     1.0000 0.32490  0.78300  0.55670  Biso   1.000  C
  C182     1.0000 0.29230  0.79610  0.39650  Biso   1.000  C
  C183     1.0000 0.15480  0.56380  0.84860  Biso   1.000  C
  C184     1.0000 0.11160  0.52360  0.84010  Biso   1.000  C
  C185     1.0000 0.12700  0.46400  0.83220  Biso   1.000  C
  C186     1.0000 0.18300  0.44640  0.83380  Biso   1.000  C
  C187     1.0000 0.22600  0.48730  0.84490  Biso   1.000  C
  C188     1.0000 0.21160  0.54620  0.85090  Biso   1.000  C
  C189     1.0000 0.19770  0.38280  0.82410  Biso   1.000  C
  C190     1.0000 0.16250  0.16210  0.07200  Biso   1.000  C
  C191     1.0000 0.16220  0.11840  0.03000  Biso   1.000  C
  C192     1.0000 0.17230  0.13340  0.97220  Biso   1.000  C
  C193     1.0000 0.18910  0.18810  0.95730  Biso   1.000  C
  C194     1.0000 0.19020  0.22910  0.00070  Biso   1.000  C
  C195     1.0000 0.17510  0.21700  0.05670  Biso   1.000  C
  C196     1.0000 0.20770  0.20390  0.89650  Biso   1.000  C
  C197     1.0000 0.65480  0.93620  0.15140  Biso   1.000  C
  C198     1.0000 0.61160  0.97640  0.15990  Biso   1.000  C
  C199     1.0000 0.62700  0.03600  0.16780  Biso   1.000  C
  C200     1.0000 0.68300  0.05360  0.16620  Biso   1.000  C
  C201     1.0000 0.72600  0.01270  0.15510  Biso   1.000  C
  C202     1.0000 0.71160  0.95380  0.14910  Biso   1.000  C
  C203     1.0000 0.69770  0.11720  0.17590  Biso   1.000  C
  C204     1.0000 0.66250  0.33790  0.92800  Biso   1.000  C
  C205     1.0000 0.66220  0.38160  0.97000  Biso   1.000  C
  C206     1.0000 0.67230  0.36660  0.02780  Biso   1.000  C
  C207     1.0000 0.68910  0.31190  0.04270  Biso   1.000  C
  C208     1.0000 0.69020  0.27090  0.99930  Biso   1.000  C
  C209     1.0000 0.67510  0.28300  0.94330  Biso   1.000  C
  C210     1.0000 0.70770  0.29610  0.10350  Biso   1.000  C
  C211     1.0000 0.84520  0.06380  0.65140  Biso   1.000  C
  C212     1.0000 0.88840  0.02360  0.65990  Biso   1.000  C
  C213     1.0000 0.87300  0.96400  0.66780  Biso   1.000  C
  C214     1.0000 0.81700  0.94640  0.66620  Biso   1.000  C
  C215     1.0000 0.77400  0.98730  0.65510  Biso   1.000  C
  C216     1.0000 0.78840  0.04620  0.64910  Biso   1.000  C
  C217     1.0000 0.80230  0.88280  0.67590  Biso   1.000  C
  C218     1.0000 0.83750  0.66210  0.42800  Biso   1.000  C
  C219     1.0000 0.83780  0.61840  0.47000  Biso   1.000  C
  C220     1.0000 0.82770  0.63340  0.52780  Biso   1.000  C
  C221     1.0000 0.81090  0.68810  0.54270  Biso   1.000  C
  C222     1.0000 0.80980  0.72910  0.49930  Biso   1.000  C
  C223     1.0000 0.82490  0.71700  0.44330  Biso   1.000  C
  C224     1.0000 0.79230  0.70390  0.60350  Biso   1.000  C
  C225     1.0000 0.34860  0.34520  0.43620  Biso   1.000  C
  C226     1.0000 0.34010  0.38840  0.47640  Biso   1.000  C
  C227     1.0000 0.33220  0.37300  0.53600  Biso   1.000  C
  C228     1.0000 0.33380  0.31700  0.55360  Biso   1.000  C
  C229     1.0000 0.34490  0.27400  0.51270  Biso   1.000  C
  C230     1.0000 0.35090  0.28840  0.45380  Biso   1.000  C
  C231     1.0000 0.32410  0.30230  0.61720  Biso   1.000  C
  C232     1.0000 0.57200  0.33750  0.83790  Biso   1.000  C
  C233     1.0000 0.53000  0.33780  0.88160  Biso   1.000  C
  C234     1.0000 0.47220  0.32770  0.86660  Biso   1.000  C
  C235     1.0000 0.45730  0.31090  0.81190  Biso   1.000  C
  C236     1.0000 0.50070  0.30980  0.77090  Biso   1.000  C
  C237     1.0000 0.55670  0.32490  0.78300  Biso   1.000  C
  C238     1.0000 0.39650  0.29230  0.79610  Biso   1.000  C
  C239     1.0000 0.84860  0.15480  0.56380  Biso   1.000  C
  C240     1.0000 0.84010  0.11160  0.52360  Biso   1.000  C
  C241     1.0000 0.83220  0.12700  0.46400  Biso   1.000  C
  C242     1.0000 0.83380  0.18300  0.44640  Biso   1.000  C
  C243     1.0000 0.84490  0.22600  0.48730  Biso   1.000  C
  C244     1.0000 0.85090  0.21160  0.54620  Biso   1.000  C
  C245     1.0000 0.82410  0.19770  0.38280  Biso   1.000  C
  C246     1.0000 0.07200  0.16250  0.16210  Biso   1.000  C
  C247     1.0000 0.03000  0.16220  0.11840  Biso   1.000  C
  C248     1.0000 0.97220  0.17230  0.13340  Biso   1.000  C
  C249     1.0000 0.95730  0.18910  0.18810  Biso   1.000  C
  C250     1.0000 0.00070  0.19020  0.22910  Biso   1.000  C
  C251     1.0000 0.05670  0.17510  0.21700  Biso   1.000  C
  C252     1.0000 0.89650  0.20770  0.20390  Biso   1.000  C
  C253     1.0000 0.15140  0.65480  0.93620  Biso   1.000  C
  C254     1.0000 0.15990  0.61160  0.97640  Biso   1.000  C
  C255     1.0000 0.16780  0.62700  0.03600  Biso   1.000  C
  C256     1.0000 0.16620  0.68300  0.05360  Biso   1.000  C
  C257     1.0000 0.15510  0.72600  0.01270  Biso   1.000  C
  C258     1.0000 0.14910  0.71160  0.95380  Biso   1.000  C
  C259     1.0000 0.17590  0.69770  0.11720  Biso   1.000  C
  C260     1.0000 0.92800  0.66250  0.33790  Biso   1.000  C
  C261     1.0000 0.97000  0.66220  0.38160  Biso   1.000  C
  C262     1.0000 0.02780  0.67230  0.36660  Biso   1.000  C
  C263     1.0000 0.04270  0.68910  0.31190  Biso   1.000  C
  C264     1.0000 0.99930  0.69020  0.27090  Biso   1.000  C
  C265     1.0000 0.94330  0.67510  0.28300  Biso   1.000  C
  C266     1.0000 0.10350  0.70770  0.29610  Biso   1.000  C
  C267     1.0000 0.65140  0.84520  0.06380  Biso   1.000  C
  C268     1.0000 0.65990  0.88840  0.02360  Biso   1.000  C
  C269     1.0000 0.66780  0.87300  0.96400  Biso   1.000  C
  C270     1.0000 0.66620  0.81700  0.94640  Biso   1.000  C
  C271     1.0000 0.65510  0.77400  0.98730  Biso   1.000  C
  C272     1.0000 0.64910  0.78840  0.04620  Biso   1.000  C
  C273     1.0000 0.67590  0.80230  0.88280  Biso   1.000  C
  C274     1.0000 0.42800  0.83750  0.66210  Biso   1.000  C
  C275     1.0000 0.47000  0.83780  0.61840  Biso   1.000  C
  C276     1.0000 0.52780  0.82770  0.63340  Biso   1.000  C
  C277     1.0000 0.54270  0.81090  0.68810  Biso   1.000  C
  C278     1.0000 0.49930  0.80980  0.72910  Biso   1.000  C
  C279     1.0000 0.44330  0.82490  0.71700  Biso   1.000  C
  C280     1.0000 0.60350  0.79230  0.70390  Biso   1.000  C
  C281     1.0000 0.43620  0.34860  0.34520  Biso   1.000  C
  C282     1.0000 0.47640  0.34010  0.38840  Biso   1.000  C
  C283     1.0000 0.53600  0.33220  0.37300  Biso   1.000  C
  C284     1.0000 0.55360  0.33380  0.31700  Biso   1.000  C
  C285     1.0000 0.51270  0.34490  0.27400  Biso   1.000  C
  C286     1.0000 0.45380  0.35090  0.28840  Biso   1.000  C
  C287     1.0000 0.61720  0.32410  0.30230  Biso   1.000  C
  C288     1.0000 0.83790  0.57200  0.33750  Biso   1.000  C
  C289     1.0000 0.88160  0.53000  0.33780  Biso   1.000  C
  C290     1.0000 0.86660  0.47220  0.32770  Biso   1.000  C
  C291     1.0000 0.81190  0.45730  0.31090  Biso   1.000  C
  C292     1.0000 0.77090  0.50070  0.30980  Biso   1.000  C
  C293     1.0000 0.78300  0.55670  0.32490  Biso   1.000  C
  C294     1.0000 0.79610  0.39650  0.29230  Biso   1.000  C
  C295     1.0000 0.56380  0.84860  0.15480  Biso   1.000  C
  C296     1.0000 0.52360  0.84010  0.11160  Biso   1.000  C
  C297     1.0000 0.46400  0.83220  0.12700  Biso   1.000  C
  C298     1.0000 0.44640  0.83380  0.18300  Biso   1.000  C
  C299     1.0000 0.48730  0.84490  0.22600  Biso   1.000  C
  C300     1.0000 0.54620  0.85090  0.21160  Biso   1.000  C
  C301     1.0000 0.38280  0.82410  0.19770  Biso   1.000  C
  C302     1.0000 0.16210  0.07200  0.16250  Biso   1.000  C
  C303     1.0000 0.11840  0.03000  0.16220  Biso   1.000  C
  C304     1.0000 0.13340  0.97220  0.17230  Biso   1.000  C
  C305     1.0000 0.18810  0.95730  0.18910  Biso   1.000  C
  C306     1.0000 0.22910  0.00070  0.19020  Biso   1.000  C
  C307     1.0000 0.21700  0.05670  0.17510  Biso   1.000  C
  C308     1.0000 0.20390  0.89650  0.20770  Biso   1.000  C
  C309     1.0000 0.93620  0.15140  0.65480  Biso   1.000  C
  C310     1.0000 0.97640  0.15990  0.61160  Biso   1.000  C
  C311     1.0000 0.03600  0.16780  0.62700  Biso   1.000  C
  C312     1.0000 0.05360  0.16620  0.68300  Biso   1.000  C
  C313     1.0000 0.01270  0.15510  0.72600  Biso   1.000  C
  C314     1.0000 0.95380  0.14910  0.71160  Biso   1.000  C
  C315     1.0000 0.11720  0.17590  0.69770  Biso   1.000  C
  C316     1.0000 0.33790  0.92800  0.66250  Biso   1.000  C
  C317     1.0000 0.38160  0.97000  0.66220  Biso   1.000  C
  C318     1.0000 0.36660  0.02780  0.67230  Biso   1.000  C
  C319     1.0000 0.31190  0.04270  0.68910  Biso   1.000  C
  C320     1.0000 0.27090  0.99930  0.69020  Biso   1.000  C
  C321     1.0000 0.28300  0.94330  0.67510  Biso   1.000  C
  C322     1.0000 0.29610  0.10350  0.70770  Biso   1.000  C
  C323     1.0000 0.06380  0.65140  0.84520  Biso   1.000  C
  C324     1.0000 0.02360  0.65990  0.88840  Biso   1.000  C
  C325     1.0000 0.96400  0.66780  0.87300  Biso   1.000  C
  C326     1.0000 0.94640  0.66620  0.81700  Biso   1.000  C
  C327     1.0000 0.98730  0.65510  0.77400  Biso   1.000  C
  C328     1.0000 0.04620  0.64910  0.78840  Biso   1.000  C
  C329     1.0000 0.88280  0.67590  0.80230  Biso   1.000  C
  C330     1.0000 0.66210  0.42800  0.83750  Biso   1.000  C
  C331     1.0000 0.61840  0.47000  0.83780  Biso   1.000  C
  C332     1.0000 0.63340  0.52780  0.82770  Biso   1.000  C
  C333     1.0000 0.68810  0.54270  0.81090  Biso   1.000  C
  C334     1.0000 0.72910  0.49930  0.80980  Biso   1.000  C
  C335     1.0000 0.71700  0.44330  0.82490  Biso   1.000  C
  C336     1.0000 0.70390  0.60350  0.79230  Biso   1.000  C
  O61      1.0000 0.24810  0.63040  0.32590  Biso   1.000  O
  O62      1.0000 0.33980  0.65340  0.32110  Biso   1.000  O
  O63      1.0000 0.26560  0.74710  0.39110  Biso   1.000  O
  O64      1.0000 0.30210  0.83410  0.35690  Biso   1.000  O
  O65      1.0000 0.25190  0.36960  0.82590  Biso   1.000  O
  O66      1.0000 0.16020  0.34660  0.82110  Biso   1.000  O
  O67      1.0000 0.23440  0.25290  0.89110  Biso   1.000  O
  O68      1.0000 0.19790  0.16590  0.85690  Biso   1.000  O
  O69      1.0000 0.75190  0.13040  0.17410  Biso   1.000  O
  O70      1.0000 0.66020  0.15340  0.17890  Biso   1.000  O
  O71      1.0000 0.73440  0.24710  0.10890  Biso   1.000  O
  O72      1.0000 0.69790  0.33410  0.14310  Biso   1.000  O
  O73      1.0000 0.74810  0.86960  0.67410  Biso   1.000  O
  O74      1.0000 0.83980  0.84660  0.67890  Biso   1.000  O
  O75      1.0000 0.76560  0.75290  0.60890  Biso   1.000  O
  O76      1.0000 0.80210  0.66590  0.64310  Biso   1.000  O
  O77      1.0000 0.32590  0.24810  0.63040  Biso   1.000  O
  O78      1.0000 0.32110  0.33980  0.65340  Biso   1.000  O
  O79      1.0000 0.39110  0.26560  0.74710  Biso   1.000  O
  O80      1.0000 0.35690  0.30210  0.83410  Biso   1.000  O
  O81      1.0000 0.82590  0.25190  0.36960  Biso   1.000  O
  O82      1.0000 0.82110  0.16020  0.34660  Biso   1.000  O
  O83      1.0000 0.89110  0.23440  0.25290  Biso   1.000  O
  O84      1.0000 0.85690  0.19790  0.16590  Biso   1.000  O
  O85      1.0000 0.17410  0.75190  0.13040  Biso   1.000  O
  O86      1.0000 0.17890  0.66020  0.15340  Biso   1.000  O
  O87      1.0000 0.10890  0.73440  0.24710  Biso   1.000  O
  O88      1.0000 0.14310  0.69790  0.33410  Biso   1.000  O
  O89      1.0000 0.67410  0.74810  0.86960  Biso   1.000  O
  O90      1.0000 0.67890  0.83980  0.84660  Biso   1.000  O
  O91      1.0000 0.60890  0.76560  0.75290  Biso   1.000  O
  O92      1.0000 0.64310  0.80210  0.66590  Biso   1.000  O
  O93      1.0000 0.63040  0.32590  0.24810  Biso   1.000  O
  O94      1.0000 0.65340  0.32110  0.33980  Biso   1.000  O
  O95      1.0000 0.74710  0.39110  0.26560  Biso   1.000  O
  O96      1.0000 0.83410  0.35690  0.30210  Biso   1.000  O
  O97      1.0000 0.36960  0.82590  0.25190  Biso   1.000  O
  O98      1.0000 0.34660  0.82110  0.16020  Biso   1.000  O
  O99      1.0000 0.25290  0.89110  0.23440  Biso   1.000  O
  O100     1.0000 0.16590  0.85690  0.19790  Biso   1.000  O
  O101     1.0000 0.13040  0.17410  0.75190  Biso   1.000  O
  O102     1.0000 0.15340  0.17890  0.66020  Biso   1.000  O
  O103     1.0000 0.24710  0.10890  0.73440  Biso   1.000  O
  O104     1.0000 0.33410  0.14310  0.69790  Biso   1.000  O
  O105     1.0000 0.86960  0.67410  0.74810  Biso   1.000  O
  O106     1.0000 0.84660  0.67890  0.83980  Biso   1.000  O
  O107     1.0000 0.75290  0.60890  0.76560  Biso   1.000  O
  O108     1.0000 0.66590  0.64310  0.80210  Biso   1.000  O
  O109     1.0000 0.32190  0.32190  0.32190  Biso   1.000  O
  O110     1.0000 0.17810  0.67810  0.82190  Biso   1.000  O
  O111     1.0000 0.67810  0.82190  0.17810  Biso   1.000  O
  O112     1.0000 0.82190  0.17810  0.67810  Biso   1.000  O
  O113     1.0000 0.31340  0.81340  0.68660  Biso   1.000  O
  O114     1.0000 0.18660  0.18660  0.18660  Biso   1.000  O
  O115     1.0000 0.68660  0.31340  0.81340  Biso   1.000  O
  O116     1.0000 0.81340  0.68660  0.31340  Biso   1.000  O
  O117     1.0000 0.24860  0.75140  0.25140  Biso   1.000  O
  O118     1.0000 0.25140  0.24860  0.75140  Biso   1.000  O
  O119     1.0000 0.75140  0.25140  0.24860  Biso   1.000  O
  O120     1.0000 0.74860  0.74860  0.74860  Biso   1.000  O
