data_image0
_cell_length_a       16.9293
_cell_length_b       18.4694
_cell_length_c       28.346
_cell_angle_alpha    90
_cell_angle_beta     100.629
_cell_angle_gamma    90

_symmetry_space_group_name_H-M    "P 1"
_symmetry_int_tables_number       1

loop_
  _symmetry_equiv_pos_as_xyz
  'x, y, z'

loop_
  _atom_site_label
  _atom_site_occupancy
  _atom_site_fract_x
  _atom_site_fract_y
  _atom_site_fract_z
  _atom_site_thermal_displace_type
  _atom_site_B_iso_or_equiv
  _atom_site_type_symbol
  Mn1      1.0000 0.21746  0.38004  0.08829  Biso   1.000  Mn
  O1       1.0000 0.80000  0.79500  0.07215  Biso   1.000  O
  O2       1.0000 0.78600  0.78770  0.14753  Biso   1.000  O
  O3       1.0000 0.61430  0.81720  0.08110  Biso   1.000  O
  O4       1.0000 0.63850  0.74440  0.02241  Biso   1.000  O
  O5       1.0000 0.20120  0.43710  0.02437  Biso   1.000  O
  O6       1.0000 0.23440  0.35800  0.97135  Biso   1.000  O
  N1       1.0000 0.18800  0.49620  0.16940  Biso   1.000  N
  N2       1.0000 0.06210  0.70300  0.77820  Biso   1.000  N
  N3       1.0000 0.32620  0.48460  0.16270  Biso   1.000  N
  N4       1.0000 0.32690  0.44370  0.12250  Biso   1.000  N
  N5       1.0000 0.15620  0.46620  0.12550  Biso   1.000  N
  N6       1.0000 0.13960  0.71440  0.77350  Biso   1.000  N
  C1       1.0000 0.37890  0.47570  0.09880  Biso   1.000  C
  C2       1.0000 0.39770  0.44630  0.05350  Biso   1.000  C
  H1       1.0000 0.45240  0.42680  0.05940  Biso   1.000  H
  H2       1.0000 0.39360  0.48510  0.02950  Biso   1.000  H
  H3       1.0000 0.35950  0.40770  0.04150  Biso   1.000  H
  C3       1.0000 0.03980  0.48940  0.06170  Biso   1.000  C
  H4       1.0000 0.06100  0.51380  0.03590  Biso   1.000  H
  H5       1.0000 0.98470  0.50590  0.06160  Biso   1.000  H
  H6       1.0000 0.03980  0.43690  0.05650  Biso   1.000  H
  H7       1.0000 0.97570  0.77790  0.77170  Biso   1.000  H
  C4       1.0000 0.21180  0.41910  0.98320  Biso   1.000  C
  C5       1.0000 0.82160  0.76950  0.11440  Biso   1.000  C
  C6       1.0000 0.01740  0.61630  0.13710  Biso   1.000  C
  C7       1.0000 0.08230  0.56150  0.14240  Biso   1.000  C
  C8       1.0000 0.57160  0.62980  0.06790  Biso   1.000  C
  H8       1.0000 0.61390  0.61650  0.05180  Biso   1.000  H
  C9       1.0000 0.40950  0.54070  0.12310  Biso   1.000  C
  C10      1.0000 0.05620  0.65370  0.81320  Biso   1.000  C
  C11      1.0000 0.60610  0.75840  0.05760  Biso   1.000  C
  C12      1.0000 0.49040  0.72080  0.09630  Biso   1.000  C
  H9       1.0000 0.47870  0.77030  0.10080  Biso   1.000  H
  C13      1.0000 0.14550  0.55320  0.18010  Biso   1.000  C
  C14      1.0000 0.93580  0.70510  0.08730  Biso   1.000  C
  H10      1.0000 0.92410  0.73090  0.05780  Biso   1.000  H
  C15      1.0000 0.26650  0.46830  0.19180  Biso   1.000  C
  H11      1.0000 0.28280  0.49030  0.22390  Biso   1.000  H
  H12      1.0000 0.26310  0.41530  0.19590  Biso   1.000  H
  C16      1.0000 0.13370  0.63180  0.83210  Biso   1.000  C
  C17      1.0000 0.46090  0.59600  0.10680  Biso   1.000  C
  C18      1.0000 0.97310  0.62910  0.17290  Biso   1.000  C
  H13      1.0000 0.98560  0.60330  0.20230  Biso   1.000  H
  C19      1.0000 0.09180  0.50720  0.10930  Biso   1.000  C
  C20      1.0000 0.52620  0.57630  0.08550  Biso   1.000  C
  H14      1.0000 0.53960  0.52670  0.08300  Biso   1.000  H
  C21      1.0000 0.20350  0.45960  0.89830  Biso   1.000  C
  H15      1.0000 0.22080  0.41270  0.89100  Biso   1.000  H
  C22      1.0000 0.15760  0.57850  0.87130  Biso   1.000  C
  C23      1.0000 0.55450  0.70270  0.07410  Biso   1.000  C
  C24      1.0000 0.19710  0.47570  0.94420  Biso   1.000  C
  C25      1.0000 0.18330  0.67120  0.80630  Biso   1.000  C
  C26      1.0000 0.99770  0.65550  0.09440  Biso   1.000  C
  H16      1.0000 0.02780  0.64780  0.06970  Biso   1.000  H
  C27      1.0000 0.91060  0.67940  0.16620  Biso   1.000  C
  H17      1.0000 0.88140  0.68770  0.19130  Biso   1.000  H
  C28      1.0000 0.89010  0.71810  0.12250  Biso   1.000  C
  C29      1.0000 0.37460  0.54440  0.16350  Biso   1.000  C
  C30      1.0000 0.17320  0.54450  0.95460  Biso   1.000  C
  H18      1.0000 0.16970  0.55700  0.98660  Biso   1.000  H
  C31      1.0000 0.18540  0.51060  0.86170  Biso   1.000  C
  H19      1.0000 0.19210  0.49870  0.83000  Biso   1.000  H
  C32      1.0000 0.97760  0.62820  0.82320  Biso   1.000  C
  H20      1.0000 0.94230  0.66990  0.82460  Biso   1.000  H
  H21      1.0000 0.98610  0.60250  0.85390  Biso   1.000  H
  H22      1.0000 0.95260  0.59540  0.79750  Biso   1.000  H
  C33      1.0000 0.44390  0.66830  0.11160  Biso   1.000  C
  H23      1.0000 0.39940  0.68190  0.12570  Biso   1.000  H
  C34      1.0000 0.15420  0.59600  0.91800  Biso   1.000  C
  H24      1.0000 0.13870  0.64340  0.92550  Biso   1.000  H
  C35      1.0000 0.27380  0.66770  0.81180  Biso   1.000  C
  H25      1.0000 0.29140  0.69980  0.78830  Biso   1.000  H
  H26      1.0000 0.29010  0.61790  0.80660  Biso   1.000  H
  H27      1.0000 0.29840  0.68310  0.84430  Biso   1.000  H
  C36      1.0000 0.38670  0.59730  0.20420  Biso   1.000  C
  H28      1.0000 0.44040  0.61880  0.20760  Biso   1.000  H
  H29      1.0000 0.38160  0.57230  0.23390  Biso   1.000  H
  H30      1.0000 0.34600  0.63550  0.19760  Biso   1.000  H
  C37      1.0000 0.16770  0.59510  0.22580  Biso   1.000  C
  H31      1.0000 0.16340  0.56370  0.25310  Biso   1.000  H
  H32      1.0000 0.13110  0.63640  0.22530  Biso   1.000  H
  H33      1.0000 0.22300  0.61270  0.22900  Biso   1.000  H
  Mn2      1.0000 0.71746  0.88004  0.08829  Biso   1.000  Mn
  O7       1.0000 0.30000  0.29500  0.07215  Biso   1.000  O
  O8       1.0000 0.28600  0.28770  0.14753  Biso   1.000  O
  O9       1.0000 0.11430  0.31720  0.08110  Biso   1.000  O
  O10      1.0000 0.13850  0.24440  0.02241  Biso   1.000  O
  O11      1.0000 0.70120  0.93710  0.02437  Biso   1.000  O
  O12      1.0000 0.73440  0.85800  0.97135  Biso   1.000  O
  N7       1.0000 0.68800  0.99620  0.16940  Biso   1.000  N
  N8       1.0000 0.56210  0.20300  0.77820  Biso   1.000  N
  N9       1.0000 0.82620  0.98460  0.16270  Biso   1.000  N
  N10      1.0000 0.82690  0.94370  0.12250  Biso   1.000  N
  N11      1.0000 0.65620  0.96620  0.12550  Biso   1.000  N
  N12      1.0000 0.63960  0.21440  0.77350  Biso   1.000  N
  C38      1.0000 0.87890  0.97570  0.09880  Biso   1.000  C
  C39      1.0000 0.89770  0.94630  0.05350  Biso   1.000  C
  H34      1.0000 0.95240  0.92680  0.05940  Biso   1.000  H
  H35      1.0000 0.89360  0.98510  0.02950  Biso   1.000  H
  H36      1.0000 0.85950  0.90770  0.04150  Biso   1.000  H
  C40      1.0000 0.53980  0.98940  0.06170  Biso   1.000  C
  H37      1.0000 0.56100  0.01380  0.03590  Biso   1.000  H
  H38      1.0000 0.48470  0.00590  0.06160  Biso   1.000  H
  H39      1.0000 0.53980  0.93690  0.05650  Biso   1.000  H
  H40      1.0000 0.47570  0.27790  0.77170  Biso   1.000  H
  C41      1.0000 0.71180  0.91910  0.98320  Biso   1.000  C
  C42      1.0000 0.32160  0.26950  0.11440  Biso   1.000  C
  C43      1.0000 0.51740  0.11630  0.13710  Biso   1.000  C
  C44      1.0000 0.58230  0.06150  0.14240  Biso   1.000  C
  C45      1.0000 0.07160  0.12980  0.06790  Biso   1.000  C
  H41      1.0000 0.11390  0.11650  0.05180  Biso   1.000  H
  C46      1.0000 0.90950  0.04070  0.12310  Biso   1.000  C
  C47      1.0000 0.55620  0.15370  0.81320  Biso   1.000  C
  C48      1.0000 0.10610  0.25840  0.05760  Biso   1.000  C
  C49      1.0000 0.99040  0.22080  0.09630  Biso   1.000  C
  H42      1.0000 0.97870  0.27030  0.10080  Biso   1.000  H
  C50      1.0000 0.64550  0.05320  0.18010  Biso   1.000  C
  C51      1.0000 0.43580  0.20510  0.08730  Biso   1.000  C
  H43      1.0000 0.42410  0.23090  0.05780  Biso   1.000  H
  C52      1.0000 0.76650  0.96830  0.19180  Biso   1.000  C
  H44      1.0000 0.78280  0.99030  0.22390  Biso   1.000  H
  H45      1.0000 0.76310  0.91530  0.19590  Biso   1.000  H
  C53      1.0000 0.63370  0.13180  0.83210  Biso   1.000  C
  C54      1.0000 0.96090  0.09600  0.10680  Biso   1.000  C
  C55      1.0000 0.47310  0.12910  0.17290  Biso   1.000  C
  H46      1.0000 0.48560  0.10330  0.20230  Biso   1.000  H
  C56      1.0000 0.59180  0.00720  0.10930  Biso   1.000  C
  C57      1.0000 0.02620  0.07630  0.08550  Biso   1.000  C
  H47      1.0000 0.03960  0.02670  0.08300  Biso   1.000  H
  C58      1.0000 0.70350  0.95960  0.89830  Biso   1.000  C
  H48      1.0000 0.72080  0.91270  0.89100  Biso   1.000  H
  C59      1.0000 0.65760  0.07850  0.87130  Biso   1.000  C
  C60      1.0000 0.05450  0.20270  0.07410  Biso   1.000  C
  C61      1.0000 0.69710  0.97570  0.94420  Biso   1.000  C
  C62      1.0000 0.68330  0.17120  0.80630  Biso   1.000  C
  C63      1.0000 0.49770  0.15550  0.09440  Biso   1.000  C
  H49      1.0000 0.52780  0.14780  0.06970  Biso   1.000  H
  C64      1.0000 0.41060  0.17940  0.16620  Biso   1.000  C
  H50      1.0000 0.38140  0.18770  0.19130  Biso   1.000  H
  C65      1.0000 0.39010  0.21810  0.12250  Biso   1.000  C
  C66      1.0000 0.87460  0.04440  0.16350  Biso   1.000  C
  C67      1.0000 0.67320  0.04450  0.95460  Biso   1.000  C
  H51      1.0000 0.66970  0.05700  0.98660  Biso   1.000  H
  C68      1.0000 0.68540  0.01060  0.86170  Biso   1.000  C
  H52      1.0000 0.69210  0.99870  0.83000  Biso   1.000  H
  C69      1.0000 0.47760  0.12820  0.82320  Biso   1.000  C
  H53      1.0000 0.44230  0.16990  0.82460  Biso   1.000  H
  H54      1.0000 0.48610  0.10250  0.85390  Biso   1.000  H
  H55      1.0000 0.45260  0.09540  0.79750  Biso   1.000  H
  C70      1.0000 0.94390  0.16830  0.11160  Biso   1.000  C
  H56      1.0000 0.89940  0.18190  0.12570  Biso   1.000  H
  C71      1.0000 0.65420  0.09600  0.91800  Biso   1.000  C
  H57      1.0000 0.63870  0.14340  0.92550  Biso   1.000  H
  C72      1.0000 0.77380  0.16770  0.81180  Biso   1.000  C
  H58      1.0000 0.79140  0.19980  0.78830  Biso   1.000  H
  H59      1.0000 0.79010  0.11790  0.80660  Biso   1.000  H
  H60      1.0000 0.79840  0.18310  0.84430  Biso   1.000  H
  C73      1.0000 0.88670  0.09730  0.20420  Biso   1.000  C
  H61      1.0000 0.94040  0.11880  0.20760  Biso   1.000  H
  H62      1.0000 0.88160  0.07230  0.23390  Biso   1.000  H
  H63      1.0000 0.84600  0.13550  0.19760  Biso   1.000  H
  C74      1.0000 0.66770  0.09510  0.22580  Biso   1.000  C
  H64      1.0000 0.66340  0.06370  0.25310  Biso   1.000  H
  H65      1.0000 0.63110  0.13640  0.22530  Biso   1.000  H
  H66      1.0000 0.72300  0.11270  0.22900  Biso   1.000  H
  Mn3      1.0000 0.78254  0.38004  0.41171  Biso   1.000  Mn
  O13      1.0000 0.20000  0.79500  0.42785  Biso   1.000  O
  O14      1.0000 0.21400  0.78770  0.35247  Biso   1.000  O
  O15      1.0000 0.38570  0.81720  0.41890  Biso   1.000  O
  O16      1.0000 0.36150  0.74440  0.47759  Biso   1.000  O
  O17      1.0000 0.79880  0.43710  0.47563  Biso   1.000  O
  O18      1.0000 0.76560  0.35800  0.52865  Biso   1.000  O
  N13      1.0000 0.81200  0.49620  0.33060  Biso   1.000  N
  N14      1.0000 0.93790  0.70300  0.72180  Biso   1.000  N
  N15      1.0000 0.67380  0.48460  0.33730  Biso   1.000  N
  N16      1.0000 0.67310  0.44370  0.37750  Biso   1.000  N
  N17      1.0000 0.84380  0.46620  0.37450  Biso   1.000  N
  N18      1.0000 0.86040  0.71440  0.72650  Biso   1.000  N
  C75      1.0000 0.62110  0.47570  0.40120  Biso   1.000  C
  C76      1.0000 0.60230  0.44630  0.44650  Biso   1.000  C
  H67      1.0000 0.54760  0.42680  0.44060  Biso   1.000  H
  H68      1.0000 0.60640  0.48510  0.47050  Biso   1.000  H
  H69      1.0000 0.64050  0.40770  0.45850  Biso   1.000  H
  C77      1.0000 0.96020  0.48940  0.43830  Biso   1.000  C
  H70      1.0000 0.93900  0.51380  0.46410  Biso   1.000  H
  H71      1.0000 0.01530  0.50590  0.43840  Biso   1.000  H
  H72      1.0000 0.96020  0.43690  0.44350  Biso   1.000  H
  H73      1.0000 0.02430  0.77790  0.72830  Biso   1.000  H
  C78      1.0000 0.78820  0.41910  0.51680  Biso   1.000  C
  C79      1.0000 0.17840  0.76950  0.38560  Biso   1.000  C
  C80      1.0000 0.98260  0.61630  0.36290  Biso   1.000  C
  C81      1.0000 0.91770  0.56150  0.35760  Biso   1.000  C
  C82      1.0000 0.42840  0.62980  0.43210  Biso   1.000  C
  H74      1.0000 0.38610  0.61650  0.44820  Biso   1.000  H
  C83      1.0000 0.59050  0.54070  0.37690  Biso   1.000  C
  C84      1.0000 0.94380  0.65370  0.68680  Biso   1.000  C
  C85      1.0000 0.39390  0.75840  0.44240  Biso   1.000  C
  C86      1.0000 0.50960  0.72080  0.40370  Biso   1.000  C
  H75      1.0000 0.52130  0.77030  0.39920  Biso   1.000  H
  C87      1.0000 0.85450  0.55320  0.31990  Biso   1.000  C
  C88      1.0000 0.06420  0.70510  0.41270  Biso   1.000  C
  H76      1.0000 0.07590  0.73090  0.44220  Biso   1.000  H
  C89      1.0000 0.73350  0.46830  0.30820  Biso   1.000  C
  H77      1.0000 0.71720  0.49030  0.27610  Biso   1.000  H
  H78      1.0000 0.73690  0.41530  0.30410  Biso   1.000  H
  C90      1.0000 0.86630  0.63180  0.66790  Biso   1.000  C
  C91      1.0000 0.53910  0.59600  0.39320  Biso   1.000  C
  C92      1.0000 0.02690  0.62910  0.32710  Biso   1.000  C
  H79      1.0000 0.01440  0.60330  0.29770  Biso   1.000  H
  C93      1.0000 0.90820  0.50720  0.39070  Biso   1.000  C
  C94      1.0000 0.47380  0.57630  0.41450  Biso   1.000  C
  H80      1.0000 0.46040  0.52670  0.41700  Biso   1.000  H
  C95      1.0000 0.79650  0.45960  0.60170  Biso   1.000  C
  H81      1.0000 0.77920  0.41270  0.60900  Biso   1.000  H
  C96      1.0000 0.84240  0.57850  0.62870  Biso   1.000  C
  C97      1.0000 0.44550  0.70270  0.42590  Biso   1.000  C
  C98      1.0000 0.80290  0.47570  0.55580  Biso   1.000  C
  C99      1.0000 0.81670  0.67120  0.69370  Biso   1.000  C
  C100     1.0000 0.00230  0.65550  0.40560  Biso   1.000  C
  H82      1.0000 0.97220  0.64780  0.43030  Biso   1.000  H
  C101     1.0000 0.08940  0.67940  0.33380  Biso   1.000  C
  H83      1.0000 0.11860  0.68770  0.30870  Biso   1.000  H
  C102     1.0000 0.10990  0.71810  0.37750  Biso   1.000  C
  C103     1.0000 0.62540  0.54440  0.33650  Biso   1.000  C
  C104     1.0000 0.82680  0.54450  0.54540  Biso   1.000  C
  H84      1.0000 0.83030  0.55700  0.51340  Biso   1.000  H
  C105     1.0000 0.81460  0.51060  0.63830  Biso   1.000  C
  H85      1.0000 0.80790  0.49870  0.67000  Biso   1.000  H
  C106     1.0000 0.02240  0.62820  0.67680  Biso   1.000  C
  H86      1.0000 0.05770  0.66990  0.67540  Biso   1.000  H
  H87      1.0000 0.01390  0.60250  0.64610  Biso   1.000  H
  H88      1.0000 0.04740  0.59540  0.70250  Biso   1.000  H
  C107     1.0000 0.55610  0.66830  0.38840  Biso   1.000  C
  H89      1.0000 0.60060  0.68190  0.37430  Biso   1.000  H
  C108     1.0000 0.84580  0.59600  0.58200  Biso   1.000  C
  H90      1.0000 0.86130  0.64340  0.57450  Biso   1.000  H
  C109     1.0000 0.72620  0.66770  0.68820  Biso   1.000  C
  H91      1.0000 0.70860  0.69980  0.71170  Biso   1.000  H
  H92      1.0000 0.70990  0.61790  0.69340  Biso   1.000  H
  H93      1.0000 0.70160  0.68310  0.65570  Biso   1.000  H
  C110     1.0000 0.61330  0.59730  0.29580  Biso   1.000  C
  H94      1.0000 0.55960  0.61880  0.29240  Biso   1.000  H
  H95      1.0000 0.61840  0.57230  0.26610  Biso   1.000  H
  H96      1.0000 0.65400  0.63550  0.30240  Biso   1.000  H
  C111     1.0000 0.83230  0.59510  0.27420  Biso   1.000  C
  H97      1.0000 0.83660  0.56370  0.24690  Biso   1.000  H
  H98      1.0000 0.86890  0.63640  0.27470  Biso   1.000  H
  H99      1.0000 0.77700  0.61270  0.27100  Biso   1.000  H
  Mn4      1.0000 0.28254  0.88004  0.41171  Biso   1.000  Mn
  O19      1.0000 0.70000  0.29500  0.42785  Biso   1.000  O
  O20      1.0000 0.71400  0.28770  0.35247  Biso   1.000  O
  O21      1.0000 0.88570  0.31720  0.41890  Biso   1.000  O
  O22      1.0000 0.86150  0.24440  0.47759  Biso   1.000  O
  O23      1.0000 0.29880  0.93710  0.47563  Biso   1.000  O
  O24      1.0000 0.26560  0.85800  0.52865  Biso   1.000  O
  N19      1.0000 0.31200  0.99620  0.33060  Biso   1.000  N
  N20      1.0000 0.43790  0.20300  0.72180  Biso   1.000  N
  N21      1.0000 0.17380  0.98460  0.33730  Biso   1.000  N
  N22      1.0000 0.17310  0.94370  0.37750  Biso   1.000  N
  N23      1.0000 0.34380  0.96620  0.37450  Biso   1.000  N
  N24      1.0000 0.36040  0.21440  0.72650  Biso   1.000  N
  C112     1.0000 0.12110  0.97570  0.40120  Biso   1.000  C
  C113     1.0000 0.10230  0.94630  0.44650  Biso   1.000  C
  H100     1.0000 0.04760  0.92680  0.44060  Biso   1.000  H
  H101     1.0000 0.10640  0.98510  0.47050  Biso   1.000  H
  H102     1.0000 0.14050  0.90770  0.45850  Biso   1.000  H
  C114     1.0000 0.46020  0.98940  0.43830  Biso   1.000  C
  H103     1.0000 0.43900  0.01380  0.46410  Biso   1.000  H
  H104     1.0000 0.51530  0.00590  0.43840  Biso   1.000  H
  H105     1.0000 0.46020  0.93690  0.44350  Biso   1.000  H
  H106     1.0000 0.52430  0.27790  0.72830  Biso   1.000  H
  C115     1.0000 0.28820  0.91910  0.51680  Biso   1.000  C
  C116     1.0000 0.67840  0.26950  0.38560  Biso   1.000  C
  C117     1.0000 0.48260  0.11630  0.36290  Biso   1.000  C
  C118     1.0000 0.41770  0.06150  0.35760  Biso   1.000  C
  C119     1.0000 0.92840  0.12980  0.43210  Biso   1.000  C
  H107     1.0000 0.88610  0.11650  0.44820  Biso   1.000  H
  C120     1.0000 0.09050  0.04070  0.37690  Biso   1.000  C
  C121     1.0000 0.44380  0.15370  0.68680  Biso   1.000  C
  C122     1.0000 0.89390  0.25840  0.44240  Biso   1.000  C
  C123     1.0000 0.00960  0.22080  0.40370  Biso   1.000  C
  H108     1.0000 0.02130  0.27030  0.39920  Biso   1.000  H
  C124     1.0000 0.35450  0.05320  0.31990  Biso   1.000  C
  C125     1.0000 0.56420  0.20510  0.41270  Biso   1.000  C
  H109     1.0000 0.57590  0.23090  0.44220  Biso   1.000  H
  C126     1.0000 0.23350  0.96830  0.30820  Biso   1.000  C
  H110     1.0000 0.21720  0.99030  0.27610  Biso   1.000  H
  H111     1.0000 0.23690  0.91530  0.30410  Biso   1.000  H
  C127     1.0000 0.36630  0.13180  0.66790  Biso   1.000  C
  C128     1.0000 0.03910  0.09600  0.39320  Biso   1.000  C
  C129     1.0000 0.52690  0.12910  0.32710  Biso   1.000  C
  H112     1.0000 0.51440  0.10330  0.29770  Biso   1.000  H
  C130     1.0000 0.40820  0.00720  0.39070  Biso   1.000  C
  C131     1.0000 0.97380  0.07630  0.41450  Biso   1.000  C
  H113     1.0000 0.96040  0.02670  0.41700  Biso   1.000  H
  C132     1.0000 0.29650  0.95960  0.60170  Biso   1.000  C
  H114     1.0000 0.27920  0.91270  0.60900  Biso   1.000  H
  C133     1.0000 0.34240  0.07850  0.62870  Biso   1.000  C
  C134     1.0000 0.94550  0.20270  0.42590  Biso   1.000  C
  C135     1.0000 0.30290  0.97570  0.55580  Biso   1.000  C
  C136     1.0000 0.31670  0.17120  0.69370  Biso   1.000  C
  C137     1.0000 0.50230  0.15550  0.40560  Biso   1.000  C
  H115     1.0000 0.47220  0.14780  0.43030  Biso   1.000  H
  C138     1.0000 0.58940  0.17940  0.33380  Biso   1.000  C
  H116     1.0000 0.61860  0.18770  0.30870  Biso   1.000  H
  C139     1.0000 0.60990  0.21810  0.37750  Biso   1.000  C
  C140     1.0000 0.12540  0.04440  0.33650  Biso   1.000  C
  C141     1.0000 0.32680  0.04450  0.54540  Biso   1.000  C
  H117     1.0000 0.33030  0.05700  0.51340  Biso   1.000  H
  C142     1.0000 0.31460  0.01060  0.63830  Biso   1.000  C
  H118     1.0000 0.30790  0.99870  0.67000  Biso   1.000  H
  C143     1.0000 0.52240  0.12820  0.67680  Biso   1.000  C
  H119     1.0000 0.55770  0.16990  0.67540  Biso   1.000  H
  H120     1.0000 0.51390  0.10250  0.64610  Biso   1.000  H
  H121     1.0000 0.54740  0.09540  0.70250  Biso   1.000  H
  C144     1.0000 0.05610  0.16830  0.38840  Biso   1.000  C
  H122     1.0000 0.10060  0.18190  0.37430  Biso   1.000  H
  C145     1.0000 0.34580  0.09600  0.58200  Biso   1.000  C
  H123     1.0000 0.36130  0.14340  0.57450  Biso   1.000  H
  C146     1.0000 0.22620  0.16770  0.68820  Biso   1.000  C
  H124     1.0000 0.20860  0.19980  0.71170  Biso   1.000  H
  H125     1.0000 0.20990  0.11790  0.69340  Biso   1.000  H
  H126     1.0000 0.20160  0.18310  0.65570  Biso   1.000  H
  C147     1.0000 0.11330  0.09730  0.29580  Biso   1.000  C
  H127     1.0000 0.05960  0.11880  0.29240  Biso   1.000  H
  H128     1.0000 0.11840  0.07230  0.26610  Biso   1.000  H
  H129     1.0000 0.15400  0.13550  0.30240  Biso   1.000  H
  C148     1.0000 0.33230  0.09510  0.27420  Biso   1.000  C
  H130     1.0000 0.33660  0.06370  0.24690  Biso   1.000  H
  H131     1.0000 0.36890  0.13640  0.27470  Biso   1.000  H
  H132     1.0000 0.27700  0.11270  0.27100  Biso   1.000  H
  Mn5      1.0000 0.78254  0.61996  0.91171  Biso   1.000  Mn
  O25      1.0000 0.20000  0.20500  0.92785  Biso   1.000  O
  O26      1.0000 0.21400  0.21230  0.85247  Biso   1.000  O
  O27      1.0000 0.38570  0.18280  0.91890  Biso   1.000  O
  O28      1.0000 0.36150  0.25560  0.97759  Biso   1.000  O
  O29      1.0000 0.79880  0.56290  0.97563  Biso   1.000  O
  O30      1.0000 0.76560  0.64200  0.02865  Biso   1.000  O
  N25      1.0000 0.81200  0.50380  0.83060  Biso   1.000  N
  N26      1.0000 0.93790  0.29700  0.22180  Biso   1.000  N
  N27      1.0000 0.67380  0.51540  0.83730  Biso   1.000  N
  N28      1.0000 0.67310  0.55630  0.87750  Biso   1.000  N
  N29      1.0000 0.84380  0.53380  0.87450  Biso   1.000  N
  N30      1.0000 0.86040  0.28560  0.22650  Biso   1.000  N
  C149     1.0000 0.62110  0.52430  0.90120  Biso   1.000  C
  C150     1.0000 0.60230  0.55370  0.94650  Biso   1.000  C
  H133     1.0000 0.54760  0.57320  0.94060  Biso   1.000  H
  H134     1.0000 0.60640  0.51490  0.97050  Biso   1.000  H
  H135     1.0000 0.64050  0.59230  0.95850  Biso   1.000  H
  C151     1.0000 0.96020  0.51060  0.93830  Biso   1.000  C
  H136     1.0000 0.93900  0.48620  0.96410  Biso   1.000  H
  H137     1.0000 0.01530  0.49410  0.93840  Biso   1.000  H
  H138     1.0000 0.96020  0.56310  0.94350  Biso   1.000  H
  H139     1.0000 0.02430  0.22210  0.22830  Biso   1.000  H
  C152     1.0000 0.78820  0.58090  0.01680  Biso   1.000  C
  C153     1.0000 0.17840  0.23050  0.88560  Biso   1.000  C
  C154     1.0000 0.98260  0.38370  0.86290  Biso   1.000  C
  C155     1.0000 0.91770  0.43850  0.85760  Biso   1.000  C
  C156     1.0000 0.42840  0.37020  0.93210  Biso   1.000  C
  H140     1.0000 0.38610  0.38350  0.94820  Biso   1.000  H
  C157     1.0000 0.59050  0.45930  0.87690  Biso   1.000  C
  C158     1.0000 0.94380  0.34630  0.18680  Biso   1.000  C
  C159     1.0000 0.39390  0.24160  0.94240  Biso   1.000  C
  C160     1.0000 0.50960  0.27920  0.90370  Biso   1.000  C
  H141     1.0000 0.52130  0.22970  0.89920  Biso   1.000  H
  C161     1.0000 0.85450  0.44680  0.81990  Biso   1.000  C
  C162     1.0000 0.06420  0.29490  0.91270  Biso   1.000  C
  H142     1.0000 0.07590  0.26910  0.94220  Biso   1.000  H
  C163     1.0000 0.73350  0.53170  0.80820  Biso   1.000  C
  H143     1.0000 0.71720  0.50970  0.77610  Biso   1.000  H
  H144     1.0000 0.73690  0.58470  0.80410  Biso   1.000  H
  C164     1.0000 0.86630  0.36820  0.16790  Biso   1.000  C
  C165     1.0000 0.53910  0.40400  0.89320  Biso   1.000  C
  C166     1.0000 0.02690  0.37090  0.82710  Biso   1.000  C
  H145     1.0000 0.01440  0.39670  0.79770  Biso   1.000  H
  C167     1.0000 0.90820  0.49280  0.89070  Biso   1.000  C
  C168     1.0000 0.47380  0.42370  0.91450  Biso   1.000  C
  H146     1.0000 0.46040  0.47330  0.91700  Biso   1.000  H
  C169     1.0000 0.79650  0.54040  0.10170  Biso   1.000  C
  H147     1.0000 0.77920  0.58730  0.10900  Biso   1.000  H
  C170     1.0000 0.84240  0.42150  0.12870  Biso   1.000  C
  C171     1.0000 0.44550  0.29730  0.92590  Biso   1.000  C
  C172     1.0000 0.80290  0.52430  0.05580  Biso   1.000  C
  C173     1.0000 0.81670  0.32880  0.19370  Biso   1.000  C
  C174     1.0000 0.00230  0.34450  0.90560  Biso   1.000  C
  H148     1.0000 0.97220  0.35220  0.93030  Biso   1.000  H
  C175     1.0000 0.08940  0.32060  0.83380  Biso   1.000  C
  H149     1.0000 0.11860  0.31230  0.80870  Biso   1.000  H
  C176     1.0000 0.10990  0.28190  0.87750  Biso   1.000  C
  C177     1.0000 0.62540  0.45560  0.83650  Biso   1.000  C
  C178     1.0000 0.82680  0.45550  0.04540  Biso   1.000  C
  H150     1.0000 0.83030  0.44300  0.01340  Biso   1.000  H
  C179     1.0000 0.81460  0.48940  0.13830  Biso   1.000  C
  H151     1.0000 0.80790  0.50130  0.17000  Biso   1.000  H
  C180     1.0000 0.02240  0.37180  0.17680  Biso   1.000  C
  H152     1.0000 0.05770  0.33010  0.17540  Biso   1.000  H
  H153     1.0000 0.01390  0.39750  0.14610  Biso   1.000  H
  H154     1.0000 0.04740  0.40460  0.20250  Biso   1.000  H
  C181     1.0000 0.55610  0.33170  0.88840  Biso   1.000  C
  H155     1.0000 0.60060  0.31810  0.87430  Biso   1.000  H
  C182     1.0000 0.84580  0.40400  0.08200  Biso   1.000  C
  H156     1.0000 0.86130  0.35660  0.07450  Biso   1.000  H
  C183     1.0000 0.72620  0.33230  0.18820  Biso   1.000  C
  H157     1.0000 0.70860  0.30020  0.21170  Biso   1.000  H
  H158     1.0000 0.70990  0.38210  0.19340  Biso   1.000  H
  H159     1.0000 0.70160  0.31690  0.15570  Biso   1.000  H
  C184     1.0000 0.61330  0.40270  0.79580  Biso   1.000  C
  H160     1.0000 0.55960  0.38120  0.79240  Biso   1.000  H
  H161     1.0000 0.61840  0.42770  0.76610  Biso   1.000  H
  H162     1.0000 0.65400  0.36450  0.80240  Biso   1.000  H
  C185     1.0000 0.83230  0.40490  0.77420  Biso   1.000  C
  H163     1.0000 0.83660  0.43630  0.74690  Biso   1.000  H
  H164     1.0000 0.86890  0.36360  0.77470  Biso   1.000  H
  H165     1.0000 0.77700  0.38730  0.77100  Biso   1.000  H
  Mn6      1.0000 0.28254  0.11996  0.91171  Biso   1.000  Mn
  O31      1.0000 0.70000  0.70500  0.92785  Biso   1.000  O
  O32      1.0000 0.71400  0.71230  0.85247  Biso   1.000  O
  O33      1.0000 0.88570  0.68280  0.91890  Biso   1.000  O
  O34      1.0000 0.86150  0.75560  0.97759  Biso   1.000  O
  O35      1.0000 0.29880  0.06290  0.97563  Biso   1.000  O
  O36      1.0000 0.26560  0.14200  0.02865  Biso   1.000  O
  N31      1.0000 0.31200  0.00380  0.83060  Biso   1.000  N
  N32      1.0000 0.43790  0.79700  0.22180  Biso   1.000  N
  N33      1.0000 0.17380  0.01540  0.83730  Biso   1.000  N
  N34      1.0000 0.17310  0.05630  0.87750  Biso   1.000  N
  N35      1.0000 0.34380  0.03380  0.87450  Biso   1.000  N
  N36      1.0000 0.36040  0.78560  0.22650  Biso   1.000  N
  C186     1.0000 0.12110  0.02430  0.90120  Biso   1.000  C
  C187     1.0000 0.10230  0.05370  0.94650  Biso   1.000  C
  H166     1.0000 0.04760  0.07320  0.94060  Biso   1.000  H
  H167     1.0000 0.10640  0.01490  0.97050  Biso   1.000  H
  H168     1.0000 0.14050  0.09230  0.95850  Biso   1.000  H
  C188     1.0000 0.46020  0.01060  0.93830  Biso   1.000  C
  H169     1.0000 0.43900  0.98620  0.96410  Biso   1.000  H
  H170     1.0000 0.51530  0.99410  0.93840  Biso   1.000  H
  H171     1.0000 0.46020  0.06310  0.94350  Biso   1.000  H
  H172     1.0000 0.52430  0.72210  0.22830  Biso   1.000  H
  C189     1.0000 0.28820  0.08090  0.01680  Biso   1.000  C
  C190     1.0000 0.67840  0.73050  0.88560  Biso   1.000  C
  C191     1.0000 0.48260  0.88370  0.86290  Biso   1.000  C
  C192     1.0000 0.41770  0.93850  0.85760  Biso   1.000  C
  C193     1.0000 0.92840  0.87020  0.93210  Biso   1.000  C
  H173     1.0000 0.88610  0.88350  0.94820  Biso   1.000  H
  C194     1.0000 0.09050  0.95930  0.87690  Biso   1.000  C
  C195     1.0000 0.44380  0.84630  0.18680  Biso   1.000  C
  C196     1.0000 0.89390  0.74160  0.94240  Biso   1.000  C
  C197     1.0000 0.00960  0.77920  0.90370  Biso   1.000  C
  H174     1.0000 0.02130  0.72970  0.89920  Biso   1.000  H
  C198     1.0000 0.35450  0.94680  0.81990  Biso   1.000  C
  C199     1.0000 0.56420  0.79490  0.91270  Biso   1.000  C
  H175     1.0000 0.57590  0.76910  0.94220  Biso   1.000  H
  C200     1.0000 0.23350  0.03170  0.80820  Biso   1.000  C
  H176     1.0000 0.21720  0.00970  0.77610  Biso   1.000  H
  H177     1.0000 0.23690  0.08470  0.80410  Biso   1.000  H
  C201     1.0000 0.36630  0.86820  0.16790  Biso   1.000  C
  C202     1.0000 0.03910  0.90400  0.89320  Biso   1.000  C
  C203     1.0000 0.52690  0.87090  0.82710  Biso   1.000  C
  H178     1.0000 0.51440  0.89670  0.79770  Biso   1.000  H
  C204     1.0000 0.40820  0.99280  0.89070  Biso   1.000  C
  C205     1.0000 0.97380  0.92370  0.91450  Biso   1.000  C
  H179     1.0000 0.96040  0.97330  0.91700  Biso   1.000  H
  C206     1.0000 0.29650  0.04040  0.10170  Biso   1.000  C
  H180     1.0000 0.27920  0.08730  0.10900  Biso   1.000  H
  C207     1.0000 0.34240  0.92150  0.12870  Biso   1.000  C
  C208     1.0000 0.94550  0.79730  0.92590  Biso   1.000  C
  C209     1.0000 0.30290  0.02430  0.05580  Biso   1.000  C
  C210     1.0000 0.31670  0.82880  0.19370  Biso   1.000  C
  C211     1.0000 0.50230  0.84450  0.90560  Biso   1.000  C
  H181     1.0000 0.47220  0.85220  0.93030  Biso   1.000  H
  C212     1.0000 0.58940  0.82060  0.83380  Biso   1.000  C
  H182     1.0000 0.61860  0.81230  0.80870  Biso   1.000  H
  C213     1.0000 0.60990  0.78190  0.87750  Biso   1.000  C
  C214     1.0000 0.12540  0.95560  0.83650  Biso   1.000  C
  C215     1.0000 0.32680  0.95550  0.04540  Biso   1.000  C
  H183     1.0000 0.33030  0.94300  0.01340  Biso   1.000  H
  C216     1.0000 0.31460  0.98940  0.13830  Biso   1.000  C
  H184     1.0000 0.30790  0.00130  0.17000  Biso   1.000  H
  C217     1.0000 0.52240  0.87180  0.17680  Biso   1.000  C
  H185     1.0000 0.55770  0.83010  0.17540  Biso   1.000  H
  H186     1.0000 0.51390  0.89750  0.14610  Biso   1.000  H
  H187     1.0000 0.54740  0.90460  0.20250  Biso   1.000  H
  C218     1.0000 0.05610  0.83170  0.88840  Biso   1.000  C
  H188     1.0000 0.10060  0.81810  0.87430  Biso   1.000  H
  C219     1.0000 0.34580  0.90400  0.08200  Biso   1.000  C
  H189     1.0000 0.36130  0.85660  0.07450  Biso   1.000  H
  C220     1.0000 0.22620  0.83230  0.18820  Biso   1.000  C
  H190     1.0000 0.20860  0.80020  0.21170  Biso   1.000  H
  H191     1.0000 0.20990  0.88210  0.19340  Biso   1.000  H
  H192     1.0000 0.20160  0.81690  0.15570  Biso   1.000  H
  C221     1.0000 0.11330  0.90270  0.79580  Biso   1.000  C
  H193     1.0000 0.05960  0.88120  0.79240  Biso   1.000  H
  H194     1.0000 0.11840  0.92770  0.76610  Biso   1.000  H
  H195     1.0000 0.15400  0.86450  0.80240  Biso   1.000  H
  C222     1.0000 0.33230  0.90490  0.77420  Biso   1.000  C
  H196     1.0000 0.33660  0.93630  0.74690  Biso   1.000  H
  H197     1.0000 0.36890  0.86360  0.77470  Biso   1.000  H
  H198     1.0000 0.27700  0.88730  0.77100  Biso   1.000  H
  Mn7      1.0000 0.21746  0.61996  0.58829  Biso   1.000  Mn
  O37      1.0000 0.80000  0.20500  0.57215  Biso   1.000  O
  O38      1.0000 0.78600  0.21230  0.64753  Biso   1.000  O
  O39      1.0000 0.61430  0.18280  0.58110  Biso   1.000  O
  O40      1.0000 0.63850  0.25560  0.52241  Biso   1.000  O
  O41      1.0000 0.20120  0.56290  0.52437  Biso   1.000  O
  O42      1.0000 0.23440  0.64200  0.47135  Biso   1.000  O
  N37      1.0000 0.18800  0.50380  0.66940  Biso   1.000  N
  N38      1.0000 0.06210  0.29700  0.27820  Biso   1.000  N
  N39      1.0000 0.32620  0.51540  0.66270  Biso   1.000  N
  N40      1.0000 0.32690  0.55630  0.62250  Biso   1.000  N
  N41      1.0000 0.15620  0.53380  0.62550  Biso   1.000  N
  N42      1.0000 0.13960  0.28560  0.27350  Biso   1.000  N
  C223     1.0000 0.37890  0.52430  0.59880  Biso   1.000  C
  C224     1.0000 0.39770  0.55370  0.55350  Biso   1.000  C
  H199     1.0000 0.45240  0.57320  0.55940  Biso   1.000  H
  H200     1.0000 0.39360  0.51490  0.52950  Biso   1.000  H
  H201     1.0000 0.35950  0.59230  0.54150  Biso   1.000  H
  C225     1.0000 0.03980  0.51060  0.56170  Biso   1.000  C
  H202     1.0000 0.06100  0.48620  0.53590  Biso   1.000  H
  H203     1.0000 0.98470  0.49410  0.56160  Biso   1.000  H
  H204     1.0000 0.03980  0.56310  0.55650  Biso   1.000  H
  H205     1.0000 0.97570  0.22210  0.27170  Biso   1.000  H
  C226     1.0000 0.21180  0.58090  0.48320  Biso   1.000  C
  C227     1.0000 0.82160  0.23050  0.61440  Biso   1.000  C
  C228     1.0000 0.01740  0.38370  0.63710  Biso   1.000  C
  C229     1.0000 0.08230  0.43850  0.64240  Biso   1.000  C
  C230     1.0000 0.57160  0.37020  0.56790  Biso   1.000  C
  H206     1.0000 0.61390  0.38350  0.55180  Biso   1.000  H
  C231     1.0000 0.40950  0.45930  0.62310  Biso   1.000  C
  C232     1.0000 0.05620  0.34630  0.31320  Biso   1.000  C
  C233     1.0000 0.60610  0.24160  0.55760  Biso   1.000  C
  C234     1.0000 0.49040  0.27920  0.59630  Biso   1.000  C
  H207     1.0000 0.47870  0.22970  0.60080  Biso   1.000  H
  C235     1.0000 0.14550  0.44680  0.68010  Biso   1.000  C
  C236     1.0000 0.93580  0.29490  0.58730  Biso   1.000  C
  H208     1.0000 0.92410  0.26910  0.55780  Biso   1.000  H
  C237     1.0000 0.26650  0.53170  0.69180  Biso   1.000  C
  H209     1.0000 0.28280  0.50970  0.72390  Biso   1.000  H
  H210     1.0000 0.26310  0.58470  0.69590  Biso   1.000  H
  C238     1.0000 0.13370  0.36820  0.33210  Biso   1.000  C
  C239     1.0000 0.46090  0.40400  0.60680  Biso   1.000  C
  C240     1.0000 0.97310  0.37090  0.67290  Biso   1.000  C
  H211     1.0000 0.98560  0.39670  0.70230  Biso   1.000  H
  C241     1.0000 0.09180  0.49280  0.60930  Biso   1.000  C
  C242     1.0000 0.52620  0.42370  0.58550  Biso   1.000  C
  H212     1.0000 0.53960  0.47330  0.58300  Biso   1.000  H
  C243     1.0000 0.20350  0.54040  0.39830  Biso   1.000  C
  H213     1.0000 0.22080  0.58730  0.39100  Biso   1.000  H
  C244     1.0000 0.15760  0.42150  0.37130  Biso   1.000  C
  C245     1.0000 0.55450  0.29730  0.57410  Biso   1.000  C
  C246     1.0000 0.19710  0.52430  0.44420  Biso   1.000  C
  C247     1.0000 0.18330  0.32880  0.30630  Biso   1.000  C
  C248     1.0000 0.99770  0.34450  0.59440  Biso   1.000  C
  H214     1.0000 0.02780  0.35220  0.56970  Biso   1.000  H
  C249     1.0000 0.91060  0.32060  0.66620  Biso   1.000  C
  H215     1.0000 0.88140  0.31230  0.69130  Biso   1.000  H
  C250     1.0000 0.89010  0.28190  0.62250  Biso   1.000  C
  C251     1.0000 0.37460  0.45560  0.66350  Biso   1.000  C
  C252     1.0000 0.17320  0.45550  0.45460  Biso   1.000  C
  H216     1.0000 0.16970  0.44300  0.48660  Biso   1.000  H
  C253     1.0000 0.18540  0.48940  0.36170  Biso   1.000  C
  H217     1.0000 0.19210  0.50130  0.33000  Biso   1.000  H
  C254     1.0000 0.97760  0.37180  0.32320  Biso   1.000  C
  H218     1.0000 0.94230  0.33010  0.32460  Biso   1.000  H
  H219     1.0000 0.98610  0.39750  0.35390  Biso   1.000  H
  H220     1.0000 0.95260  0.40460  0.29750  Biso   1.000  H
  C255     1.0000 0.44390  0.33170  0.61160  Biso   1.000  C
  H221     1.0000 0.39940  0.31810  0.62570  Biso   1.000  H
  C256     1.0000 0.15420  0.40400  0.41800  Biso   1.000  C
  H222     1.0000 0.13870  0.35660  0.42550  Biso   1.000  H
  C257     1.0000 0.27380  0.33230  0.31180  Biso   1.000  C
  H223     1.0000 0.29140  0.30020  0.28830  Biso   1.000  H
  H224     1.0000 0.29010  0.38210  0.30660  Biso   1.000  H
  H225     1.0000 0.29840  0.31690  0.34430  Biso   1.000  H
  C258     1.0000 0.38670  0.40270  0.70420  Biso   1.000  C
  H226     1.0000 0.44040  0.38120  0.70760  Biso   1.000  H
  H227     1.0000 0.38160  0.42770  0.73390  Biso   1.000  H
  H228     1.0000 0.34600  0.36450  0.69760  Biso   1.000  H
  C259     1.0000 0.16770  0.40490  0.72580  Biso   1.000  C
  H229     1.0000 0.16340  0.43630  0.75310  Biso   1.000  H
  H230     1.0000 0.13110  0.36360  0.72530  Biso   1.000  H
  H231     1.0000 0.22300  0.38730  0.72900  Biso   1.000  H
  Mn8      1.0000 0.71746  0.11996  0.58829  Biso   1.000  Mn
  O43      1.0000 0.30000  0.70500  0.57215  Biso   1.000  O
  O44      1.0000 0.28600  0.71230  0.64753  Biso   1.000  O
  O45      1.0000 0.11430  0.68280  0.58110  Biso   1.000  O
  O46      1.0000 0.13850  0.75560  0.52241  Biso   1.000  O
  O47      1.0000 0.70120  0.06290  0.52437  Biso   1.000  O
  O48      1.0000 0.73440  0.14200  0.47135  Biso   1.000  O
  N43      1.0000 0.68800  0.00380  0.66940  Biso   1.000  N
  N44      1.0000 0.56210  0.79700  0.27820  Biso   1.000  N
  N45      1.0000 0.82620  0.01540  0.66270  Biso   1.000  N
  N46      1.0000 0.82690  0.05630  0.62250  Biso   1.000  N
  N47      1.0000 0.65620  0.03380  0.62550  Biso   1.000  N
  N48      1.0000 0.63960  0.78560  0.27350  Biso   1.000  N
  C260     1.0000 0.87890  0.02430  0.59880  Biso   1.000  C
  C261     1.0000 0.89770  0.05370  0.55350  Biso   1.000  C
  H232     1.0000 0.95240  0.07320  0.55940  Biso   1.000  H
  H233     1.0000 0.89360  0.01490  0.52950  Biso   1.000  H
  H234     1.0000 0.85950  0.09230  0.54150  Biso   1.000  H
  C262     1.0000 0.53980  0.01060  0.56170  Biso   1.000  C
  H235     1.0000 0.56100  0.98620  0.53590  Biso   1.000  H
  H236     1.0000 0.48470  0.99410  0.56160  Biso   1.000  H
  H237     1.0000 0.53980  0.06310  0.55650  Biso   1.000  H
  H238     1.0000 0.47570  0.72210  0.27170  Biso   1.000  H
  C263     1.0000 0.71180  0.08090  0.48320  Biso   1.000  C
  C264     1.0000 0.32160  0.73050  0.61440  Biso   1.000  C
  C265     1.0000 0.51740  0.88370  0.63710  Biso   1.000  C
  C266     1.0000 0.58230  0.93850  0.64240  Biso   1.000  C
  C267     1.0000 0.07160  0.87020  0.56790  Biso   1.000  C
  H239     1.0000 0.11390  0.88350  0.55180  Biso   1.000  H
  C268     1.0000 0.90950  0.95930  0.62310  Biso   1.000  C
  C269     1.0000 0.55620  0.84630  0.31320  Biso   1.000  C
  C270     1.0000 0.10610  0.74160  0.55760  Biso   1.000  C
  C271     1.0000 0.99040  0.77920  0.59630  Biso   1.000  C
  H240     1.0000 0.97870  0.72970  0.60080  Biso   1.000  H
  C272     1.0000 0.64550  0.94680  0.68010  Biso   1.000  C
  C273     1.0000 0.43580  0.79490  0.58730  Biso   1.000  C
  H241     1.0000 0.42410  0.76910  0.55780  Biso   1.000  H
  C274     1.0000 0.76650  0.03170  0.69180  Biso   1.000  C
  H242     1.0000 0.78280  0.00970  0.72390  Biso   1.000  H
  H243     1.0000 0.76310  0.08470  0.69590  Biso   1.000  H
  C275     1.0000 0.63370  0.86820  0.33210  Biso   1.000  C
  C276     1.0000 0.96090  0.90400  0.60680  Biso   1.000  C
  C277     1.0000 0.47310  0.87090  0.67290  Biso   1.000  C
  H244     1.0000 0.48560  0.89670  0.70230  Biso   1.000  H
  C278     1.0000 0.59180  0.99280  0.60930  Biso   1.000  C
  C279     1.0000 0.02620  0.92370  0.58550  Biso   1.000  C
  H245     1.0000 0.03960  0.97330  0.58300  Biso   1.000  H
  C280     1.0000 0.70350  0.04040  0.39830  Biso   1.000  C
  H246     1.0000 0.72080  0.08730  0.39100  Biso   1.000  H
  C281     1.0000 0.65760  0.92150  0.37130  Biso   1.000  C
  C282     1.0000 0.05450  0.79730  0.57410  Biso   1.000  C
  C283     1.0000 0.69710  0.02430  0.44420  Biso   1.000  C
  C284     1.0000 0.68330  0.82880  0.30630  Biso   1.000  C
  C285     1.0000 0.49770  0.84450  0.59440  Biso   1.000  C
  H247     1.0000 0.52780  0.85220  0.56970  Biso   1.000  H
  C286     1.0000 0.41060  0.82060  0.66620  Biso   1.000  C
  H248     1.0000 0.38140  0.81230  0.69130  Biso   1.000  H
  C287     1.0000 0.39010  0.78190  0.62250  Biso   1.000  C
  C288     1.0000 0.87460  0.95560  0.66350  Biso   1.000  C
  C289     1.0000 0.67320  0.95550  0.45460  Biso   1.000  C
  H249     1.0000 0.66970  0.94300  0.48660  Biso   1.000  H
  C290     1.0000 0.68540  0.98940  0.36170  Biso   1.000  C
  H250     1.0000 0.69210  0.00130  0.33000  Biso   1.000  H
  C291     1.0000 0.47760  0.87180  0.32320  Biso   1.000  C
  H251     1.0000 0.44230  0.83010  0.32460  Biso   1.000  H
  H252     1.0000 0.48610  0.89750  0.35390  Biso   1.000  H
  H253     1.0000 0.45260  0.90460  0.29750  Biso   1.000  H
  C292     1.0000 0.94390  0.83170  0.61160  Biso   1.000  C
  H254     1.0000 0.89940  0.81810  0.62570  Biso   1.000  H
  C293     1.0000 0.65420  0.90400  0.41800  Biso   1.000  C
  H255     1.0000 0.63870  0.85660  0.42550  Biso   1.000  H
  C294     1.0000 0.77380  0.83230  0.31180  Biso   1.000  C
  H256     1.0000 0.79140  0.80020  0.28830  Biso   1.000  H
  H257     1.0000 0.79010  0.88210  0.30660  Biso   1.000  H
  H258     1.0000 0.79840  0.81690  0.34430  Biso   1.000  H
  C295     1.0000 0.88670  0.90270  0.70420  Biso   1.000  C
  H259     1.0000 0.94040  0.88120  0.70760  Biso   1.000  H
  H260     1.0000 0.88160  0.92770  0.73390  Biso   1.000  H
  H261     1.0000 0.84600  0.86450  0.69760  Biso   1.000  H
  C296     1.0000 0.66770  0.90490  0.72580  Biso   1.000  C
  H262     1.0000 0.66340  0.93630  0.75310  Biso   1.000  H
  H263     1.0000 0.63110  0.86360  0.72530  Biso   1.000  H
  H264     1.0000 0.72300  0.88730  0.72900  Biso   1.000  H
  Mn9      1.0000 0.25000  0.25000  0.00000  Biso   1.000  Mn
  Mn10     1.0000 0.75000  0.25000  0.50000  Biso   1.000  Mn
  Mn11     1.0000 0.75000  0.75000  0.00000  Biso   1.000  Mn
  Mn12     1.0000 0.25000  0.75000  0.50000  Biso   1.000  Mn
  C297     1.0000 0.00000  0.74630  0.75000  Biso   1.000  C
  C298     1.0000 0.50000  0.24630  0.75000  Biso   1.000  C
  C299     1.0000 0.00000  0.25370  0.25000  Biso   1.000  C
  C300     1.0000 0.50000  0.75370  0.25000  Biso   1.000  C
