data_image0
_cell_length_a       29.5994
_cell_length_b       29.5994
_cell_length_c       52.255
_cell_angle_alpha    90
_cell_angle_beta     90
_cell_angle_gamma    120

_symmetry_space_group_name_H-M    "P 1"
_symmetry_int_tables_number       1

loop_
  _symmetry_equiv_pos_as_xyz
  'x, y, z'

loop_
  _atom_site_label
  _atom_site_occupancy
  _atom_site_fract_x
  _atom_site_fract_y
  _atom_site_fract_z
  _atom_site_thermal_displace_type
  _atom_site_B_iso_or_equiv
  _atom_site_type_symbol
  Cu1      1.0000 0.28871  0.48534  0.38208  Biso   1.000  Cu
  O1       1.0000 0.10680  0.49650  0.56068  Biso   1.000  O
  O2       1.0000 0.06709  0.45334  0.60542  Biso   1.000  O
  O3       1.0000 0.05246  0.51718  0.60893  Biso   1.000  O
  O4       1.0000 0.38080  0.48380  0.53933  Biso   1.000  O
  O5       1.0000 0.32890  0.51850  0.51169  Biso   1.000  O
  O6       1.0000 0.25920  0.43480  0.51539  Biso   1.000  O
  O7       1.0000 0.19910  0.35717  0.66282  Biso   1.000  O
  O8       1.0000 0.28790  0.36760  0.64360  Biso   1.000  O
  O9       1.0000 0.34260  0.40310  0.67510  Biso   1.000  O
  N1       1.0000 0.28210  0.48070  0.42161  Biso   1.000  N
  N2       1.0000 0.32630  0.59660  0.37433  Biso   1.000  N
  N3       1.0000 0.39480  0.19250  0.64672  Biso   1.000  N
  C1       1.0000 0.21580  0.53223  0.61949  Biso   1.000  C
  C2       1.0000 0.16298  0.50085  0.62482  Biso   1.000  C
  H1       1.0000 0.15200  0.48770  0.64160  Biso   1.000  H
  C3       1.0000 0.12629  0.48865  0.60554  Biso   1.000  C
  C4       1.0000 0.14242  0.50784  0.58094  Biso   1.000  C
  C5       1.0000 0.19524  0.53921  0.57561  Biso   1.000  C
  H2       1.0000 0.20630  0.55230  0.55880  Biso   1.000  H
  C6       1.0000 0.23193  0.55141  0.59489  Biso   1.000  C
  C7       1.0000 0.28780  0.58787  0.58834  Biso   1.000  C
  H3       1.0000 0.30650  0.60630  0.60410  Biso   1.000  H
  H4       1.0000 0.28950  0.61440  0.57620  Biso   1.000  H
  C8       1.0000 0.31628  0.56164  0.57649  Biso   1.000  C
  C9       1.0000 0.30965  0.55309  0.55002  Biso   1.000  C
  H5       1.0000 0.29210  0.56640  0.54000  Biso   1.000  H
  C10      1.0000 0.33241  0.52077  0.53783  Biso   1.000  C
  C11      1.0000 0.35722  0.50904  0.55293  Biso   1.000  C
  C12      1.0000 0.36576  0.51879  0.57992  Biso   1.000  C
  H6       1.0000 0.38650  0.50890  0.58970  Biso   1.000  H
  C13      1.0000 0.33946  0.54562  0.59118  Biso   1.000  C
  C14      1.0000 0.34799  0.55146  0.61970  Biso   1.000  C
  H7       1.0000 0.34470  0.58130  0.62580  Biso   1.000  H
  H8       1.0000 0.38360  0.55860  0.62380  Biso   1.000  H
  C15      1.0000 0.30836  0.50215  0.63318  Biso   1.000  C
  C16      1.0000 0.31692  0.46143  0.63614  Biso   1.000  C
  H9       1.0000 0.34940  0.46550  0.63070  Biso   1.000  H
  C17      1.0000 0.28189  0.41627  0.64630  Biso   1.000  C
  C18      1.0000 0.23625  0.40721  0.65391  Biso   1.000  C
  C19      1.0000 0.22316  0.44795  0.65144  Biso   1.000  C
  H10      1.0000 0.18960  0.44240  0.65590  Biso   1.000  H
  C20      1.0000 0.26300  0.49651  0.64205  Biso   1.000  C
  C21      1.0000 0.24588  0.53573  0.64023  Biso   1.000  C
  H11      1.0000 0.22600  0.53320  0.65590  Biso   1.000  H
  H12      1.0000 0.27740  0.57080  0.64010  Biso   1.000  H
  C22      1.0000 0.12063  0.51128  0.53482  Biso   1.000  C
  H13      1.0000 0.14470  0.54900  0.53390  Biso   1.000  H
  H14      1.0000 0.08920  0.50230  0.52490  Biso   1.000  H
  H15      1.0000 0.13760  0.49280  0.52780  Biso   1.000  H
  C23      1.0000 0.03224  0.47231  0.60516  Biso   1.000  C
  C24      1.0000 0.98552  0.43227  0.61149  Biso   1.000  C
  C25      1.0000 0.97432  0.38072  0.61145  Biso   1.000  C
  H16      1.0000 0.00170  0.37300  0.60950  Biso   1.000  H
  C26      1.0000 0.92312  0.34048  0.61427  Biso   1.000  C
  H17      1.0000 0.91550  0.30520  0.61420  Biso   1.000  H
  N4       1.0000 0.88313  0.35178  0.61714  Biso   1.000  N
  C27      1.0000 0.89432  0.40333  0.61718  Biso   1.000  C
  H18      1.0000 0.86700  0.41110  0.61910  Biso   1.000  H
  C28      1.0000 0.94552  0.44357  0.61436  Biso   1.000  C
  H19      1.0000 0.95320  0.47880  0.61440  Biso   1.000  H
  C29      1.0000 0.14362  0.34250  0.66662  Biso   1.000  C
  H20      1.0000 0.14180  0.36800  0.67800  Biso   1.000  H
  H21      1.0000 0.12450  0.30780  0.67440  Biso   1.000  H
  H22      1.0000 0.12790  0.34220  0.65010  Biso   1.000  H
  C30      1.0000 0.31130  0.37140  0.65690  Biso   1.000  C
  C31      1.0000 0.32660  0.32153  0.66085  Biso   1.000  C
  C32      1.0000 0.36320  0.31982  0.67684  Biso   1.000  C
  H23      1.0000 0.38480  0.34880  0.68740  Biso   1.000  H
  C33      1.0000 0.36842  0.27568  0.67732  Biso   1.000  C
  H24      1.0000 0.39350  0.27450  0.68820  Biso   1.000  H
  N5       1.0000 0.33694  0.23323  0.66182  Biso   1.000  N
  C34      1.0000 0.30029  0.23493  0.64583  Biso   1.000  C
  H25      1.0000 0.27880  0.20590  0.63520  Biso   1.000  H
  C35      1.0000 0.29511  0.27908  0.64535  Biso   1.000  C
  H26      1.0000 0.27010  0.28020  0.63440  Biso   1.000  H
  C36      1.0000 0.41042  0.47113  0.55228  Biso   1.000  C
  H27      1.0000 0.43780  0.50210  0.56100  Biso   1.000  H
  H28      1.0000 0.42640  0.45720  0.54060  Biso   1.000  H
  H29      1.0000 0.38930  0.44450  0.56500  Biso   1.000  H
  C37      1.0000 0.29170  0.46555  0.50495  Biso   1.000  C
  C38      1.0000 0.29435  0.47921  0.47472  Biso   1.000  C
  C39      1.0000 0.25244  0.43039  0.46040  Biso   1.000  C
  H30      1.0000 0.22790  0.39860  0.46830  Biso   1.000  H
  C40      1.0000 0.25584  0.43956  0.43515  Biso   1.000  C
  H31      1.0000 0.23430  0.40930  0.42530  Biso   1.000  H
  C41      1.0000 0.31653  0.52882  0.43168  Biso   1.000  C
  H32      1.0000 0.33450  0.55960  0.42170  Biso   1.000  H
  C42      1.0000 0.32254  0.52761  0.45977  Biso   1.000  C
  H33      1.0000 0.34540  0.55920  0.46840  Biso   1.000  H
  C43      1.0000 0.32130  0.55149  0.37503  Biso   1.000  C
  C44      1.0000 0.42800  0.19860  0.63471  Biso   1.000  C
  Cu2      1.0000 0.95538  0.81867  0.71541  Biso   1.000  Cu
  O10      1.0000 0.77347  0.82983  0.89401  Biso   1.000  O
  O11      1.0000 0.73376  0.78667  0.93875  Biso   1.000  O
  O12      1.0000 0.71913  0.85051  0.94226  Biso   1.000  O
  O13      1.0000 0.04747  0.81713  0.87266  Biso   1.000  O
  O14      1.0000 0.99557  0.85183  0.84502  Biso   1.000  O
  O15      1.0000 0.92587  0.76813  0.84872  Biso   1.000  O
  O16      1.0000 0.86577  0.69050  0.99615  Biso   1.000  O
  O17      1.0000 0.95457  0.70093  0.97693  Biso   1.000  O
  O18      1.0000 0.00927  0.73643  0.00843  Biso   1.000  O
  N6       1.0000 0.94877  0.81403  0.75494  Biso   1.000  N
  N7       1.0000 0.99297  0.92993  0.70766  Biso   1.000  N
  N8       1.0000 0.06147  0.52583  0.98005  Biso   1.000  N
  C45      1.0000 0.88247  0.86556  0.95282  Biso   1.000  C
  C46      1.0000 0.82965  0.83418  0.95815  Biso   1.000  C
  H34      1.0000 0.81867  0.82103  0.97493  Biso   1.000  H
  C47      1.0000 0.79296  0.82198  0.93887  Biso   1.000  C
  C48      1.0000 0.80909  0.84117  0.91427  Biso   1.000  C
  C49      1.0000 0.86191  0.87254  0.90894  Biso   1.000  C
  H35      1.0000 0.87297  0.88563  0.89213  Biso   1.000  H
  C50      1.0000 0.89860  0.88474  0.92822  Biso   1.000  C
  C51      1.0000 0.95447  0.92120  0.92167  Biso   1.000  C
  H36      1.0000 0.97317  0.93963  0.93743  Biso   1.000  H
  H37      1.0000 0.95617  0.94773  0.90953  Biso   1.000  H
  C52      1.0000 0.98295  0.89497  0.90982  Biso   1.000  C
  C53      1.0000 0.97632  0.88642  0.88335  Biso   1.000  C
  H38      1.0000 0.95877  0.89973  0.87333  Biso   1.000  H
  C54      1.0000 0.99908  0.85410  0.87116  Biso   1.000  C
  C55      1.0000 0.02389  0.84237  0.88626  Biso   1.000  C
  C56      1.0000 0.03243  0.85212  0.91325  Biso   1.000  C
  H39      1.0000 0.05317  0.84223  0.92303  Biso   1.000  H
  C57      1.0000 0.00613  0.87895  0.92451  Biso   1.000  C
  C58      1.0000 0.01466  0.88479  0.95303  Biso   1.000  C
  H40      1.0000 0.01137  0.91463  0.95913  Biso   1.000  H
  H41      1.0000 0.05027  0.89193  0.95713  Biso   1.000  H
  C59      1.0000 0.97503  0.83548  0.96651  Biso   1.000  C
  C60      1.0000 0.98359  0.79476  0.96947  Biso   1.000  C
  H42      1.0000 0.01607  0.79883  0.96403  Biso   1.000  H
  C61      1.0000 0.94856  0.74960  0.97963  Biso   1.000  C
  C62      1.0000 0.90292  0.74054  0.98724  Biso   1.000  C
  C63      1.0000 0.88983  0.78128  0.98477  Biso   1.000  C
  H43      1.0000 0.85627  0.77573  0.98923  Biso   1.000  H
  C64      1.0000 0.92967  0.82984  0.97538  Biso   1.000  C
  C65      1.0000 0.91255  0.86906  0.97356  Biso   1.000  C
  H44      1.0000 0.89267  0.86653  0.98923  Biso   1.000  H
  H45      1.0000 0.94407  0.90413  0.97343  Biso   1.000  H
  C66      1.0000 0.78730  0.84461  0.86815  Biso   1.000  C
  H46      1.0000 0.81137  0.88233  0.86723  Biso   1.000  H
  H47      1.0000 0.75587  0.83563  0.85823  Biso   1.000  H
  H48      1.0000 0.80427  0.82613  0.86113  Biso   1.000  H
  C67      1.0000 0.69891  0.80564  0.93849  Biso   1.000  C
  C68      1.0000 0.65219  0.76560  0.94482  Biso   1.000  C
  C69      1.0000 0.64099  0.71405  0.94478  Biso   1.000  C
  H49      1.0000 0.66837  0.70633  0.94283  Biso   1.000  H
  C70      1.0000 0.58979  0.67381  0.94760  Biso   1.000  C
  H50      1.0000 0.58217  0.63853  0.94753  Biso   1.000  H
  N9       1.0000 0.54980  0.68511  0.95047  Biso   1.000  N
  C71      1.0000 0.56099  0.73666  0.95051  Biso   1.000  C
  H51      1.0000 0.53367  0.74443  0.95243  Biso   1.000  H
  C72      1.0000 0.61219  0.77690  0.94769  Biso   1.000  C
  H52      1.0000 0.61987  0.81213  0.94773  Biso   1.000  H
  C73      1.0000 0.81029  0.67583  0.99995  Biso   1.000  C
  H53      1.0000 0.80847  0.70133  0.01133  Biso   1.000  H
  H54      1.0000 0.79117  0.64113  0.00773  Biso   1.000  H
  H55      1.0000 0.79457  0.67553  0.98343  Biso   1.000  H
  C74      1.0000 0.97797  0.70473  0.99023  Biso   1.000  C
  C75      1.0000 0.99327  0.65486  0.99418  Biso   1.000  C
  C76      1.0000 0.02987  0.65315  0.01017  Biso   1.000  C
  H56      1.0000 0.05147  0.68213  0.02073  Biso   1.000  H
  C77      1.0000 0.03509  0.60901  0.01065  Biso   1.000  C
  H57      1.0000 0.06017  0.60783  0.02153  Biso   1.000  H
  N10      1.0000 0.00361  0.56656  0.99515  Biso   1.000  N
  C78      1.0000 0.96696  0.56826  0.97916  Biso   1.000  C
  H58      1.0000 0.94547  0.53923  0.96853  Biso   1.000  H
  C79      1.0000 0.96178  0.61241  0.97868  Biso   1.000  C
  H59      1.0000 0.93677  0.61353  0.96773  Biso   1.000  H
  C80      1.0000 0.07709  0.80446  0.88561  Biso   1.000  C
  H60      1.0000 0.10447  0.83543  0.89433  Biso   1.000  H
  H61      1.0000 0.09307  0.79053  0.87393  Biso   1.000  H
  H62      1.0000 0.05597  0.77783  0.89833  Biso   1.000  H
  C81      1.0000 0.95837  0.79888  0.83828  Biso   1.000  C
  C82      1.0000 0.96102  0.81254  0.80805  Biso   1.000  C
  C83      1.0000 0.91911  0.76372  0.79373  Biso   1.000  C
  H63      1.0000 0.89457  0.73193  0.80163  Biso   1.000  H
  C84      1.0000 0.92251  0.77289  0.76848  Biso   1.000  C
  H64      1.0000 0.90097  0.74263  0.75863  Biso   1.000  H
  C85      1.0000 0.98320  0.86215  0.76501  Biso   1.000  C
  H65      1.0000 0.00117  0.89293  0.75503  Biso   1.000  H
  C86      1.0000 0.98921  0.86094  0.79310  Biso   1.000  C
  H66      1.0000 0.01207  0.89253  0.80173  Biso   1.000  H
  C87      1.0000 0.98797  0.88482  0.70836  Biso   1.000  C
  C88      1.0000 0.09467  0.53193  0.96804  Biso   1.000  C
  Cu3      1.0000 0.62204  0.15201  0.04875  Biso   1.000  Cu
  O19      1.0000 0.44013  0.16317  0.22735  Biso   1.000  O
  O20      1.0000 0.40042  0.12001  0.27209  Biso   1.000  O
  O21      1.0000 0.38579  0.18385  0.27560  Biso   1.000  O
  O22      1.0000 0.71413  0.15047  0.20600  Biso   1.000  O
  O23      1.0000 0.66223  0.18517  0.17836  Biso   1.000  O
  O24      1.0000 0.59253  0.10147  0.18206  Biso   1.000  O
  O25      1.0000 0.53243  0.02384  0.32949  Biso   1.000  O
  O26      1.0000 0.62123  0.03427  0.31027  Biso   1.000  O
  O27      1.0000 0.67593  0.06977  0.34177  Biso   1.000  O
  N11      1.0000 0.61543  0.14737  0.08828  Biso   1.000  N
  N12      1.0000 0.65963  0.26327  0.04100  Biso   1.000  N
  N13      1.0000 0.72813  0.85917  0.31339  Biso   1.000  N
  C89      1.0000 0.54913  0.19890  0.28616  Biso   1.000  C
  C90      1.0000 0.49631  0.16752  0.29149  Biso   1.000  C
  H67      1.0000 0.48533  0.15437  0.30827  Biso   1.000  H
  C91      1.0000 0.45962  0.15532  0.27221  Biso   1.000  C
  C92      1.0000 0.47575  0.17451  0.24761  Biso   1.000  C
  C93      1.0000 0.52857  0.20588  0.24228  Biso   1.000  C
  H68      1.0000 0.53963  0.21897  0.22547  Biso   1.000  H
  C94      1.0000 0.56526  0.21808  0.26156  Biso   1.000  C
  C95      1.0000 0.62113  0.25454  0.25501  Biso   1.000  C
  H69      1.0000 0.63983  0.27297  0.27077  Biso   1.000  H
  H70      1.0000 0.62283  0.28107  0.24287  Biso   1.000  H
  C96      1.0000 0.64961  0.22831  0.24316  Biso   1.000  C
  C97      1.0000 0.64298  0.21976  0.21669  Biso   1.000  C
  H71      1.0000 0.62543  0.23307  0.20667  Biso   1.000  H
  C98      1.0000 0.66574  0.18744  0.20450  Biso   1.000  C
  C99      1.0000 0.69055  0.17571  0.21960  Biso   1.000  C
  C100     1.0000 0.69909  0.18546  0.24659  Biso   1.000  C
  H72      1.0000 0.71983  0.17557  0.25637  Biso   1.000  H
  C101     1.0000 0.67279  0.21229  0.25785  Biso   1.000  C
  C102     1.0000 0.68132  0.21813  0.28637  Biso   1.000  C
  H73      1.0000 0.67803  0.24797  0.29247  Biso   1.000  H
  H74      1.0000 0.71693  0.22527  0.29047  Biso   1.000  H
  C103     1.0000 0.64169  0.16882  0.29985  Biso   1.000  C
  C104     1.0000 0.65025  0.12810  0.30281  Biso   1.000  C
  H75      1.0000 0.68273  0.13217  0.29737  Biso   1.000  H
  C105     1.0000 0.61522  0.08294  0.31297  Biso   1.000  C
  C106     1.0000 0.56958  0.07388  0.32058  Biso   1.000  C
  C107     1.0000 0.55649  0.11462  0.31811  Biso   1.000  C
  H76      1.0000 0.52293  0.10907  0.32257  Biso   1.000  H
  C108     1.0000 0.59633  0.16318  0.30872  Biso   1.000  C
  C109     1.0000 0.57921  0.20240  0.30690  Biso   1.000  C
  H77      1.0000 0.55933  0.19987  0.32257  Biso   1.000  H
  H78      1.0000 0.61073  0.23747  0.30677  Biso   1.000  H
  C110     1.0000 0.45396  0.17795  0.20149  Biso   1.000  C
  H79      1.0000 0.47803  0.21567  0.20057  Biso   1.000  H
  H80      1.0000 0.42253  0.16897  0.19157  Biso   1.000  H
  H81      1.0000 0.47093  0.15947  0.19447  Biso   1.000  H
  C111     1.0000 0.36557  0.13898  0.27183  Biso   1.000  C
  C112     1.0000 0.31885  0.09894  0.27816  Biso   1.000  C
  C113     1.0000 0.30765  0.04739  0.27812  Biso   1.000  C
  H82      1.0000 0.33503  0.03967  0.27617  Biso   1.000  H
  C114     1.0000 0.25645  0.00715  0.28094  Biso   1.000  C
  H83      1.0000 0.24883  0.97187  0.28087  Biso   1.000  H
  N14      1.0000 0.21646  0.01845  0.28381  Biso   1.000  N
  C115     1.0000 0.22765  0.07000  0.28385  Biso   1.000  C
  H84      1.0000 0.20033  0.07777  0.28577  Biso   1.000  H
  C116     1.0000 0.27885  0.11024  0.28103  Biso   1.000  C
  H85      1.0000 0.28653  0.14547  0.28107  Biso   1.000  H
  C117     1.0000 0.47695  0.00917  0.33329  Biso   1.000  C
  H86      1.0000 0.47513  0.03467  0.34467  Biso   1.000  H
  H87      1.0000 0.45783  0.97447  0.34107  Biso   1.000  H
  H88      1.0000 0.46123  0.00887  0.31677  Biso   1.000  H
  C118     1.0000 0.64463  0.03807  0.32357  Biso   1.000  C
  C119     1.0000 0.65993  0.98820  0.32752  Biso   1.000  C
  C120     1.0000 0.69653  0.98649  0.34351  Biso   1.000  C
  H89      1.0000 0.71813  0.01547  0.35407  Biso   1.000  H
  C121     1.0000 0.70175  0.94235  0.34399  Biso   1.000  C
  H90      1.0000 0.72683  0.94117  0.35487  Biso   1.000  H
  N15      1.0000 0.67027  0.89990  0.32849  Biso   1.000  N
  C122     1.0000 0.63362  0.90160  0.31250  Biso   1.000  C
  H91      1.0000 0.61213  0.87257  0.30187  Biso   1.000  H
  C123     1.0000 0.62844  0.94575  0.31202  Biso   1.000  C
  H92      1.0000 0.60343  0.94687  0.30107  Biso   1.000  H
  C124     1.0000 0.74375  0.13780  0.21895  Biso   1.000  C
  H93      1.0000 0.77113  0.16877  0.22767  Biso   1.000  H
  H94      1.0000 0.75973  0.12387  0.20727  Biso   1.000  H
  H95      1.0000 0.72263  0.11117  0.23167  Biso   1.000  H
  C125     1.0000 0.62503  0.13222  0.17162  Biso   1.000  C
  C126     1.0000 0.62768  0.14588  0.14139  Biso   1.000  C
  C127     1.0000 0.58577  0.09706  0.12707  Biso   1.000  C
  H96      1.0000 0.56123  0.06527  0.13497  Biso   1.000  H
  C128     1.0000 0.58917  0.10623  0.10182  Biso   1.000  C
  H97      1.0000 0.56763  0.07597  0.09197  Biso   1.000  H
  C129     1.0000 0.64986  0.19549  0.09835  Biso   1.000  C
  H98      1.0000 0.66783  0.22627  0.08837  Biso   1.000  H
  C130     1.0000 0.65587  0.19428  0.12644  Biso   1.000  C
  H99      1.0000 0.67873  0.22587  0.13507  Biso   1.000  H
  C131     1.0000 0.65463  0.21816  0.04170  Biso   1.000  C
  C132     1.0000 0.76133  0.86527  0.30138  Biso   1.000  C
  Cu4      1.0000 0.51466  0.80337  0.38208  Biso   1.000  Cu
  O28      1.0000 0.50350  0.61030  0.56068  Biso   1.000  O
  O29      1.0000 0.54666  0.61375  0.60542  Biso   1.000  O
  O30      1.0000 0.48282  0.53528  0.60893  Biso   1.000  O
  O31      1.0000 0.51620  0.89700  0.53933  Biso   1.000  O
  O32      1.0000 0.48150  0.81040  0.51169  Biso   1.000  O
  O33      1.0000 0.56520  0.82440  0.51539  Biso   1.000  O
  O34      1.0000 0.64283  0.84193  0.66282  Biso   1.000  O
  O35      1.0000 0.63240  0.92030  0.64360  Biso   1.000  O
  O36      1.0000 0.59690  0.93950  0.67510  Biso   1.000  O
  N16      1.0000 0.51930  0.80140  0.42161  Biso   1.000  N
  N17      1.0000 0.40340  0.72970  0.37433  Biso   1.000  N
  N18      1.0000 0.80750  0.20230  0.64672  Biso   1.000  N
  C133     1.0000 0.46777  0.68357  0.61949  Biso   1.000  C
  C134     1.0000 0.49915  0.66213  0.62482  Biso   1.000  C
  H100     1.0000 0.51230  0.66430  0.64160  Biso   1.000  H
  C135     1.0000 0.51135  0.63764  0.60554  Biso   1.000  C
  C136     1.0000 0.49216  0.63458  0.58094  Biso   1.000  C
  C137     1.0000 0.46079  0.65603  0.57561  Biso   1.000  C
  H101     1.0000 0.44770  0.65400  0.55880  Biso   1.000  H
  C138     1.0000 0.44859  0.68052  0.59489  Biso   1.000  C
  C139     1.0000 0.41213  0.69993  0.58834  Biso   1.000  C
  H102     1.0000 0.39370  0.70020  0.60410  Biso   1.000  H
  H103     1.0000 0.38560  0.67510  0.57620  Biso   1.000  H
  C140     1.0000 0.43836  0.75464  0.57649  Biso   1.000  C
  C141     1.0000 0.44691  0.75656  0.55002  Biso   1.000  C
  H104     1.0000 0.43360  0.72570  0.54000  Biso   1.000  H
  C142     1.0000 0.47923  0.81164  0.53783  Biso   1.000  C
  C143     1.0000 0.49096  0.84818  0.55293  Biso   1.000  C
  C144     1.0000 0.48121  0.84697  0.57992  Biso   1.000  C
  H105     1.0000 0.49110  0.87760  0.58970  Biso   1.000  H
  C145     1.0000 0.45438  0.79384  0.59118  Biso   1.000  C
  C146     1.0000 0.44854  0.79653  0.61970  Biso   1.000  C
  H106     1.0000 0.41870  0.76340  0.62580  Biso   1.000  H
  H107     1.0000 0.44140  0.82500  0.62380  Biso   1.000  H
  C147     1.0000 0.49785  0.80621  0.63318  Biso   1.000  C
  C148     1.0000 0.53857  0.85549  0.63614  Biso   1.000  C
  H108     1.0000 0.53450  0.88390  0.63070  Biso   1.000  H
  C149     1.0000 0.58373  0.86562  0.64630  Biso   1.000  C
  C150     1.0000 0.59279  0.82904  0.65391  Biso   1.000  C
  C151     1.0000 0.55205  0.77521  0.65144  Biso   1.000  C
  H109     1.0000 0.55760  0.74720  0.65590  Biso   1.000  H
  C152     1.0000 0.50349  0.76649  0.64205  Biso   1.000  C
  C153     1.0000 0.46427  0.71015  0.64023  Biso   1.000  C
  H110     1.0000 0.46680  0.69280  0.65590  Biso   1.000  H
  H111     1.0000 0.42920  0.70660  0.64010  Biso   1.000  H
  C154     1.0000 0.48872  0.60935  0.53482  Biso   1.000  C
  H112     1.0000 0.45100  0.59570  0.53390  Biso   1.000  H
  H113     1.0000 0.49770  0.58690  0.52490  Biso   1.000  H
  H114     1.0000 0.50720  0.64480  0.52780  Biso   1.000  H
  C155     1.0000 0.52769  0.55993  0.60516  Biso   1.000  C
  C156     1.0000 0.56773  0.55325  0.61149  Biso   1.000  C
  C157     1.0000 0.61928  0.59360  0.61145  Biso   1.000  C
  H115     1.0000 0.62700  0.62870  0.60950  Biso   1.000  H
  C158     1.0000 0.65952  0.58264  0.61427  Biso   1.000  C
  H116     1.0000 0.69480  0.61030  0.61420  Biso   1.000  H
  N19      1.0000 0.64822  0.53135  0.61714  Biso   1.000  N
  C159     1.0000 0.59667  0.49099  0.61718  Biso   1.000  C
  H117     1.0000 0.58890  0.45590  0.61910  Biso   1.000  H
  C160     1.0000 0.55643  0.50195  0.61436  Biso   1.000  C
  H118     1.0000 0.52120  0.47440  0.61440  Biso   1.000  H
  C161     1.0000 0.65750  0.80112  0.66662  Biso   1.000  C
  H119     1.0000 0.63200  0.77380  0.67800  Biso   1.000  H
  H120     1.0000 0.69220  0.81670  0.67440  Biso   1.000  H
  H121     1.0000 0.65780  0.78570  0.65010  Biso   1.000  H
  C162     1.0000 0.62860  0.93990  0.65690  Biso   1.000  C
  C163     1.0000 0.67847  0.00507  0.66085  Biso   1.000  C
  C164     1.0000 0.68018  0.04338  0.67684  Biso   1.000  C
  H122     1.0000 0.65120  0.03600  0.68740  Biso   1.000  H
  C165     1.0000 0.72432  0.09274  0.67732  Biso   1.000  C
  H123     1.0000 0.72550  0.11900  0.68820  Biso   1.000  H
  N20      1.0000 0.76677  0.10371  0.66182  Biso   1.000  N
  C166     1.0000 0.76507  0.06536  0.64583  Biso   1.000  C
  H124     1.0000 0.79410  0.07290  0.63520  Biso   1.000  H
  C167     1.0000 0.72092  0.01603  0.64535  Biso   1.000  C
  H125     1.0000 0.71980  0.98990  0.63440  Biso   1.000  H
  C168     1.0000 0.52887  0.93929  0.55228  Biso   1.000  C
  H126     1.0000 0.49790  0.93570  0.56100  Biso   1.000  H
  H127     1.0000 0.54280  0.96920  0.54060  Biso   1.000  H
  H128     1.0000 0.55550  0.94480  0.56500  Biso   1.000  H
  C169     1.0000 0.53445  0.82615  0.50495  Biso   1.000  C
  C170     1.0000 0.52079  0.81514  0.47472  Biso   1.000  C
  C171     1.0000 0.56961  0.82205  0.46040  Biso   1.000  C
  H129     1.0000 0.60140  0.82930  0.46830  Biso   1.000  H
  C172     1.0000 0.56044  0.81628  0.43515  Biso   1.000  C
  H130     1.0000 0.59070  0.82500  0.42530  Biso   1.000  H
  C173     1.0000 0.47118  0.78771  0.43168  Biso   1.000  C
  H131     1.0000 0.44040  0.77490  0.42170  Biso   1.000  H
  C174     1.0000 0.47239  0.79493  0.45977  Biso   1.000  C
  H132     1.0000 0.44080  0.78620  0.46840  Biso   1.000  H
  C175     1.0000 0.44851  0.76981  0.37503  Biso   1.000  C
  C176     1.0000 0.80140  0.22940  0.63471  Biso   1.000  C
  Cu5      1.0000 0.18133  0.13670  0.71541  Biso   1.000  Cu
  O37      1.0000 0.17017  0.94363  0.89401  Biso   1.000  O
  O38      1.0000 0.21333  0.94708  0.93875  Biso   1.000  O
  O39      1.0000 0.14949  0.86861  0.94226  Biso   1.000  O
  O40      1.0000 0.18287  0.23033  0.87266  Biso   1.000  O
  O41      1.0000 0.14817  0.14373  0.84502  Biso   1.000  O
  O42      1.0000 0.23187  0.15773  0.84872  Biso   1.000  O
  O43      1.0000 0.30950  0.17526  0.99615  Biso   1.000  O
  O44      1.0000 0.29907  0.25363  0.97693  Biso   1.000  O
  O45      1.0000 0.26357  0.27283  0.00843  Biso   1.000  O
  N21      1.0000 0.18597  0.13473  0.75494  Biso   1.000  N
  N22      1.0000 0.07007  0.06303  0.70766  Biso   1.000  N
  N23      1.0000 0.47417  0.53563  0.98005  Biso   1.000  N
  C177     1.0000 0.13444  0.01690  0.95282  Biso   1.000  C
  C178     1.0000 0.16582  0.99546  0.95815  Biso   1.000  C
  H133     1.0000 0.17897  0.99763  0.97493  Biso   1.000  H
  C179     1.0000 0.17802  0.97097  0.93887  Biso   1.000  C
  C180     1.0000 0.15883  0.96791  0.91427  Biso   1.000  C
  C181     1.0000 0.12746  0.98936  0.90894  Biso   1.000  C
  H134     1.0000 0.11437  0.98733  0.89213  Biso   1.000  H
  C182     1.0000 0.11526  0.01385  0.92822  Biso   1.000  C
  C183     1.0000 0.07880  0.03326  0.92167  Biso   1.000  C
  H135     1.0000 0.06037  0.03353  0.93743  Biso   1.000  H
  H136     1.0000 0.05227  0.00843  0.90953  Biso   1.000  H
  C184     1.0000 0.10503  0.08797  0.90982  Biso   1.000  C
  C185     1.0000 0.11358  0.08989  0.88335  Biso   1.000  C
  H137     1.0000 0.10027  0.05903  0.87333  Biso   1.000  H
  C186     1.0000 0.14590  0.14497  0.87116  Biso   1.000  C
  C187     1.0000 0.15763  0.18151  0.88626  Biso   1.000  C
  C188     1.0000 0.14788  0.18030  0.91325  Biso   1.000  C
  H138     1.0000 0.15777  0.21093  0.92303  Biso   1.000  H
  C189     1.0000 0.12105  0.12717  0.92451  Biso   1.000  C
  C190     1.0000 0.11521  0.12986  0.95303  Biso   1.000  C
  H139     1.0000 0.08537  0.09673  0.95913  Biso   1.000  H
  H140     1.0000 0.10807  0.15833  0.95713  Biso   1.000  H
  C191     1.0000 0.16452  0.13954  0.96651  Biso   1.000  C
  C192     1.0000 0.20524  0.18882  0.96947  Biso   1.000  C
  H141     1.0000 0.20117  0.21723  0.96403  Biso   1.000  H
  C193     1.0000 0.25040  0.19895  0.97963  Biso   1.000  C
  C194     1.0000 0.25946  0.16237  0.98724  Biso   1.000  C
  C195     1.0000 0.21872  0.10854  0.98477  Biso   1.000  C
  H142     1.0000 0.22427  0.08053  0.98923  Biso   1.000  H
  C196     1.0000 0.17016  0.09982  0.97538  Biso   1.000  C
  C197     1.0000 0.13094  0.04348  0.97356  Biso   1.000  C
  H143     1.0000 0.13347  0.02613  0.98923  Biso   1.000  H
  H144     1.0000 0.09587  0.03993  0.97343  Biso   1.000  H
  C198     1.0000 0.15539  0.94268  0.86815  Biso   1.000  C
  H145     1.0000 0.11767  0.92903  0.86723  Biso   1.000  H
  H146     1.0000 0.16437  0.92023  0.85823  Biso   1.000  H
  H147     1.0000 0.17387  0.97813  0.86113  Biso   1.000  H
  C199     1.0000 0.19436  0.89326  0.93849  Biso   1.000  C
  C200     1.0000 0.23440  0.88658  0.94482  Biso   1.000  C
  C201     1.0000 0.28595  0.92693  0.94478  Biso   1.000  C
  H148     1.0000 0.29367  0.96203  0.94283  Biso   1.000  H
  C202     1.0000 0.32619  0.91597  0.94760  Biso   1.000  C
  H149     1.0000 0.36147  0.94363  0.94753  Biso   1.000  H
  N24      1.0000 0.31489  0.86468  0.95047  Biso   1.000  N
  C203     1.0000 0.26334  0.82432  0.95051  Biso   1.000  C
  H150     1.0000 0.25557  0.78923  0.95243  Biso   1.000  H
  C204     1.0000 0.22310  0.83528  0.94769  Biso   1.000  C
  H151     1.0000 0.18787  0.80773  0.94773  Biso   1.000  H
  C205     1.0000 0.32417  0.13445  0.99995  Biso   1.000  C
  H152     1.0000 0.29867  0.10713  0.01133  Biso   1.000  H
  H153     1.0000 0.35887  0.15003  0.00773  Biso   1.000  H
  H154     1.0000 0.32447  0.11903  0.98343  Biso   1.000  H
  C206     1.0000 0.29527  0.27323  0.99023  Biso   1.000  C
  C207     1.0000 0.34514  0.33840  0.99418  Biso   1.000  C
  C208     1.0000 0.34685  0.37671  0.01017  Biso   1.000  C
  H155     1.0000 0.31787  0.36933  0.02073  Biso   1.000  H
  C209     1.0000 0.39099  0.42607  0.01065  Biso   1.000  C
  H156     1.0000 0.39217  0.45233  0.02153  Biso   1.000  H
  N25      1.0000 0.43344  0.43704  0.99515  Biso   1.000  N
  C210     1.0000 0.43174  0.39869  0.97916  Biso   1.000  C
  H157     1.0000 0.46077  0.40623  0.96853  Biso   1.000  H
  C211     1.0000 0.38759  0.34936  0.97868  Biso   1.000  C
  H158     1.0000 0.38647  0.32323  0.96773  Biso   1.000  H
  C212     1.0000 0.19554  0.27262  0.88561  Biso   1.000  C
  H159     1.0000 0.16457  0.26903  0.89433  Biso   1.000  H
  H160     1.0000 0.20947  0.30253  0.87393  Biso   1.000  H
  H161     1.0000 0.22217  0.27813  0.89833  Biso   1.000  H
  C213     1.0000 0.20112  0.15948  0.83828  Biso   1.000  C
  C214     1.0000 0.18746  0.14847  0.80805  Biso   1.000  C
  C215     1.0000 0.23628  0.15538  0.79373  Biso   1.000  C
  H162     1.0000 0.26807  0.16263  0.80163  Biso   1.000  H
  C216     1.0000 0.22711  0.14961  0.76848  Biso   1.000  C
  H163     1.0000 0.25737  0.15833  0.75863  Biso   1.000  H
  C217     1.0000 0.13785  0.12104  0.76501  Biso   1.000  C
  H164     1.0000 0.10707  0.10823  0.75503  Biso   1.000  H
  C218     1.0000 0.13906  0.12826  0.79310  Biso   1.000  C
  H165     1.0000 0.10747  0.11953  0.80173  Biso   1.000  H
  C219     1.0000 0.11518  0.10314  0.70836  Biso   1.000  C
  C220     1.0000 0.46807  0.56273  0.96804  Biso   1.000  C
  Cu6      1.0000 0.84799  0.47004  0.04875  Biso   1.000  Cu
  O46      1.0000 0.83683  0.27697  0.22735  Biso   1.000  O
  O47      1.0000 0.87999  0.28042  0.27209  Biso   1.000  O
  O48      1.0000 0.81615  0.20195  0.27560  Biso   1.000  O
  O49      1.0000 0.84953  0.56367  0.20600  Biso   1.000  O
  O50      1.0000 0.81483  0.47707  0.17836  Biso   1.000  O
  O51      1.0000 0.89853  0.49107  0.18206  Biso   1.000  O
  O52      1.0000 0.97616  0.50860  0.32949  Biso   1.000  O
  O53      1.0000 0.96573  0.58697  0.31027  Biso   1.000  O
  O54      1.0000 0.93023  0.60617  0.34177  Biso   1.000  O
  N26      1.0000 0.85263  0.46807  0.08828  Biso   1.000  N
  N27      1.0000 0.73673  0.39637  0.04100  Biso   1.000  N
  N28      1.0000 0.14083  0.86897  0.31339  Biso   1.000  N
  C221     1.0000 0.80110  0.35024  0.28616  Biso   1.000  C
  C222     1.0000 0.83248  0.32880  0.29149  Biso   1.000  C
  H166     1.0000 0.84563  0.33097  0.30827  Biso   1.000  H
  C223     1.0000 0.84468  0.30431  0.27221  Biso   1.000  C
  C224     1.0000 0.82549  0.30125  0.24761  Biso   1.000  C
  C225     1.0000 0.79412  0.32270  0.24228  Biso   1.000  C
  H167     1.0000 0.78103  0.32067  0.22547  Biso   1.000  H
  C226     1.0000 0.78192  0.34719  0.26156  Biso   1.000  C
  C227     1.0000 0.74546  0.36660  0.25501  Biso   1.000  C
  H168     1.0000 0.72703  0.36687  0.27077  Biso   1.000  H
  H169     1.0000 0.71893  0.34177  0.24287  Biso   1.000  H
  C228     1.0000 0.77169  0.42131  0.24316  Biso   1.000  C
  C229     1.0000 0.78024  0.42323  0.21669  Biso   1.000  C
  H170     1.0000 0.76693  0.39237  0.20667  Biso   1.000  H
  C230     1.0000 0.81256  0.47831  0.20450  Biso   1.000  C
  C231     1.0000 0.82429  0.51485  0.21960  Biso   1.000  C
  C232     1.0000 0.81454  0.51364  0.24659  Biso   1.000  C
  H171     1.0000 0.82443  0.54427  0.25637  Biso   1.000  H
  C233     1.0000 0.78771  0.46051  0.25785  Biso   1.000  C
  C234     1.0000 0.78187  0.46320  0.28637  Biso   1.000  C
  H172     1.0000 0.75203  0.43007  0.29247  Biso   1.000  H
  H173     1.0000 0.77473  0.49167  0.29047  Biso   1.000  H
  C235     1.0000 0.83118  0.47288  0.29985  Biso   1.000  C
  C236     1.0000 0.87190  0.52216  0.30281  Biso   1.000  C
  H174     1.0000 0.86783  0.55057  0.29737  Biso   1.000  H
  C237     1.0000 0.91706  0.53229  0.31297  Biso   1.000  C
  C238     1.0000 0.92612  0.49571  0.32058  Biso   1.000  C
  C239     1.0000 0.88538  0.44188  0.31811  Biso   1.000  C
  H175     1.0000 0.89093  0.41387  0.32257  Biso   1.000  H
  C240     1.0000 0.83682  0.43316  0.30872  Biso   1.000  C
  C241     1.0000 0.79760  0.37682  0.30690  Biso   1.000  C
  H176     1.0000 0.80013  0.35947  0.32257  Biso   1.000  H
  H177     1.0000 0.76253  0.37327  0.30677  Biso   1.000  H
  C242     1.0000 0.82205  0.27602  0.20149  Biso   1.000  C
  H178     1.0000 0.78433  0.26237  0.20057  Biso   1.000  H
  H179     1.0000 0.83103  0.25357  0.19157  Biso   1.000  H
  H180     1.0000 0.84053  0.31147  0.19447  Biso   1.000  H
  C243     1.0000 0.86102  0.22660  0.27183  Biso   1.000  C
  C244     1.0000 0.90106  0.21992  0.27816  Biso   1.000  C
  C245     1.0000 0.95261  0.26027  0.27812  Biso   1.000  C
  H181     1.0000 0.96033  0.29537  0.27617  Biso   1.000  H
  C246     1.0000 0.99285  0.24931  0.28094  Biso   1.000  C
  H182     1.0000 0.02813  0.27697  0.28087  Biso   1.000  H
  N29      1.0000 0.98155  0.19802  0.28381  Biso   1.000  N
  C247     1.0000 0.93000  0.15766  0.28385  Biso   1.000  C
  H183     1.0000 0.92223  0.12257  0.28577  Biso   1.000  H
  C248     1.0000 0.88976  0.16862  0.28103  Biso   1.000  C
  H184     1.0000 0.85453  0.14107  0.28107  Biso   1.000  H
  C249     1.0000 0.99083  0.46779  0.33329  Biso   1.000  C
  H185     1.0000 0.96533  0.44047  0.34467  Biso   1.000  H
  H186     1.0000 0.02553  0.48337  0.34107  Biso   1.000  H
  H187     1.0000 0.99113  0.45237  0.31677  Biso   1.000  H
  C250     1.0000 0.96193  0.60657  0.32357  Biso   1.000  C
  C251     1.0000 0.01180  0.67174  0.32752  Biso   1.000  C
  C252     1.0000 0.01351  0.71005  0.34351  Biso   1.000  C
  H188     1.0000 0.98453  0.70267  0.35407  Biso   1.000  H
  C253     1.0000 0.05765  0.75941  0.34399  Biso   1.000  C
  H189     1.0000 0.05883  0.78567  0.35487  Biso   1.000  H
  N30      1.0000 0.10010  0.77038  0.32849  Biso   1.000  N
  C254     1.0000 0.09840  0.73203  0.31250  Biso   1.000  C
  H190     1.0000 0.12743  0.73957  0.30187  Biso   1.000  H
  C255     1.0000 0.05425  0.68270  0.31202  Biso   1.000  C
  H191     1.0000 0.05313  0.65657  0.30107  Biso   1.000  H
  C256     1.0000 0.86220  0.60596  0.21895  Biso   1.000  C
  H192     1.0000 0.83123  0.60237  0.22767  Biso   1.000  H
  H193     1.0000 0.87613  0.63587  0.20727  Biso   1.000  H
  H194     1.0000 0.88883  0.61147  0.23167  Biso   1.000  H
  C257     1.0000 0.86778  0.49282  0.17162  Biso   1.000  C
  C258     1.0000 0.85412  0.48181  0.14139  Biso   1.000  C
  C259     1.0000 0.90294  0.48872  0.12707  Biso   1.000  C
  H195     1.0000 0.93473  0.49597  0.13497  Biso   1.000  H
  C260     1.0000 0.89377  0.48295  0.10182  Biso   1.000  C
  H196     1.0000 0.92403  0.49167  0.09197  Biso   1.000  H
  C261     1.0000 0.80451  0.45438  0.09835  Biso   1.000  C
  H197     1.0000 0.77373  0.44157  0.08837  Biso   1.000  H
  C262     1.0000 0.80572  0.46160  0.12644  Biso   1.000  C
  H198     1.0000 0.77413  0.45287  0.13507  Biso   1.000  H
  C263     1.0000 0.78184  0.43648  0.04170  Biso   1.000  C
  C264     1.0000 0.13473  0.89607  0.30138  Biso   1.000  C
  Cu7      1.0000 0.19663  0.71129  0.38208  Biso   1.000  Cu
  O55      1.0000 0.38970  0.89320  0.56068  Biso   1.000  O
  O56      1.0000 0.38625  0.93291  0.60542  Biso   1.000  O
  O57      1.0000 0.46472  0.94754  0.60893  Biso   1.000  O
  O58      1.0000 0.10300  0.61920  0.53933  Biso   1.000  O
  O59      1.0000 0.18960  0.67110  0.51169  Biso   1.000  O
  O60      1.0000 0.17560  0.74080  0.51539  Biso   1.000  O
  O61      1.0000 0.15807  0.80090  0.66282  Biso   1.000  O
  O62      1.0000 0.07970  0.71210  0.64360  Biso   1.000  O
  O63      1.0000 0.06050  0.65740  0.67510  Biso   1.000  O
  N31      1.0000 0.19860  0.71790  0.42161  Biso   1.000  N
  N32      1.0000 0.27030  0.67370  0.37433  Biso   1.000  N
  N33      1.0000 0.79770  0.60520  0.64672  Biso   1.000  N
  C265     1.0000 0.31643  0.78420  0.61949  Biso   1.000  C
  C266     1.0000 0.33787  0.83702  0.62482  Biso   1.000  C
  H199     1.0000 0.33570  0.84800  0.64160  Biso   1.000  H
  C267     1.0000 0.36236  0.87371  0.60554  Biso   1.000  C
  C268     1.0000 0.36542  0.85758  0.58094  Biso   1.000  C
  C269     1.0000 0.34397  0.80476  0.57561  Biso   1.000  C
  H200     1.0000 0.34600  0.79370  0.55880  Biso   1.000  H
  C270     1.0000 0.31948  0.76807  0.59489  Biso   1.000  C
  C271     1.0000 0.30007  0.71220  0.58834  Biso   1.000  C
  H201     1.0000 0.29980  0.69350  0.60410  Biso   1.000  H
  H202     1.0000 0.32490  0.71050  0.57620  Biso   1.000  H
  C272     1.0000 0.24536  0.68372  0.57649  Biso   1.000  C
  C273     1.0000 0.24344  0.69035  0.55002  Biso   1.000  C
  H203     1.0000 0.27430  0.70790  0.54000  Biso   1.000  H
  C274     1.0000 0.18836  0.66759  0.53783  Biso   1.000  C
  C275     1.0000 0.15182  0.64278  0.55293  Biso   1.000  C
  C276     1.0000 0.15303  0.63424  0.57992  Biso   1.000  C
  H204     1.0000 0.12240  0.61350  0.58970  Biso   1.000  H
  C277     1.0000 0.20616  0.66054  0.59118  Biso   1.000  C
  C278     1.0000 0.20347  0.65201  0.61970  Biso   1.000  C
  H205     1.0000 0.23660  0.65530  0.62580  Biso   1.000  H
  H206     1.0000 0.17500  0.61640  0.62380  Biso   1.000  H
  C279     1.0000 0.19379  0.69164  0.63318  Biso   1.000  C
  C280     1.0000 0.14451  0.68308  0.63614  Biso   1.000  C
  H207     1.0000 0.11610  0.65060  0.63070  Biso   1.000  H
  C281     1.0000 0.13438  0.71811  0.64630  Biso   1.000  C
  C282     1.0000 0.17096  0.76375  0.65391  Biso   1.000  C
  C283     1.0000 0.22479  0.77684  0.65144  Biso   1.000  C
  H208     1.0000 0.25280  0.81040  0.65590  Biso   1.000  H
  C284     1.0000 0.23351  0.73700  0.64205  Biso   1.000  C
  C285     1.0000 0.28985  0.75412  0.64023  Biso   1.000  C
  H209     1.0000 0.30720  0.77400  0.65590  Biso   1.000  H
  H210     1.0000 0.29340  0.72260  0.64010  Biso   1.000  H
  C286     1.0000 0.39065  0.87937  0.53482  Biso   1.000  C
  H211     1.0000 0.40430  0.85530  0.53390  Biso   1.000  H
  H212     1.0000 0.41310  0.91080  0.52490  Biso   1.000  H
  H213     1.0000 0.35520  0.86240  0.52780  Biso   1.000  H
  C287     1.0000 0.44007  0.96776  0.60516  Biso   1.000  C
  C288     1.0000 0.44675  0.01448  0.61149  Biso   1.000  C
  C289     1.0000 0.40640  0.02568  0.61145  Biso   1.000  C
  H214     1.0000 0.37130  0.99830  0.60950  Biso   1.000  H
  C290     1.0000 0.41736  0.07688  0.61427  Biso   1.000  C
  H215     1.0000 0.38970  0.08450  0.61420  Biso   1.000  H
  N34      1.0000 0.46865  0.11687  0.61714  Biso   1.000  N
  C291     1.0000 0.50901  0.10568  0.61718  Biso   1.000  C
  H216     1.0000 0.54410  0.13300  0.61910  Biso   1.000  H
  C292     1.0000 0.49805  0.05448  0.61436  Biso   1.000  C
  H217     1.0000 0.52560  0.04680  0.61440  Biso   1.000  H
  C293     1.0000 0.19888  0.85638  0.66662  Biso   1.000  C
  H218     1.0000 0.22620  0.85820  0.67800  Biso   1.000  H
  H219     1.0000 0.18330  0.87550  0.67440  Biso   1.000  H
  H220     1.0000 0.21430  0.87210  0.65010  Biso   1.000  H
  C294     1.0000 0.06010  0.68870  0.65690  Biso   1.000  C
  C295     1.0000 0.99493  0.67340  0.66085  Biso   1.000  C
  C296     1.0000 0.95662  0.63680  0.67684  Biso   1.000  C
  H221     1.0000 0.96400  0.61520  0.68740  Biso   1.000  H
  C297     1.0000 0.90726  0.63158  0.67732  Biso   1.000  C
  H222     1.0000 0.88100  0.60650  0.68820  Biso   1.000  H
  N35      1.0000 0.89629  0.66306  0.66182  Biso   1.000  N
  C298     1.0000 0.93464  0.69971  0.64583  Biso   1.000  C
  H223     1.0000 0.92710  0.72120  0.63520  Biso   1.000  H
  C299     1.0000 0.98397  0.70489  0.64535  Biso   1.000  C
  H224     1.0000 0.01010  0.72990  0.63440  Biso   1.000  H
  C300     1.0000 0.06071  0.58958  0.55228  Biso   1.000  C
  H225     1.0000 0.06430  0.56220  0.56100  Biso   1.000  H
  H226     1.0000 0.03080  0.57360  0.54060  Biso   1.000  H
  H227     1.0000 0.05520  0.61070  0.56500  Biso   1.000  H
  C301     1.0000 0.17385  0.70830  0.50495  Biso   1.000  C
  C302     1.0000 0.18486  0.70565  0.47472  Biso   1.000  C
  C303     1.0000 0.17795  0.74756  0.46040  Biso   1.000  C
  H228     1.0000 0.17070  0.77210  0.46830  Biso   1.000  H
  C304     1.0000 0.18372  0.74416  0.43515  Biso   1.000  C
  H229     1.0000 0.17500  0.76570  0.42530  Biso   1.000  H
  C305     1.0000 0.21229  0.68347  0.43168  Biso   1.000  C
  H230     1.0000 0.22510  0.66550  0.42170  Biso   1.000  H
  C306     1.0000 0.20507  0.67746  0.45977  Biso   1.000  C
  H231     1.0000 0.21380  0.65460  0.46840  Biso   1.000  H
  C307     1.0000 0.23019  0.67870  0.37503  Biso   1.000  C
  C308     1.0000 0.77060  0.57200  0.63471  Biso   1.000  C
  Cu8      1.0000 0.86330  0.04462  0.71541  Biso   1.000  Cu
  O64      1.0000 0.05637  0.22653  0.89401  Biso   1.000  O
  O65      1.0000 0.05292  0.26624  0.93875  Biso   1.000  O
  O66      1.0000 0.13139  0.28087  0.94226  Biso   1.000  O
  O67      1.0000 0.76967  0.95253  0.87266  Biso   1.000  O
  O68      1.0000 0.85627  0.00443  0.84502  Biso   1.000  O
  O69      1.0000 0.84227  0.07413  0.84872  Biso   1.000  O
  O70      1.0000 0.82474  0.13423  0.99615  Biso   1.000  O
  O71      1.0000 0.74637  0.04543  0.97693  Biso   1.000  O
  O72      1.0000 0.72717  0.99073  0.00843  Biso   1.000  O
  N36      1.0000 0.86527  0.05123  0.75494  Biso   1.000  N
  N37      1.0000 0.93697  0.00703  0.70766  Biso   1.000  N
  N38      1.0000 0.46437  0.93853  0.98005  Biso   1.000  N
  C309     1.0000 0.98310  0.11753  0.95282  Biso   1.000  C
  C310     1.0000 0.00454  0.17035  0.95815  Biso   1.000  C
  H232     1.0000 0.00237  0.18133  0.97493  Biso   1.000  H
  C311     1.0000 0.02903  0.20704  0.93887  Biso   1.000  C
  C312     1.0000 0.03209  0.19091  0.91427  Biso   1.000  C
  C313     1.0000 0.01064  0.13809  0.90894  Biso   1.000  C
  H233     1.0000 0.01267  0.12703  0.89213  Biso   1.000  H
  C314     1.0000 0.98615  0.10140  0.92822  Biso   1.000  C
  C315     1.0000 0.96674  0.04553  0.92167  Biso   1.000  C
  H234     1.0000 0.96647  0.02683  0.93743  Biso   1.000  H
  H235     1.0000 0.99157  0.04383  0.90953  Biso   1.000  H
  C316     1.0000 0.91203  0.01705  0.90982  Biso   1.000  C
  C317     1.0000 0.91011  0.02368  0.88335  Biso   1.000  C
  H236     1.0000 0.94097  0.04123  0.87333  Biso   1.000  H
  C318     1.0000 0.85503  0.00092  0.87116  Biso   1.000  C
  C319     1.0000 0.81849  0.97611  0.88626  Biso   1.000  C
  C320     1.0000 0.81970  0.96757  0.91325  Biso   1.000  C
  H237     1.0000 0.78907  0.94683  0.92303  Biso   1.000  H
  C321     1.0000 0.87283  0.99387  0.92451  Biso   1.000  C
  C322     1.0000 0.87014  0.98534  0.95303  Biso   1.000  C
  H238     1.0000 0.90327  0.98863  0.95913  Biso   1.000  H
  H239     1.0000 0.84167  0.94973  0.95713  Biso   1.000  H
  C323     1.0000 0.86046  0.02497  0.96651  Biso   1.000  C
  C324     1.0000 0.81118  0.01641  0.96947  Biso   1.000  C
  H240     1.0000 0.78277  0.98393  0.96403  Biso   1.000  H
  C325     1.0000 0.80105  0.05144  0.97963  Biso   1.000  C
  C326     1.0000 0.83763  0.09708  0.98724  Biso   1.000  C
  C327     1.0000 0.89146  0.11017  0.98477  Biso   1.000  C
  H241     1.0000 0.91947  0.14373  0.98923  Biso   1.000  H
  C328     1.0000 0.90018  0.07033  0.97538  Biso   1.000  C
  C329     1.0000 0.95652  0.08745  0.97356  Biso   1.000  C
  H242     1.0000 0.97387  0.10733  0.98923  Biso   1.000  H
  H243     1.0000 0.96007  0.05593  0.97343  Biso   1.000  H
  C330     1.0000 0.05732  0.21270  0.86815  Biso   1.000  C
  H244     1.0000 0.07097  0.18863  0.86723  Biso   1.000  H
  H245     1.0000 0.07977  0.24413  0.85823  Biso   1.000  H
  H246     1.0000 0.02187  0.19573  0.86113  Biso   1.000  H
  C331     1.0000 0.10674  0.30109  0.93849  Biso   1.000  C
  C332     1.0000 0.11342  0.34781  0.94482  Biso   1.000  C
  C333     1.0000 0.07307  0.35901  0.94478  Biso   1.000  C
  H247     1.0000 0.03797  0.33163  0.94283  Biso   1.000  H
  C334     1.0000 0.08403  0.41021  0.94760  Biso   1.000  C
  H248     1.0000 0.05637  0.41783  0.94753  Biso   1.000  H
  N39      1.0000 0.13532  0.45020  0.95047  Biso   1.000  N
  C335     1.0000 0.17568  0.43901  0.95051  Biso   1.000  C
  H249     1.0000 0.21077  0.46633  0.95243  Biso   1.000  H
  C336     1.0000 0.16472  0.38781  0.94769  Biso   1.000  C
  H250     1.0000 0.19227  0.38013  0.94773  Biso   1.000  H
  C337     1.0000 0.86555  0.18971  0.99995  Biso   1.000  C
  H251     1.0000 0.89287  0.19153  0.01133  Biso   1.000  H
  H252     1.0000 0.84997  0.20883  0.00773  Biso   1.000  H
  H253     1.0000 0.88097  0.20543  0.98343  Biso   1.000  H
  C338     1.0000 0.72677  0.02203  0.99023  Biso   1.000  C
  C339     1.0000 0.66160  0.00673  0.99418  Biso   1.000  C
  C340     1.0000 0.62329  0.97013  0.01017  Biso   1.000  C
  H254     1.0000 0.63067  0.94853  0.02073  Biso   1.000  H
  C341     1.0000 0.57393  0.96491  0.01065  Biso   1.000  C
  H255     1.0000 0.54767  0.93983  0.02153  Biso   1.000  H
  N40      1.0000 0.56296  0.99639  0.99515  Biso   1.000  N
  C342     1.0000 0.60131  0.03304  0.97916  Biso   1.000  C
  H256     1.0000 0.59377  0.05453  0.96853  Biso   1.000  H
  C343     1.0000 0.65064  0.03822  0.97868  Biso   1.000  C
  H257     1.0000 0.67677  0.06323  0.96773  Biso   1.000  H
  C344     1.0000 0.72738  0.92291  0.88561  Biso   1.000  C
  H258     1.0000 0.73097  0.89553  0.89433  Biso   1.000  H
  H259     1.0000 0.69747  0.90693  0.87393  Biso   1.000  H
  H260     1.0000 0.72187  0.94403  0.89833  Biso   1.000  H
  C345     1.0000 0.84052  0.04163  0.83828  Biso   1.000  C
  C346     1.0000 0.85153  0.03898  0.80805  Biso   1.000  C
  C347     1.0000 0.84462  0.08089  0.79373  Biso   1.000  C
  H261     1.0000 0.83737  0.10543  0.80163  Biso   1.000  H
  C348     1.0000 0.85039  0.07749  0.76848  Biso   1.000  C
  H262     1.0000 0.84167  0.09903  0.75863  Biso   1.000  H
  C349     1.0000 0.87896  0.01680  0.76501  Biso   1.000  C
  H263     1.0000 0.89177  0.99883  0.75503  Biso   1.000  H
  C350     1.0000 0.87174  0.01079  0.79310  Biso   1.000  C
  H264     1.0000 0.88047  0.98793  0.80173  Biso   1.000  H
  C351     1.0000 0.89686  0.01203  0.70836  Biso   1.000  C
  C352     1.0000 0.43727  0.90533  0.96804  Biso   1.000  C
  Cu9      1.0000 0.52996  0.37796  0.04875  Biso   1.000  Cu
  O73      1.0000 0.72303  0.55987  0.22735  Biso   1.000  O
  O74      1.0000 0.71958  0.59958  0.27209  Biso   1.000  O
  O75      1.0000 0.79805  0.61421  0.27560  Biso   1.000  O
  O76      1.0000 0.43633  0.28587  0.20600  Biso   1.000  O
  O77      1.0000 0.52293  0.33777  0.17836  Biso   1.000  O
  O78      1.0000 0.50893  0.40747  0.18206  Biso   1.000  O
  O79      1.0000 0.49140  0.46757  0.32949  Biso   1.000  O
  O80      1.0000 0.41303  0.37877  0.31027  Biso   1.000  O
  O81      1.0000 0.39383  0.32407  0.34177  Biso   1.000  O
  N41      1.0000 0.53193  0.38457  0.08828  Biso   1.000  N
  N42      1.0000 0.60363  0.34037  0.04100  Biso   1.000  N
  N43      1.0000 0.13103  0.27187  0.31339  Biso   1.000  N
  C353     1.0000 0.64976  0.45087  0.28616  Biso   1.000  C
  C354     1.0000 0.67120  0.50369  0.29149  Biso   1.000  C
  H265     1.0000 0.66903  0.51467  0.30827  Biso   1.000  H
  C355     1.0000 0.69569  0.54038  0.27221  Biso   1.000  C
  C356     1.0000 0.69875  0.52425  0.24761  Biso   1.000  C
  C357     1.0000 0.67730  0.47143  0.24228  Biso   1.000  C
  H266     1.0000 0.67933  0.46037  0.22547  Biso   1.000  H
  C358     1.0000 0.65281  0.43474  0.26156  Biso   1.000  C
  C359     1.0000 0.63340  0.37887  0.25501  Biso   1.000  C
  H267     1.0000 0.63313  0.36017  0.27077  Biso   1.000  H
  H268     1.0000 0.65823  0.37717  0.24287  Biso   1.000  H
  C360     1.0000 0.57869  0.35039  0.24316  Biso   1.000  C
  C361     1.0000 0.57677  0.35702  0.21669  Biso   1.000  C
  H269     1.0000 0.60763  0.37457  0.20667  Biso   1.000  H
  C362     1.0000 0.52169  0.33426  0.20450  Biso   1.000  C
  C363     1.0000 0.48515  0.30945  0.21960  Biso   1.000  C
  C364     1.0000 0.48636  0.30091  0.24659  Biso   1.000  C
  H270     1.0000 0.45573  0.28017  0.25637  Biso   1.000  H
  C365     1.0000 0.53949  0.32721  0.25785  Biso   1.000  C
  C366     1.0000 0.53680  0.31868  0.28637  Biso   1.000  C
  H271     1.0000 0.56993  0.32197  0.29247  Biso   1.000  H
  H272     1.0000 0.50833  0.28307  0.29047  Biso   1.000  H
  C367     1.0000 0.52712  0.35831  0.29985  Biso   1.000  C
  C368     1.0000 0.47784  0.34975  0.30281  Biso   1.000  C
  H273     1.0000 0.44943  0.31727  0.29737  Biso   1.000  H
  C369     1.0000 0.46771  0.38478  0.31297  Biso   1.000  C
  C370     1.0000 0.50429  0.43042  0.32058  Biso   1.000  C
  C371     1.0000 0.55812  0.44351  0.31811  Biso   1.000  C
  H274     1.0000 0.58613  0.47707  0.32257  Biso   1.000  H
  C372     1.0000 0.56684  0.40367  0.30872  Biso   1.000  C
  C373     1.0000 0.62318  0.42079  0.30690  Biso   1.000  C
  H275     1.0000 0.64053  0.44067  0.32257  Biso   1.000  H
  H276     1.0000 0.62673  0.38927  0.30677  Biso   1.000  H
  C374     1.0000 0.72398  0.54604  0.20149  Biso   1.000  C
  H277     1.0000 0.73763  0.52197  0.20057  Biso   1.000  H
  H278     1.0000 0.74643  0.57747  0.19157  Biso   1.000  H
  H279     1.0000 0.68853  0.52907  0.19447  Biso   1.000  H
  C375     1.0000 0.77340  0.63443  0.27183  Biso   1.000  C
  C376     1.0000 0.78008  0.68115  0.27816  Biso   1.000  C
  C377     1.0000 0.73973  0.69235  0.27812  Biso   1.000  C
  H280     1.0000 0.70463  0.66497  0.27617  Biso   1.000  H
  C378     1.0000 0.75069  0.74355  0.28094  Biso   1.000  C
  H281     1.0000 0.72303  0.75117  0.28087  Biso   1.000  H
  N44      1.0000 0.80198  0.78354  0.28381  Biso   1.000  N
  C379     1.0000 0.84234  0.77235  0.28385  Biso   1.000  C
  H282     1.0000 0.87743  0.79967  0.28577  Biso   1.000  H
  C380     1.0000 0.83138  0.72115  0.28103  Biso   1.000  C
  H283     1.0000 0.85893  0.71347  0.28107  Biso   1.000  H
  C381     1.0000 0.53221  0.52305  0.33329  Biso   1.000  C
  H284     1.0000 0.55953  0.52487  0.34467  Biso   1.000  H
  H285     1.0000 0.51663  0.54217  0.34107  Biso   1.000  H
  H286     1.0000 0.54763  0.53877  0.31677  Biso   1.000  H
  C382     1.0000 0.39343  0.35537  0.32357  Biso   1.000  C
  C383     1.0000 0.32826  0.34007  0.32752  Biso   1.000  C
  C384     1.0000 0.28995  0.30347  0.34351  Biso   1.000  C
  H287     1.0000 0.29733  0.28187  0.35407  Biso   1.000  H
  C385     1.0000 0.24059  0.29825  0.34399  Biso   1.000  C
  H288     1.0000 0.21433  0.27317  0.35487  Biso   1.000  H
  N45      1.0000 0.22962  0.32973  0.32849  Biso   1.000  N
  C386     1.0000 0.26797  0.36638  0.31250  Biso   1.000  C
  H289     1.0000 0.26043  0.38787  0.30187  Biso   1.000  H
  C387     1.0000 0.31730  0.37156  0.31202  Biso   1.000  C
  H290     1.0000 0.34343  0.39657  0.30107  Biso   1.000  H
  C388     1.0000 0.39404  0.25625  0.21895  Biso   1.000  C
  H291     1.0000 0.39763  0.22887  0.22767  Biso   1.000  H
  H292     1.0000 0.36413  0.24027  0.20727  Biso   1.000  H
  H293     1.0000 0.38853  0.27737  0.23167  Biso   1.000  H
  C389     1.0000 0.50718  0.37497  0.17162  Biso   1.000  C
  C390     1.0000 0.51819  0.37232  0.14139  Biso   1.000  C
  C391     1.0000 0.51128  0.41423  0.12707  Biso   1.000  C
  H294     1.0000 0.50403  0.43877  0.13497  Biso   1.000  H
  C392     1.0000 0.51705  0.41083  0.10182  Biso   1.000  C
  H295     1.0000 0.50833  0.43237  0.09197  Biso   1.000  H
  C393     1.0000 0.54562  0.35014  0.09835  Biso   1.000  C
  H296     1.0000 0.55843  0.33217  0.08837  Biso   1.000  H
  C394     1.0000 0.53840  0.34413  0.12644  Biso   1.000  C
  H297     1.0000 0.54713  0.32127  0.13507  Biso   1.000  H
  C395     1.0000 0.56352  0.34537  0.04170  Biso   1.000  C
  C396     1.0000 0.10393  0.23867  0.30138  Biso   1.000  C
  Cu10     1.0000 0.71129  0.51466  0.61792  Biso   1.000  Cu
  O82      1.0000 0.89320  0.50350  0.43932  Biso   1.000  O
  O83      1.0000 0.93291  0.54666  0.39458  Biso   1.000  O
  O84      1.0000 0.94754  0.48282  0.39107  Biso   1.000  O
  O85      1.0000 0.61920  0.51620  0.46067  Biso   1.000  O
  O86      1.0000 0.67110  0.48150  0.48831  Biso   1.000  O
  O87      1.0000 0.74080  0.56520  0.48461  Biso   1.000  O
  O88      1.0000 0.80090  0.64283  0.33718  Biso   1.000  O
  O89      1.0000 0.71210  0.63240  0.35640  Biso   1.000  O
  O90      1.0000 0.65740  0.59690  0.32490  Biso   1.000  O
  N46      1.0000 0.71790  0.51930  0.57839  Biso   1.000  N
  N47      1.0000 0.67370  0.40340  0.62567  Biso   1.000  N
  N48      1.0000 0.60520  0.80750  0.35328  Biso   1.000  N
  C397     1.0000 0.78420  0.46777  0.38051  Biso   1.000  C
  C398     1.0000 0.83702  0.49915  0.37518  Biso   1.000  C
  H298     1.0000 0.84800  0.51230  0.35840  Biso   1.000  H
  C399     1.0000 0.87371  0.51135  0.39446  Biso   1.000  C
  C400     1.0000 0.85758  0.49216  0.41906  Biso   1.000  C
  C401     1.0000 0.80476  0.46079  0.42439  Biso   1.000  C
  H299     1.0000 0.79370  0.44770  0.44120  Biso   1.000  H
  C402     1.0000 0.76807  0.44859  0.40511  Biso   1.000  C
  C403     1.0000 0.71220  0.41213  0.41166  Biso   1.000  C
  H300     1.0000 0.69350  0.39370  0.39590  Biso   1.000  H
  H301     1.0000 0.71050  0.38560  0.42380  Biso   1.000  H
  C404     1.0000 0.68372  0.43836  0.42351  Biso   1.000  C
  C405     1.0000 0.69035  0.44691  0.44998  Biso   1.000  C
  H302     1.0000 0.70790  0.43360  0.46000  Biso   1.000  H
  C406     1.0000 0.66759  0.47923  0.46217  Biso   1.000  C
  C407     1.0000 0.64278  0.49096  0.44707  Biso   1.000  C
  C408     1.0000 0.63424  0.48121  0.42008  Biso   1.000  C
  H303     1.0000 0.61350  0.49110  0.41030  Biso   1.000  H
  C409     1.0000 0.66054  0.45438  0.40882  Biso   1.000  C
  C410     1.0000 0.65201  0.44854  0.38030  Biso   1.000  C
  H304     1.0000 0.65530  0.41870  0.37420  Biso   1.000  H
  H305     1.0000 0.61640  0.44140  0.37620  Biso   1.000  H
  C411     1.0000 0.69164  0.49785  0.36682  Biso   1.000  C
  C412     1.0000 0.68308  0.53857  0.36386  Biso   1.000  C
  H306     1.0000 0.65060  0.53450  0.36930  Biso   1.000  H
  C413     1.0000 0.71811  0.58373  0.35370  Biso   1.000  C
  C414     1.0000 0.76375  0.59279  0.34609  Biso   1.000  C
  C415     1.0000 0.77684  0.55205  0.34856  Biso   1.000  C
  H307     1.0000 0.81040  0.55760  0.34410  Biso   1.000  H
  C416     1.0000 0.73700  0.50349  0.35795  Biso   1.000  C
  C417     1.0000 0.75412  0.46427  0.35977  Biso   1.000  C
  H308     1.0000 0.77400  0.46680  0.34410  Biso   1.000  H
  H309     1.0000 0.72260  0.42920  0.35990  Biso   1.000  H
  C418     1.0000 0.87937  0.48872  0.46518  Biso   1.000  C
  H310     1.0000 0.85530  0.45100  0.46610  Biso   1.000  H
  H311     1.0000 0.91080  0.49770  0.47510  Biso   1.000  H
  H312     1.0000 0.86240  0.50720  0.47220  Biso   1.000  H
  C419     1.0000 0.96776  0.52769  0.39484  Biso   1.000  C
  C420     1.0000 0.01448  0.56773  0.38851  Biso   1.000  C
  C421     1.0000 0.02568  0.61928  0.38855  Biso   1.000  C
  H313     1.0000 0.99830  0.62700  0.39050  Biso   1.000  H
  C422     1.0000 0.07688  0.65952  0.38573  Biso   1.000  C
  H314     1.0000 0.08450  0.69480  0.38580  Biso   1.000  H
  N49      1.0000 0.11687  0.64822  0.38286  Biso   1.000  N
  C423     1.0000 0.10568  0.59667  0.38282  Biso   1.000  C
  H315     1.0000 0.13300  0.58890  0.38090  Biso   1.000  H
  C424     1.0000 0.05448  0.55643  0.38564  Biso   1.000  C
  H316     1.0000 0.04680  0.52120  0.38560  Biso   1.000  H
  C425     1.0000 0.85638  0.65750  0.33338  Biso   1.000  C
  H317     1.0000 0.85820  0.63200  0.32200  Biso   1.000  H
  H318     1.0000 0.87550  0.69220  0.32560  Biso   1.000  H
  H319     1.0000 0.87210  0.65780  0.34990  Biso   1.000  H
  C426     1.0000 0.68870  0.62860  0.34310  Biso   1.000  C
  C427     1.0000 0.67340  0.67847  0.33915  Biso   1.000  C
  C428     1.0000 0.63680  0.68018  0.32316  Biso   1.000  C
  H320     1.0000 0.61520  0.65120  0.31260  Biso   1.000  H
  C429     1.0000 0.63158  0.72432  0.32268  Biso   1.000  C
  H321     1.0000 0.60650  0.72550  0.31180  Biso   1.000  H
  N50      1.0000 0.66306  0.76677  0.33818  Biso   1.000  N
  C430     1.0000 0.69971  0.76507  0.35417  Biso   1.000  C
  H322     1.0000 0.72120  0.79410  0.36480  Biso   1.000  H
  C431     1.0000 0.70489  0.72092  0.35465  Biso   1.000  C
  H323     1.0000 0.72990  0.71980  0.36560  Biso   1.000  H
  C432     1.0000 0.58958  0.52887  0.44772  Biso   1.000  C
  H324     1.0000 0.56220  0.49790  0.43900  Biso   1.000  H
  H325     1.0000 0.57360  0.54280  0.45940  Biso   1.000  H
  H326     1.0000 0.61070  0.55550  0.43500  Biso   1.000  H
  C433     1.0000 0.70830  0.53445  0.49505  Biso   1.000  C
  C434     1.0000 0.70565  0.52079  0.52528  Biso   1.000  C
  C435     1.0000 0.74756  0.56961  0.53960  Biso   1.000  C
  H327     1.0000 0.77210  0.60140  0.53170  Biso   1.000  H
  C436     1.0000 0.74416  0.56044  0.56485  Biso   1.000  C
  H328     1.0000 0.76570  0.59070  0.57470  Biso   1.000  H
  C437     1.0000 0.68347  0.47118  0.56832  Biso   1.000  C
  H329     1.0000 0.66550  0.44040  0.57830  Biso   1.000  H
  C438     1.0000 0.67746  0.47239  0.54023  Biso   1.000  C
  H330     1.0000 0.65460  0.44080  0.53160  Biso   1.000  H
  C439     1.0000 0.67870  0.44851  0.62497  Biso   1.000  C
  C440     1.0000 0.57200  0.80140  0.36529  Biso   1.000  C
  Cu11     1.0000 0.37796  0.84799  0.95125  Biso   1.000  Cu
  O91      1.0000 0.55987  0.83683  0.77265  Biso   1.000  O
  O92      1.0000 0.59958  0.87999  0.72791  Biso   1.000  O
  O93      1.0000 0.61421  0.81615  0.72440  Biso   1.000  O
  O94      1.0000 0.28587  0.84953  0.79400  Biso   1.000  O
  O95      1.0000 0.33777  0.81483  0.82164  Biso   1.000  O
  O96      1.0000 0.40747  0.89853  0.81794  Biso   1.000  O
  O97      1.0000 0.46757  0.97616  0.67051  Biso   1.000  O
  O98      1.0000 0.37877  0.96573  0.68973  Biso   1.000  O
  O99      1.0000 0.32407  0.93023  0.65823  Biso   1.000  O
  N51      1.0000 0.38457  0.85263  0.91172  Biso   1.000  N
  N52      1.0000 0.34037  0.73673  0.95900  Biso   1.000  N
  N53      1.0000 0.27187  0.14083  0.68661  Biso   1.000  N
  C441     1.0000 0.45087  0.80110  0.71384  Biso   1.000  C
  C442     1.0000 0.50369  0.83248  0.70851  Biso   1.000  C
  H331     1.0000 0.51467  0.84563  0.69173  Biso   1.000  H
  C443     1.0000 0.54038  0.84468  0.72779  Biso   1.000  C
  C444     1.0000 0.52425  0.82549  0.75239  Biso   1.000  C
  C445     1.0000 0.47143  0.79412  0.75772  Biso   1.000  C
  H332     1.0000 0.46037  0.78103  0.77453  Biso   1.000  H
  C446     1.0000 0.43474  0.78192  0.73844  Biso   1.000  C
  C447     1.0000 0.37887  0.74546  0.74499  Biso   1.000  C
  H333     1.0000 0.36017  0.72703  0.72923  Biso   1.000  H
  H334     1.0000 0.37717  0.71893  0.75713  Biso   1.000  H
  C448     1.0000 0.35039  0.77169  0.75684  Biso   1.000  C
  C449     1.0000 0.35702  0.78024  0.78331  Biso   1.000  C
  H335     1.0000 0.37457  0.76693  0.79333  Biso   1.000  H
  C450     1.0000 0.33426  0.81256  0.79550  Biso   1.000  C
  C451     1.0000 0.30945  0.82429  0.78040  Biso   1.000  C
  C452     1.0000 0.30091  0.81454  0.75341  Biso   1.000  C
  H336     1.0000 0.28017  0.82443  0.74363  Biso   1.000  H
  C453     1.0000 0.32721  0.78771  0.74215  Biso   1.000  C
  C454     1.0000 0.31868  0.78187  0.71363  Biso   1.000  C
  H337     1.0000 0.32197  0.75203  0.70753  Biso   1.000  H
  H338     1.0000 0.28307  0.77473  0.70953  Biso   1.000  H
  C455     1.0000 0.35831  0.83118  0.70015  Biso   1.000  C
  C456     1.0000 0.34975  0.87190  0.69719  Biso   1.000  C
  H339     1.0000 0.31727  0.86783  0.70263  Biso   1.000  H
  C457     1.0000 0.38478  0.91706  0.68703  Biso   1.000  C
  C458     1.0000 0.43042  0.92612  0.67942  Biso   1.000  C
  C459     1.0000 0.44351  0.88538  0.68189  Biso   1.000  C
  H340     1.0000 0.47707  0.89093  0.67743  Biso   1.000  H
  C460     1.0000 0.40367  0.83682  0.69128  Biso   1.000  C
  C461     1.0000 0.42079  0.79760  0.69310  Biso   1.000  C
  H341     1.0000 0.44067  0.80013  0.67743  Biso   1.000  H
  H342     1.0000 0.38927  0.76253  0.69323  Biso   1.000  H
  C462     1.0000 0.54604  0.82205  0.79851  Biso   1.000  C
  H343     1.0000 0.52197  0.78433  0.79943  Biso   1.000  H
  H344     1.0000 0.57747  0.83103  0.80843  Biso   1.000  H
  H345     1.0000 0.52907  0.84053  0.80553  Biso   1.000  H
  C463     1.0000 0.63443  0.86102  0.72817  Biso   1.000  C
  C464     1.0000 0.68115  0.90106  0.72184  Biso   1.000  C
  C465     1.0000 0.69235  0.95261  0.72188  Biso   1.000  C
  H346     1.0000 0.66497  0.96033  0.72383  Biso   1.000  H
  C466     1.0000 0.74355  0.99285  0.71906  Biso   1.000  C
  H347     1.0000 0.75117  0.02813  0.71913  Biso   1.000  H
  N54      1.0000 0.78354  0.98155  0.71619  Biso   1.000  N
  C467     1.0000 0.77235  0.93000  0.71615  Biso   1.000  C
  H348     1.0000 0.79967  0.92223  0.71423  Biso   1.000  H
  C468     1.0000 0.72115  0.88976  0.71897  Biso   1.000  C
  H349     1.0000 0.71347  0.85453  0.71893  Biso   1.000  H
  C469     1.0000 0.52305  0.99083  0.66671  Biso   1.000  C
  H350     1.0000 0.52487  0.96533  0.65533  Biso   1.000  H
  H351     1.0000 0.54217  0.02553  0.65893  Biso   1.000  H
  H352     1.0000 0.53877  0.99113  0.68323  Biso   1.000  H
  C470     1.0000 0.35537  0.96193  0.67643  Biso   1.000  C
  C471     1.0000 0.34007  0.01180  0.67248  Biso   1.000  C
  C472     1.0000 0.30347  0.01351  0.65649  Biso   1.000  C
  H353     1.0000 0.28187  0.98453  0.64593  Biso   1.000  H
  C473     1.0000 0.29825  0.05765  0.65601  Biso   1.000  C
  H354     1.0000 0.27317  0.05883  0.64513  Biso   1.000  H
  N55      1.0000 0.32973  0.10010  0.67151  Biso   1.000  N
  C474     1.0000 0.36638  0.09840  0.68750  Biso   1.000  C
  H355     1.0000 0.38787  0.12743  0.69813  Biso   1.000  H
  C475     1.0000 0.37156  0.05425  0.68798  Biso   1.000  C
  H356     1.0000 0.39657  0.05313  0.69893  Biso   1.000  H
  C476     1.0000 0.25625  0.86220  0.78105  Biso   1.000  C
  H357     1.0000 0.22887  0.83123  0.77233  Biso   1.000  H
  H358     1.0000 0.24027  0.87613  0.79273  Biso   1.000  H
  H359     1.0000 0.27737  0.88883  0.76833  Biso   1.000  H
  C477     1.0000 0.37497  0.86778  0.82838  Biso   1.000  C
  C478     1.0000 0.37232  0.85412  0.85861  Biso   1.000  C
  C479     1.0000 0.41423  0.90294  0.87293  Biso   1.000  C
  H360     1.0000 0.43877  0.93473  0.86503  Biso   1.000  H
  C480     1.0000 0.41083  0.89377  0.89818  Biso   1.000  C
  H361     1.0000 0.43237  0.92403  0.90803  Biso   1.000  H
  C481     1.0000 0.35014  0.80451  0.90165  Biso   1.000  C
  H362     1.0000 0.33217  0.77373  0.91163  Biso   1.000  H
  C482     1.0000 0.34413  0.80572  0.87356  Biso   1.000  C
  H363     1.0000 0.32127  0.77413  0.86493  Biso   1.000  H
  C483     1.0000 0.34537  0.78184  0.95830  Biso   1.000  C
  C484     1.0000 0.23867  0.13473  0.69862  Biso   1.000  C
  Cu12     1.0000 0.04462  0.18133  0.28459  Biso   1.000  Cu
  O100     1.0000 0.22653  0.17017  0.10599  Biso   1.000  O
  O101     1.0000 0.26624  0.21333  0.06125  Biso   1.000  O
  O102     1.0000 0.28087  0.14949  0.05774  Biso   1.000  O
  O103     1.0000 0.95253  0.18287  0.12734  Biso   1.000  O
  O104     1.0000 0.00443  0.14817  0.15498  Biso   1.000  O
  O105     1.0000 0.07413  0.23187  0.15128  Biso   1.000  O
  O106     1.0000 0.13423  0.30950  0.00385  Biso   1.000  O
  O107     1.0000 0.04543  0.29907  0.02307  Biso   1.000  O
  O108     1.0000 0.99073  0.26357  0.99157  Biso   1.000  O
  N56      1.0000 0.05123  0.18597  0.24506  Biso   1.000  N
  N57      1.0000 0.00703  0.07007  0.29234  Biso   1.000  N
  N58      1.0000 0.93853  0.47417  0.01995  Biso   1.000  N
  C485     1.0000 0.11753  0.13444  0.04718  Biso   1.000  C
  C486     1.0000 0.17035  0.16582  0.04185  Biso   1.000  C
  H364     1.0000 0.18133  0.17897  0.02507  Biso   1.000  H
  C487     1.0000 0.20704  0.17802  0.06113  Biso   1.000  C
  C488     1.0000 0.19091  0.15883  0.08573  Biso   1.000  C
  C489     1.0000 0.13809  0.12746  0.09106  Biso   1.000  C
  H365     1.0000 0.12703  0.11437  0.10787  Biso   1.000  H
  C490     1.0000 0.10140  0.11526  0.07178  Biso   1.000  C
  C491     1.0000 0.04553  0.07880  0.07833  Biso   1.000  C
  H366     1.0000 0.02683  0.06037  0.06257  Biso   1.000  H
  H367     1.0000 0.04383  0.05227  0.09047  Biso   1.000  H
  C492     1.0000 0.01705  0.10503  0.09018  Biso   1.000  C
  C493     1.0000 0.02368  0.11358  0.11665  Biso   1.000  C
  H368     1.0000 0.04123  0.10027  0.12667  Biso   1.000  H
  C494     1.0000 0.00092  0.14590  0.12884  Biso   1.000  C
  C495     1.0000 0.97611  0.15763  0.11374  Biso   1.000  C
  C496     1.0000 0.96757  0.14788  0.08675  Biso   1.000  C
  H369     1.0000 0.94683  0.15777  0.07697  Biso   1.000  H
  C497     1.0000 0.99387  0.12105  0.07549  Biso   1.000  C
  C498     1.0000 0.98534  0.11521  0.04697  Biso   1.000  C
  H370     1.0000 0.98863  0.08537  0.04087  Biso   1.000  H
  H371     1.0000 0.94973  0.10807  0.04287  Biso   1.000  H
  C499     1.0000 0.02497  0.16452  0.03349  Biso   1.000  C
  C500     1.0000 0.01641  0.20524  0.03053  Biso   1.000  C
  H372     1.0000 0.98393  0.20117  0.03597  Biso   1.000  H
  C501     1.0000 0.05144  0.25040  0.02037  Biso   1.000  C
  C502     1.0000 0.09708  0.25946  0.01276  Biso   1.000  C
  C503     1.0000 0.11017  0.21872  0.01523  Biso   1.000  C
  H373     1.0000 0.14373  0.22427  0.01077  Biso   1.000  H
  C504     1.0000 0.07033  0.17016  0.02462  Biso   1.000  C
  C505     1.0000 0.08745  0.13094  0.02644  Biso   1.000  C
  H374     1.0000 0.10733  0.13347  0.01077  Biso   1.000  H
  H375     1.0000 0.05593  0.09587  0.02657  Biso   1.000  H
  C506     1.0000 0.21270  0.15539  0.13185  Biso   1.000  C
  H376     1.0000 0.18863  0.11767  0.13277  Biso   1.000  H
  H377     1.0000 0.24413  0.16437  0.14177  Biso   1.000  H
  H378     1.0000 0.19573  0.17387  0.13887  Biso   1.000  H
  C507     1.0000 0.30109  0.19436  0.06151  Biso   1.000  C
  C508     1.0000 0.34781  0.23440  0.05518  Biso   1.000  C
  C509     1.0000 0.35901  0.28595  0.05522  Biso   1.000  C
  H379     1.0000 0.33163  0.29367  0.05717  Biso   1.000  H
  C510     1.0000 0.41021  0.32619  0.05240  Biso   1.000  C
  H380     1.0000 0.41783  0.36147  0.05247  Biso   1.000  H
  N59      1.0000 0.45020  0.31489  0.04953  Biso   1.000  N
  C511     1.0000 0.43901  0.26334  0.04949  Biso   1.000  C
  H381     1.0000 0.46633  0.25557  0.04757  Biso   1.000  H
  C512     1.0000 0.38781  0.22310  0.05231  Biso   1.000  C
  H382     1.0000 0.38013  0.18787  0.05227  Biso   1.000  H
  C513     1.0000 0.18971  0.32417  0.00005  Biso   1.000  C
  H383     1.0000 0.19153  0.29867  0.98867  Biso   1.000  H
  H384     1.0000 0.20883  0.35887  0.99227  Biso   1.000  H
  H385     1.0000 0.20543  0.32447  0.01657  Biso   1.000  H
  C514     1.0000 0.02203  0.29527  0.00977  Biso   1.000  C
  C515     1.0000 0.00673  0.34514  0.00582  Biso   1.000  C
  C516     1.0000 0.97013  0.34685  0.98983  Biso   1.000  C
  H386     1.0000 0.94853  0.31787  0.97927  Biso   1.000  H
  C517     1.0000 0.96491  0.39099  0.98935  Biso   1.000  C
  H387     1.0000 0.93983  0.39217  0.97847  Biso   1.000  H
  N60      1.0000 0.99639  0.43344  0.00485  Biso   1.000  N
  C518     1.0000 0.03304  0.43174  0.02084  Biso   1.000  C
  H388     1.0000 0.05453  0.46077  0.03147  Biso   1.000  H
  C519     1.0000 0.03822  0.38759  0.02132  Biso   1.000  C
  H389     1.0000 0.06323  0.38647  0.03227  Biso   1.000  H
  C520     1.0000 0.92291  0.19554  0.11439  Biso   1.000  C
  H390     1.0000 0.89553  0.16457  0.10567  Biso   1.000  H
  H391     1.0000 0.90693  0.20947  0.12607  Biso   1.000  H
  H392     1.0000 0.94403  0.22217  0.10167  Biso   1.000  H
  C521     1.0000 0.04163  0.20112  0.16172  Biso   1.000  C
  C522     1.0000 0.03898  0.18746  0.19195  Biso   1.000  C
  C523     1.0000 0.08089  0.23628  0.20627  Biso   1.000  C
  H393     1.0000 0.10543  0.26807  0.19837  Biso   1.000  H
  C524     1.0000 0.07749  0.22711  0.23152  Biso   1.000  C
  H394     1.0000 0.09903  0.25737  0.24137  Biso   1.000  H
  C525     1.0000 0.01680  0.13785  0.23499  Biso   1.000  C
  H395     1.0000 0.99883  0.10707  0.24497  Biso   1.000  H
  C526     1.0000 0.01079  0.13906  0.20690  Biso   1.000  C
  H396     1.0000 0.98793  0.10747  0.19827  Biso   1.000  H
  C527     1.0000 0.01203  0.11518  0.29164  Biso   1.000  C
  C528     1.0000 0.90533  0.46807  0.03196  Biso   1.000  C
  Cu13     1.0000 0.48534  0.19663  0.61792  Biso   1.000  Cu
  O109     1.0000 0.49650  0.38970  0.43932  Biso   1.000  O
  O110     1.0000 0.45334  0.38625  0.39458  Biso   1.000  O
  O111     1.0000 0.51718  0.46472  0.39107  Biso   1.000  O
  O112     1.0000 0.48380  0.10300  0.46067  Biso   1.000  O
  O113     1.0000 0.51850  0.18960  0.48831  Biso   1.000  O
  O114     1.0000 0.43480  0.17560  0.48461  Biso   1.000  O
  O115     1.0000 0.35717  0.15807  0.33718  Biso   1.000  O
  O116     1.0000 0.36760  0.07970  0.35640  Biso   1.000  O
  O117     1.0000 0.40310  0.06050  0.32490  Biso   1.000  O
  N61      1.0000 0.48070  0.19860  0.57839  Biso   1.000  N
  N62      1.0000 0.59660  0.27030  0.62567  Biso   1.000  N
  N63      1.0000 0.19250  0.79770  0.35328  Biso   1.000  N
  C529     1.0000 0.53223  0.31643  0.38051  Biso   1.000  C
  C530     1.0000 0.50085  0.33787  0.37518  Biso   1.000  C
  H397     1.0000 0.48770  0.33570  0.35840  Biso   1.000  H
  C531     1.0000 0.48865  0.36236  0.39446  Biso   1.000  C
  C532     1.0000 0.50784  0.36542  0.41906  Biso   1.000  C
  C533     1.0000 0.53921  0.34397  0.42439  Biso   1.000  C
  H398     1.0000 0.55230  0.34600  0.44120  Biso   1.000  H
  C534     1.0000 0.55141  0.31948  0.40511  Biso   1.000  C
  C535     1.0000 0.58787  0.30007  0.41166  Biso   1.000  C
  H399     1.0000 0.60630  0.29980  0.39590  Biso   1.000  H
  H400     1.0000 0.61440  0.32490  0.42380  Biso   1.000  H
  C536     1.0000 0.56164  0.24536  0.42351  Biso   1.000  C
  C537     1.0000 0.55309  0.24344  0.44998  Biso   1.000  C
  H401     1.0000 0.56640  0.27430  0.46000  Biso   1.000  H
  C538     1.0000 0.52077  0.18836  0.46217  Biso   1.000  C
  C539     1.0000 0.50904  0.15182  0.44707  Biso   1.000  C
  C540     1.0000 0.51879  0.15303  0.42008  Biso   1.000  C
  H402     1.0000 0.50890  0.12240  0.41030  Biso   1.000  H
  C541     1.0000 0.54562  0.20616  0.40882  Biso   1.000  C
  C542     1.0000 0.55146  0.20347  0.38030  Biso   1.000  C
  H403     1.0000 0.58130  0.23660  0.37420  Biso   1.000  H
  H404     1.0000 0.55860  0.17500  0.37620  Biso   1.000  H
  C543     1.0000 0.50215  0.19379  0.36682  Biso   1.000  C
  C544     1.0000 0.46143  0.14451  0.36386  Biso   1.000  C
  H405     1.0000 0.46550  0.11610  0.36930  Biso   1.000  H
  C545     1.0000 0.41627  0.13438  0.35370  Biso   1.000  C
  C546     1.0000 0.40721  0.17096  0.34609  Biso   1.000  C
  C547     1.0000 0.44795  0.22479  0.34856  Biso   1.000  C
  H406     1.0000 0.44240  0.25280  0.34410  Biso   1.000  H
  C548     1.0000 0.49651  0.23351  0.35795  Biso   1.000  C
  C549     1.0000 0.53573  0.28985  0.35977  Biso   1.000  C
  H407     1.0000 0.53320  0.30720  0.34410  Biso   1.000  H
  H408     1.0000 0.57080  0.29340  0.35990  Biso   1.000  H
  C550     1.0000 0.51128  0.39065  0.46518  Biso   1.000  C
  H409     1.0000 0.54900  0.40430  0.46610  Biso   1.000  H
  H410     1.0000 0.50230  0.41310  0.47510  Biso   1.000  H
  H411     1.0000 0.49280  0.35520  0.47220  Biso   1.000  H
  C551     1.0000 0.47231  0.44007  0.39484  Biso   1.000  C
  C552     1.0000 0.43227  0.44675  0.38851  Biso   1.000  C
  C553     1.0000 0.38072  0.40640  0.38855  Biso   1.000  C
  H412     1.0000 0.37300  0.37130  0.39050  Biso   1.000  H
  C554     1.0000 0.34048  0.41736  0.38573  Biso   1.000  C
  H413     1.0000 0.30520  0.38970  0.38580  Biso   1.000  H
  N64      1.0000 0.35178  0.46865  0.38286  Biso   1.000  N
  C555     1.0000 0.40333  0.50901  0.38282  Biso   1.000  C
  H414     1.0000 0.41110  0.54410  0.38090  Biso   1.000  H
  C556     1.0000 0.44357  0.49805  0.38564  Biso   1.000  C
  H415     1.0000 0.47880  0.52560  0.38560  Biso   1.000  H
  C557     1.0000 0.34250  0.19888  0.33338  Biso   1.000  C
  H416     1.0000 0.36800  0.22620  0.32200  Biso   1.000  H
  H417     1.0000 0.30780  0.18330  0.32560  Biso   1.000  H
  H418     1.0000 0.34220  0.21430  0.34990  Biso   1.000  H
  C558     1.0000 0.37140  0.06010  0.34310  Biso   1.000  C
  C559     1.0000 0.32153  0.99493  0.33915  Biso   1.000  C
  C560     1.0000 0.31982  0.95662  0.32316  Biso   1.000  C
  H419     1.0000 0.34880  0.96400  0.31260  Biso   1.000  H
  C561     1.0000 0.27568  0.90726  0.32268  Biso   1.000  C
  H420     1.0000 0.27450  0.88100  0.31180  Biso   1.000  H
  N65      1.0000 0.23323  0.89629  0.33818  Biso   1.000  N
  C562     1.0000 0.23493  0.93464  0.35417  Biso   1.000  C
  H421     1.0000 0.20590  0.92710  0.36480  Biso   1.000  H
  C563     1.0000 0.27908  0.98397  0.35465  Biso   1.000  C
  H422     1.0000 0.28020  0.01010  0.36560  Biso   1.000  H
  C564     1.0000 0.47113  0.06071  0.44772  Biso   1.000  C
  H423     1.0000 0.50210  0.06430  0.43900  Biso   1.000  H
  H424     1.0000 0.45720  0.03080  0.45940  Biso   1.000  H
  H425     1.0000 0.44450  0.05520  0.43500  Biso   1.000  H
  C565     1.0000 0.46555  0.17385  0.49505  Biso   1.000  C
  C566     1.0000 0.47921  0.18486  0.52528  Biso   1.000  C
  C567     1.0000 0.43039  0.17795  0.53960  Biso   1.000  C
  H426     1.0000 0.39860  0.17070  0.53170  Biso   1.000  H
  C568     1.0000 0.43956  0.18372  0.56485  Biso   1.000  C
  H427     1.0000 0.40930  0.17500  0.57470  Biso   1.000  H
  C569     1.0000 0.52882  0.21229  0.56832  Biso   1.000  C
  H428     1.0000 0.55960  0.22510  0.57830  Biso   1.000  H
  C570     1.0000 0.52761  0.20507  0.54023  Biso   1.000  C
  H429     1.0000 0.55920  0.21380  0.53160  Biso   1.000  H
  C571     1.0000 0.55149  0.23019  0.62497  Biso   1.000  C
  C572     1.0000 0.19860  0.77060  0.36529  Biso   1.000  C
  Cu14     1.0000 0.15201  0.52996  0.95125  Biso   1.000  Cu
  O118     1.0000 0.16317  0.72303  0.77265  Biso   1.000  O
  O119     1.0000 0.12001  0.71958  0.72791  Biso   1.000  O
  O120     1.0000 0.18385  0.79805  0.72440  Biso   1.000  O
  O121     1.0000 0.15047  0.43633  0.79400  Biso   1.000  O
  O122     1.0000 0.18517  0.52293  0.82164  Biso   1.000  O
  O123     1.0000 0.10147  0.50893  0.81794  Biso   1.000  O
  O124     1.0000 0.02384  0.49140  0.67051  Biso   1.000  O
  O125     1.0000 0.03427  0.41303  0.68973  Biso   1.000  O
  O126     1.0000 0.06977  0.39383  0.65823  Biso   1.000  O
  N66      1.0000 0.14737  0.53193  0.91172  Biso   1.000  N
  N67      1.0000 0.26327  0.60363  0.95900  Biso   1.000  N
  N68      1.0000 0.85917  0.13103  0.68661  Biso   1.000  N
  C573     1.0000 0.19890  0.64976  0.71384  Biso   1.000  C
  C574     1.0000 0.16752  0.67120  0.70851  Biso   1.000  C
  H430     1.0000 0.15437  0.66903  0.69173  Biso   1.000  H
  C575     1.0000 0.15532  0.69569  0.72779  Biso   1.000  C
  C576     1.0000 0.17451  0.69875  0.75239  Biso   1.000  C
  C577     1.0000 0.20588  0.67730  0.75772  Biso   1.000  C
  H431     1.0000 0.21897  0.67933  0.77453  Biso   1.000  H
  C578     1.0000 0.21808  0.65281  0.73844  Biso   1.000  C
  C579     1.0000 0.25454  0.63340  0.74499  Biso   1.000  C
  H432     1.0000 0.27297  0.63313  0.72923  Biso   1.000  H
  H433     1.0000 0.28107  0.65823  0.75713  Biso   1.000  H
  C580     1.0000 0.22831  0.57869  0.75684  Biso   1.000  C
  C581     1.0000 0.21976  0.57677  0.78331  Biso   1.000  C
  H434     1.0000 0.23307  0.60763  0.79333  Biso   1.000  H
  C582     1.0000 0.18744  0.52169  0.79550  Biso   1.000  C
  C583     1.0000 0.17571  0.48515  0.78040  Biso   1.000  C
  C584     1.0000 0.18546  0.48636  0.75341  Biso   1.000  C
  H435     1.0000 0.17557  0.45573  0.74363  Biso   1.000  H
  C585     1.0000 0.21229  0.53949  0.74215  Biso   1.000  C
  C586     1.0000 0.21813  0.53680  0.71363  Biso   1.000  C
  H436     1.0000 0.24797  0.56993  0.70753  Biso   1.000  H
  H437     1.0000 0.22527  0.50833  0.70953  Biso   1.000  H
  C587     1.0000 0.16882  0.52712  0.70015  Biso   1.000  C
  C588     1.0000 0.12810  0.47784  0.69719  Biso   1.000  C
  H438     1.0000 0.13217  0.44943  0.70263  Biso   1.000  H
  C589     1.0000 0.08294  0.46771  0.68703  Biso   1.000  C
  C590     1.0000 0.07388  0.50429  0.67942  Biso   1.000  C
  C591     1.0000 0.11462  0.55812  0.68189  Biso   1.000  C
  H439     1.0000 0.10907  0.58613  0.67743  Biso   1.000  H
  C592     1.0000 0.16318  0.56684  0.69128  Biso   1.000  C
  C593     1.0000 0.20240  0.62318  0.69310  Biso   1.000  C
  H440     1.0000 0.19987  0.64053  0.67743  Biso   1.000  H
  H441     1.0000 0.23747  0.62673  0.69323  Biso   1.000  H
  C594     1.0000 0.17795  0.72398  0.79851  Biso   1.000  C
  H442     1.0000 0.21567  0.73763  0.79943  Biso   1.000  H
  H443     1.0000 0.16897  0.74643  0.80843  Biso   1.000  H
  H444     1.0000 0.15947  0.68853  0.80553  Biso   1.000  H
  C595     1.0000 0.13898  0.77340  0.72817  Biso   1.000  C
  C596     1.0000 0.09894  0.78008  0.72184  Biso   1.000  C
  C597     1.0000 0.04739  0.73973  0.72188  Biso   1.000  C
  H445     1.0000 0.03967  0.70463  0.72383  Biso   1.000  H
  C598     1.0000 0.00715  0.75069  0.71906  Biso   1.000  C
  H446     1.0000 0.97187  0.72303  0.71913  Biso   1.000  H
  N69      1.0000 0.01845  0.80198  0.71619  Biso   1.000  N
  C599     1.0000 0.07000  0.84234  0.71615  Biso   1.000  C
  H447     1.0000 0.07777  0.87743  0.71423  Biso   1.000  H
  C600     1.0000 0.11024  0.83138  0.71897  Biso   1.000  C
  H448     1.0000 0.14547  0.85893  0.71893  Biso   1.000  H
  C601     1.0000 0.00917  0.53221  0.66671  Biso   1.000  C
  H449     1.0000 0.03467  0.55953  0.65533  Biso   1.000  H
  H450     1.0000 0.97447  0.51663  0.65893  Biso   1.000  H
  H451     1.0000 0.00887  0.54763  0.68323  Biso   1.000  H
  C602     1.0000 0.03807  0.39343  0.67643  Biso   1.000  C
  C603     1.0000 0.98820  0.32826  0.67248  Biso   1.000  C
  C604     1.0000 0.98649  0.28995  0.65649  Biso   1.000  C
  H452     1.0000 0.01547  0.29733  0.64593  Biso   1.000  H
  C605     1.0000 0.94235  0.24059  0.65601  Biso   1.000  C
  H453     1.0000 0.94117  0.21433  0.64513  Biso   1.000  H
  N70      1.0000 0.89990  0.22962  0.67151  Biso   1.000  N
  C606     1.0000 0.90160  0.26797  0.68750  Biso   1.000  C
  H454     1.0000 0.87257  0.26043  0.69813  Biso   1.000  H
  C607     1.0000 0.94575  0.31730  0.68798  Biso   1.000  C
  H455     1.0000 0.94687  0.34343  0.69893  Biso   1.000  H
  C608     1.0000 0.13780  0.39404  0.78105  Biso   1.000  C
  H456     1.0000 0.16877  0.39763  0.77233  Biso   1.000  H
  H457     1.0000 0.12387  0.36413  0.79273  Biso   1.000  H
  H458     1.0000 0.11117  0.38853  0.76833  Biso   1.000  H
  C609     1.0000 0.13222  0.50718  0.82838  Biso   1.000  C
  C610     1.0000 0.14588  0.51819  0.85861  Biso   1.000  C
  C611     1.0000 0.09706  0.51128  0.87293  Biso   1.000  C
  H459     1.0000 0.06527  0.50403  0.86503  Biso   1.000  H
  C612     1.0000 0.10623  0.51705  0.89818  Biso   1.000  C
  H460     1.0000 0.07597  0.50833  0.90803  Biso   1.000  H
  C613     1.0000 0.19549  0.54562  0.90165  Biso   1.000  C
  H461     1.0000 0.22627  0.55843  0.91163  Biso   1.000  H
  C614     1.0000 0.19428  0.53840  0.87356  Biso   1.000  C
  H462     1.0000 0.22587  0.54713  0.86493  Biso   1.000  H
  C615     1.0000 0.21816  0.56352  0.95830  Biso   1.000  C
  C616     1.0000 0.86527  0.10393  0.69862  Biso   1.000  C
  Cu15     1.0000 0.81867  0.86330  0.28459  Biso   1.000  Cu
  O127     1.0000 0.82983  0.05637  0.10599  Biso   1.000  O
  O128     1.0000 0.78667  0.05292  0.06125  Biso   1.000  O
  O129     1.0000 0.85051  0.13139  0.05774  Biso   1.000  O
  O130     1.0000 0.81713  0.76967  0.12734  Biso   1.000  O
  O131     1.0000 0.85183  0.85627  0.15498  Biso   1.000  O
  O132     1.0000 0.76813  0.84227  0.15128  Biso   1.000  O
  O133     1.0000 0.69050  0.82474  0.00385  Biso   1.000  O
  O134     1.0000 0.70093  0.74637  0.02307  Biso   1.000  O
  O135     1.0000 0.73643  0.72717  0.99157  Biso   1.000  O
  N71      1.0000 0.81403  0.86527  0.24506  Biso   1.000  N
  N72      1.0000 0.92993  0.93697  0.29234  Biso   1.000  N
  N73      1.0000 0.52583  0.46437  0.01995  Biso   1.000  N
  C617     1.0000 0.86556  0.98310  0.04718  Biso   1.000  C
  C618     1.0000 0.83418  0.00454  0.04185  Biso   1.000  C
  H463     1.0000 0.82103  0.00237  0.02507  Biso   1.000  H
  C619     1.0000 0.82198  0.02903  0.06113  Biso   1.000  C
  C620     1.0000 0.84117  0.03209  0.08573  Biso   1.000  C
  C621     1.0000 0.87254  0.01064  0.09106  Biso   1.000  C
  H464     1.0000 0.88563  0.01267  0.10787  Biso   1.000  H
  C622     1.0000 0.88474  0.98615  0.07178  Biso   1.000  C
  C623     1.0000 0.92120  0.96674  0.07833  Biso   1.000  C
  H465     1.0000 0.93963  0.96647  0.06257  Biso   1.000  H
  H466     1.0000 0.94773  0.99157  0.09047  Biso   1.000  H
  C624     1.0000 0.89497  0.91203  0.09018  Biso   1.000  C
  C625     1.0000 0.88642  0.91011  0.11665  Biso   1.000  C
  H467     1.0000 0.89973  0.94097  0.12667  Biso   1.000  H
  C626     1.0000 0.85410  0.85503  0.12884  Biso   1.000  C
  C627     1.0000 0.84237  0.81849  0.11374  Biso   1.000  C
  C628     1.0000 0.85212  0.81970  0.08675  Biso   1.000  C
  H468     1.0000 0.84223  0.78907  0.07697  Biso   1.000  H
  C629     1.0000 0.87895  0.87283  0.07549  Biso   1.000  C
  C630     1.0000 0.88479  0.87014  0.04697  Biso   1.000  C
  H469     1.0000 0.91463  0.90327  0.04087  Biso   1.000  H
  H470     1.0000 0.89193  0.84167  0.04287  Biso   1.000  H
  C631     1.0000 0.83548  0.86046  0.03349  Biso   1.000  C
  C632     1.0000 0.79476  0.81118  0.03053  Biso   1.000  C
  H471     1.0000 0.79883  0.78277  0.03597  Biso   1.000  H
  C633     1.0000 0.74960  0.80105  0.02037  Biso   1.000  C
  C634     1.0000 0.74054  0.83763  0.01276  Biso   1.000  C
  C635     1.0000 0.78128  0.89146  0.01523  Biso   1.000  C
  H472     1.0000 0.77573  0.91947  0.01077  Biso   1.000  H
  C636     1.0000 0.82984  0.90018  0.02462  Biso   1.000  C
  C637     1.0000 0.86906  0.95652  0.02644  Biso   1.000  C
  H473     1.0000 0.86653  0.97387  0.01077  Biso   1.000  H
  H474     1.0000 0.90413  0.96007  0.02657  Biso   1.000  H
  C638     1.0000 0.84461  0.05732  0.13185  Biso   1.000  C
  H475     1.0000 0.88233  0.07097  0.13277  Biso   1.000  H
  H476     1.0000 0.83563  0.07977  0.14177  Biso   1.000  H
  H477     1.0000 0.82613  0.02187  0.13887  Biso   1.000  H
  C639     1.0000 0.80564  0.10674  0.06151  Biso   1.000  C
  C640     1.0000 0.76560  0.11342  0.05518  Biso   1.000  C
  C641     1.0000 0.71405  0.07307  0.05522  Biso   1.000  C
  H478     1.0000 0.70633  0.03797  0.05717  Biso   1.000  H
  C642     1.0000 0.67381  0.08403  0.05240  Biso   1.000  C
  H479     1.0000 0.63853  0.05637  0.05247  Biso   1.000  H
  N74      1.0000 0.68511  0.13532  0.04953  Biso   1.000  N
  C643     1.0000 0.73666  0.17568  0.04949  Biso   1.000  C
  H480     1.0000 0.74443  0.21077  0.04757  Biso   1.000  H
  C644     1.0000 0.77690  0.16472  0.05231  Biso   1.000  C
  H481     1.0000 0.81213  0.19227  0.05227  Biso   1.000  H
  C645     1.0000 0.67583  0.86555  0.00005  Biso   1.000  C
  H482     1.0000 0.70133  0.89287  0.98867  Biso   1.000  H
  H483     1.0000 0.64113  0.84997  0.99227  Biso   1.000  H
  H484     1.0000 0.67553  0.88097  0.01657  Biso   1.000  H
  C646     1.0000 0.70473  0.72677  0.00977  Biso   1.000  C
  C647     1.0000 0.65486  0.66160  0.00582  Biso   1.000  C
  C648     1.0000 0.65315  0.62329  0.98983  Biso   1.000  C
  H485     1.0000 0.68213  0.63067  0.97927  Biso   1.000  H
  C649     1.0000 0.60901  0.57393  0.98935  Biso   1.000  C
  H486     1.0000 0.60783  0.54767  0.97847  Biso   1.000  H
  N75      1.0000 0.56656  0.56296  0.00485  Biso   1.000  N
  C650     1.0000 0.56826  0.60131  0.02084  Biso   1.000  C
  H487     1.0000 0.53923  0.59377  0.03147  Biso   1.000  H
  C651     1.0000 0.61241  0.65064  0.02132  Biso   1.000  C
  H488     1.0000 0.61353  0.67677  0.03227  Biso   1.000  H
  C652     1.0000 0.80446  0.72738  0.11439  Biso   1.000  C
  H489     1.0000 0.83543  0.73097  0.10567  Biso   1.000  H
  H490     1.0000 0.79053  0.69747  0.12607  Biso   1.000  H
  H491     1.0000 0.77783  0.72187  0.10167  Biso   1.000  H
  C653     1.0000 0.79888  0.84052  0.16172  Biso   1.000  C
  C654     1.0000 0.81254  0.85153  0.19195  Biso   1.000  C
  C655     1.0000 0.76372  0.84462  0.20627  Biso   1.000  C
  H492     1.0000 0.73193  0.83737  0.19837  Biso   1.000  H
  C656     1.0000 0.77289  0.85039  0.23152  Biso   1.000  C
  H493     1.0000 0.74263  0.84167  0.24137  Biso   1.000  H
  C657     1.0000 0.86215  0.87896  0.23499  Biso   1.000  C
  H494     1.0000 0.89293  0.89177  0.24497  Biso   1.000  H
  C658     1.0000 0.86094  0.87174  0.20690  Biso   1.000  C
  H495     1.0000 0.89253  0.88047  0.19827  Biso   1.000  H
  C659     1.0000 0.88482  0.89686  0.29164  Biso   1.000  C
  C660     1.0000 0.53193  0.43727  0.03196  Biso   1.000  C
  Cu16     1.0000 0.80337  0.28871  0.61792  Biso   1.000  Cu
  O136     1.0000 0.61030  0.10680  0.43932  Biso   1.000  O
  O137     1.0000 0.61375  0.06709  0.39458  Biso   1.000  O
  O138     1.0000 0.53528  0.05246  0.39107  Biso   1.000  O
  O139     1.0000 0.89700  0.38080  0.46067  Biso   1.000  O
  O140     1.0000 0.81040  0.32890  0.48831  Biso   1.000  O
  O141     1.0000 0.82440  0.25920  0.48461  Biso   1.000  O
  O142     1.0000 0.84193  0.19910  0.33718  Biso   1.000  O
  O143     1.0000 0.92030  0.28790  0.35640  Biso   1.000  O
  O144     1.0000 0.93950  0.34260  0.32490  Biso   1.000  O
  N76      1.0000 0.80140  0.28210  0.57839  Biso   1.000  N
  N77      1.0000 0.72970  0.32630  0.62567  Biso   1.000  N
  N78      1.0000 0.20230  0.39480  0.35328  Biso   1.000  N
  C661     1.0000 0.68357  0.21580  0.38051  Biso   1.000  C
  C662     1.0000 0.66213  0.16298  0.37518  Biso   1.000  C
  H496     1.0000 0.66430  0.15200  0.35840  Biso   1.000  H
  C663     1.0000 0.63764  0.12629  0.39446  Biso   1.000  C
  C664     1.0000 0.63458  0.14242  0.41906  Biso   1.000  C
  C665     1.0000 0.65603  0.19524  0.42439  Biso   1.000  C
  H497     1.0000 0.65400  0.20630  0.44120  Biso   1.000  H
  C666     1.0000 0.68052  0.23193  0.40511  Biso   1.000  C
  C667     1.0000 0.69993  0.28780  0.41166  Biso   1.000  C
  H498     1.0000 0.70020  0.30650  0.39590  Biso   1.000  H
  H499     1.0000 0.67510  0.28950  0.42380  Biso   1.000  H
  C668     1.0000 0.75464  0.31628  0.42351  Biso   1.000  C
  C669     1.0000 0.75656  0.30965  0.44998  Biso   1.000  C
  H500     1.0000 0.72570  0.29210  0.46000  Biso   1.000  H
  C670     1.0000 0.81164  0.33241  0.46217  Biso   1.000  C
  C671     1.0000 0.84818  0.35722  0.44707  Biso   1.000  C
  C672     1.0000 0.84697  0.36576  0.42008  Biso   1.000  C
  H501     1.0000 0.87760  0.38650  0.41030  Biso   1.000  H
  C673     1.0000 0.79384  0.33946  0.40882  Biso   1.000  C
  C674     1.0000 0.79653  0.34799  0.38030  Biso   1.000  C
  H502     1.0000 0.76340  0.34470  0.37420  Biso   1.000  H
  H503     1.0000 0.82500  0.38360  0.37620  Biso   1.000  H
  C675     1.0000 0.80621  0.30836  0.36682  Biso   1.000  C
  C676     1.0000 0.85549  0.31692  0.36386  Biso   1.000  C
  H504     1.0000 0.88390  0.34940  0.36930  Biso   1.000  H
  C677     1.0000 0.86562  0.28189  0.35370  Biso   1.000  C
  C678     1.0000 0.82904  0.23625  0.34609  Biso   1.000  C
  C679     1.0000 0.77521  0.22316  0.34856  Biso   1.000  C
  H505     1.0000 0.74720  0.18960  0.34410  Biso   1.000  H
  C680     1.0000 0.76649  0.26300  0.35795  Biso   1.000  C
  C681     1.0000 0.71015  0.24588  0.35977  Biso   1.000  C
  H506     1.0000 0.69280  0.22600  0.34410  Biso   1.000  H
  H507     1.0000 0.70660  0.27740  0.35990  Biso   1.000  H
  C682     1.0000 0.60935  0.12063  0.46518  Biso   1.000  C
  H508     1.0000 0.59570  0.14470  0.46610  Biso   1.000  H
  H509     1.0000 0.58690  0.08920  0.47510  Biso   1.000  H
  H510     1.0000 0.64480  0.13760  0.47220  Biso   1.000  H
  C683     1.0000 0.55993  0.03224  0.39484  Biso   1.000  C
  C684     1.0000 0.55325  0.98552  0.38851  Biso   1.000  C
  C685     1.0000 0.59360  0.97432  0.38855  Biso   1.000  C
  H511     1.0000 0.62870  0.00170  0.39050  Biso   1.000  H
  C686     1.0000 0.58264  0.92312  0.38573  Biso   1.000  C
  H512     1.0000 0.61030  0.91550  0.38580  Biso   1.000  H
  N79      1.0000 0.53135  0.88313  0.38286  Biso   1.000  N
  C687     1.0000 0.49099  0.89432  0.38282  Biso   1.000  C
  H513     1.0000 0.45590  0.86700  0.38090  Biso   1.000  H
  C688     1.0000 0.50195  0.94552  0.38564  Biso   1.000  C
  H514     1.0000 0.47440  0.95320  0.38560  Biso   1.000  H
  C689     1.0000 0.80112  0.14362  0.33338  Biso   1.000  C
  H515     1.0000 0.77380  0.14180  0.32200  Biso   1.000  H
  H516     1.0000 0.81670  0.12450  0.32560  Biso   1.000  H
  H517     1.0000 0.78570  0.12790  0.34990  Biso   1.000  H
  C690     1.0000 0.93990  0.31130  0.34310  Biso   1.000  C
  C691     1.0000 0.00507  0.32660  0.33915  Biso   1.000  C
  C692     1.0000 0.04338  0.36320  0.32316  Biso   1.000  C
  H518     1.0000 0.03600  0.38480  0.31260  Biso   1.000  H
  C693     1.0000 0.09274  0.36842  0.32268  Biso   1.000  C
  H519     1.0000 0.11900  0.39350  0.31180  Biso   1.000  H
  N80      1.0000 0.10371  0.33694  0.33818  Biso   1.000  N
  C694     1.0000 0.06536  0.30029  0.35417  Biso   1.000  C
  H520     1.0000 0.07290  0.27880  0.36480  Biso   1.000  H
  C695     1.0000 0.01603  0.29511  0.35465  Biso   1.000  C
  H521     1.0000 0.98990  0.27010  0.36560  Biso   1.000  H
  C696     1.0000 0.93929  0.41042  0.44772  Biso   1.000  C
  H522     1.0000 0.93570  0.43780  0.43900  Biso   1.000  H
  H523     1.0000 0.96920  0.42640  0.45940  Biso   1.000  H
  H524     1.0000 0.94480  0.38930  0.43500  Biso   1.000  H
  C697     1.0000 0.82615  0.29170  0.49505  Biso   1.000  C
  C698     1.0000 0.81514  0.29435  0.52528  Biso   1.000  C
  C699     1.0000 0.82205  0.25244  0.53960  Biso   1.000  C
  H525     1.0000 0.82930  0.22790  0.53170  Biso   1.000  H
  C700     1.0000 0.81628  0.25584  0.56485  Biso   1.000  C
  H526     1.0000 0.82500  0.23430  0.57470  Biso   1.000  H
  C701     1.0000 0.78771  0.31653  0.56832  Biso   1.000  C
  H527     1.0000 0.77490  0.33450  0.57830  Biso   1.000  H
  C702     1.0000 0.79493  0.32254  0.54023  Biso   1.000  C
  H528     1.0000 0.78620  0.34540  0.53160  Biso   1.000  H
  C703     1.0000 0.76981  0.32130  0.62497  Biso   1.000  C
  C704     1.0000 0.22940  0.42800  0.36529  Biso   1.000  C
  Cu17     1.0000 0.47004  0.62204  0.95125  Biso   1.000  Cu
  O145     1.0000 0.27697  0.44013  0.77265  Biso   1.000  O
  O146     1.0000 0.28042  0.40042  0.72791  Biso   1.000  O
  O147     1.0000 0.20195  0.38579  0.72440  Biso   1.000  O
  O148     1.0000 0.56367  0.71413  0.79400  Biso   1.000  O
  O149     1.0000 0.47707  0.66223  0.82164  Biso   1.000  O
  O150     1.0000 0.49107  0.59253  0.81794  Biso   1.000  O
  O151     1.0000 0.50860  0.53243  0.67051  Biso   1.000  O
  O152     1.0000 0.58697  0.62123  0.68973  Biso   1.000  O
  O153     1.0000 0.60617  0.67593  0.65823  Biso   1.000  O
  N81      1.0000 0.46807  0.61543  0.91172  Biso   1.000  N
  N82      1.0000 0.39637  0.65963  0.95900  Biso   1.000  N
  N83      1.0000 0.86897  0.72813  0.68661  Biso   1.000  N
  C705     1.0000 0.35024  0.54913  0.71384  Biso   1.000  C
  C706     1.0000 0.32880  0.49631  0.70851  Biso   1.000  C
  H529     1.0000 0.33097  0.48533  0.69173  Biso   1.000  H
  C707     1.0000 0.30431  0.45962  0.72779  Biso   1.000  C
  C708     1.0000 0.30125  0.47575  0.75239  Biso   1.000  C
  C709     1.0000 0.32270  0.52857  0.75772  Biso   1.000  C
  H530     1.0000 0.32067  0.53963  0.77453  Biso   1.000  H
  C710     1.0000 0.34719  0.56526  0.73844  Biso   1.000  C
  C711     1.0000 0.36660  0.62113  0.74499  Biso   1.000  C
  H531     1.0000 0.36687  0.63983  0.72923  Biso   1.000  H
  H532     1.0000 0.34177  0.62283  0.75713  Biso   1.000  H
  C712     1.0000 0.42131  0.64961  0.75684  Biso   1.000  C
  C713     1.0000 0.42323  0.64298  0.78331  Biso   1.000  C
  H533     1.0000 0.39237  0.62543  0.79333  Biso   1.000  H
  C714     1.0000 0.47831  0.66574  0.79550  Biso   1.000  C
  C715     1.0000 0.51485  0.69055  0.78040  Biso   1.000  C
  C716     1.0000 0.51364  0.69909  0.75341  Biso   1.000  C
  H534     1.0000 0.54427  0.71983  0.74363  Biso   1.000  H
  C717     1.0000 0.46051  0.67279  0.74215  Biso   1.000  C
  C718     1.0000 0.46320  0.68132  0.71363  Biso   1.000  C
  H535     1.0000 0.43007  0.67803  0.70753  Biso   1.000  H
  H536     1.0000 0.49167  0.71693  0.70953  Biso   1.000  H
  C719     1.0000 0.47288  0.64169  0.70015  Biso   1.000  C
  C720     1.0000 0.52216  0.65025  0.69719  Biso   1.000  C
  H537     1.0000 0.55057  0.68273  0.70263  Biso   1.000  H
  C721     1.0000 0.53229  0.61522  0.68703  Biso   1.000  C
  C722     1.0000 0.49571  0.56958  0.67942  Biso   1.000  C
  C723     1.0000 0.44188  0.55649  0.68189  Biso   1.000  C
  H538     1.0000 0.41387  0.52293  0.67743  Biso   1.000  H
  C724     1.0000 0.43316  0.59633  0.69128  Biso   1.000  C
  C725     1.0000 0.37682  0.57921  0.69310  Biso   1.000  C
  H539     1.0000 0.35947  0.55933  0.67743  Biso   1.000  H
  H540     1.0000 0.37327  0.61073  0.69323  Biso   1.000  H
  C726     1.0000 0.27602  0.45396  0.79851  Biso   1.000  C
  H541     1.0000 0.26237  0.47803  0.79943  Biso   1.000  H
  H542     1.0000 0.25357  0.42253  0.80843  Biso   1.000  H
  H543     1.0000 0.31147  0.47093  0.80553  Biso   1.000  H
  C727     1.0000 0.22660  0.36557  0.72817  Biso   1.000  C
  C728     1.0000 0.21992  0.31885  0.72184  Biso   1.000  C
  C729     1.0000 0.26027  0.30765  0.72188  Biso   1.000  C
  H544     1.0000 0.29537  0.33503  0.72383  Biso   1.000  H
  C730     1.0000 0.24931  0.25645  0.71906  Biso   1.000  C
  H545     1.0000 0.27697  0.24883  0.71913  Biso   1.000  H
  N84      1.0000 0.19802  0.21646  0.71619  Biso   1.000  N
  C731     1.0000 0.15766  0.22765  0.71615  Biso   1.000  C
  H546     1.0000 0.12257  0.20033  0.71423  Biso   1.000  H
  C732     1.0000 0.16862  0.27885  0.71897  Biso   1.000  C
  H547     1.0000 0.14107  0.28653  0.71893  Biso   1.000  H
  C733     1.0000 0.46779  0.47695  0.66671  Biso   1.000  C
  H548     1.0000 0.44047  0.47513  0.65533  Biso   1.000  H
  H549     1.0000 0.48337  0.45783  0.65893  Biso   1.000  H
  H550     1.0000 0.45237  0.46123  0.68323  Biso   1.000  H
  C734     1.0000 0.60657  0.64463  0.67643  Biso   1.000  C
  C735     1.0000 0.67174  0.65993  0.67248  Biso   1.000  C
  C736     1.0000 0.71005  0.69653  0.65649  Biso   1.000  C
  H551     1.0000 0.70267  0.71813  0.64593  Biso   1.000  H
  C737     1.0000 0.75941  0.70175  0.65601  Biso   1.000  C
  H552     1.0000 0.78567  0.72683  0.64513  Biso   1.000  H
  N85      1.0000 0.77038  0.67027  0.67151  Biso   1.000  N
  C738     1.0000 0.73203  0.63362  0.68750  Biso   1.000  C
  H553     1.0000 0.73957  0.61213  0.69813  Biso   1.000  H
  C739     1.0000 0.68270  0.62844  0.68798  Biso   1.000  C
  H554     1.0000 0.65657  0.60343  0.69893  Biso   1.000  H
  C740     1.0000 0.60596  0.74375  0.78105  Biso   1.000  C
  H555     1.0000 0.60237  0.77113  0.77233  Biso   1.000  H
  H556     1.0000 0.63587  0.75973  0.79273  Biso   1.000  H
  H557     1.0000 0.61147  0.72263  0.76833  Biso   1.000  H
  C741     1.0000 0.49282  0.62503  0.82838  Biso   1.000  C
  C742     1.0000 0.48181  0.62768  0.85861  Biso   1.000  C
  C743     1.0000 0.48872  0.58577  0.87293  Biso   1.000  C
  H558     1.0000 0.49597  0.56123  0.86503  Biso   1.000  H
  C744     1.0000 0.48295  0.58917  0.89818  Biso   1.000  C
  H559     1.0000 0.49167  0.56763  0.90803  Biso   1.000  H
  C745     1.0000 0.45438  0.64986  0.90165  Biso   1.000  C
  H560     1.0000 0.44157  0.66783  0.91163  Biso   1.000  H
  C746     1.0000 0.46160  0.65587  0.87356  Biso   1.000  C
  H561     1.0000 0.45287  0.67873  0.86493  Biso   1.000  H
  C747     1.0000 0.43648  0.65463  0.95830  Biso   1.000  C
  C748     1.0000 0.89607  0.76133  0.69862  Biso   1.000  C
  Cu18     1.0000 0.13670  0.95538  0.28459  Biso   1.000  Cu
  O154     1.0000 0.94363  0.77347  0.10599  Biso   1.000  O
  O155     1.0000 0.94708  0.73376  0.06125  Biso   1.000  O
  O156     1.0000 0.86861  0.71913  0.05774  Biso   1.000  O
  O157     1.0000 0.23033  0.04747  0.12734  Biso   1.000  O
  O158     1.0000 0.14373  0.99557  0.15498  Biso   1.000  O
  O159     1.0000 0.15773  0.92587  0.15128  Biso   1.000  O
  O160     1.0000 0.17526  0.86577  0.00385  Biso   1.000  O
  O161     1.0000 0.25363  0.95457  0.02307  Biso   1.000  O
  O162     1.0000 0.27283  0.00927  0.99157  Biso   1.000  O
  N86      1.0000 0.13473  0.94877  0.24506  Biso   1.000  N
  N87      1.0000 0.06303  0.99297  0.29234  Biso   1.000  N
  N88      1.0000 0.53563  0.06147  0.01995  Biso   1.000  N
  C749     1.0000 0.01690  0.88247  0.04718  Biso   1.000  C
  C750     1.0000 0.99546  0.82965  0.04185  Biso   1.000  C
  H562     1.0000 0.99763  0.81867  0.02507  Biso   1.000  H
  C751     1.0000 0.97097  0.79296  0.06113  Biso   1.000  C
  C752     1.0000 0.96791  0.80909  0.08573  Biso   1.000  C
  C753     1.0000 0.98936  0.86191  0.09106  Biso   1.000  C
  H563     1.0000 0.98733  0.87297  0.10787  Biso   1.000  H
  C754     1.0000 0.01385  0.89860  0.07178  Biso   1.000  C
  C755     1.0000 0.03326  0.95447  0.07833  Biso   1.000  C
  H564     1.0000 0.03353  0.97317  0.06257  Biso   1.000  H
  H565     1.0000 0.00843  0.95617  0.09047  Biso   1.000  H
  C756     1.0000 0.08797  0.98295  0.09018  Biso   1.000  C
  C757     1.0000 0.08989  0.97632  0.11665  Biso   1.000  C
  H566     1.0000 0.05903  0.95877  0.12667  Biso   1.000  H
  C758     1.0000 0.14497  0.99908  0.12884  Biso   1.000  C
  C759     1.0000 0.18151  0.02389  0.11374  Biso   1.000  C
  C760     1.0000 0.18030  0.03243  0.08675  Biso   1.000  C
  H567     1.0000 0.21093  0.05317  0.07697  Biso   1.000  H
  C761     1.0000 0.12717  0.00613  0.07549  Biso   1.000  C
  C762     1.0000 0.12986  0.01466  0.04697  Biso   1.000  C
  H568     1.0000 0.09673  0.01137  0.04087  Biso   1.000  H
  H569     1.0000 0.15833  0.05027  0.04287  Biso   1.000  H
  C763     1.0000 0.13954  0.97503  0.03349  Biso   1.000  C
  C764     1.0000 0.18882  0.98359  0.03053  Biso   1.000  C
  H570     1.0000 0.21723  0.01607  0.03597  Biso   1.000  H
  C765     1.0000 0.19895  0.94856  0.02037  Biso   1.000  C
  C766     1.0000 0.16237  0.90292  0.01276  Biso   1.000  C
  C767     1.0000 0.10854  0.88983  0.01523  Biso   1.000  C
  H571     1.0000 0.08053  0.85627  0.01077  Biso   1.000  H
  C768     1.0000 0.09982  0.92967  0.02462  Biso   1.000  C
  C769     1.0000 0.04348  0.91255  0.02644  Biso   1.000  C
  H572     1.0000 0.02613  0.89267  0.01077  Biso   1.000  H
  H573     1.0000 0.03993  0.94407  0.02657  Biso   1.000  H
  C770     1.0000 0.94268  0.78730  0.13185  Biso   1.000  C
  H574     1.0000 0.92903  0.81137  0.13277  Biso   1.000  H
  H575     1.0000 0.92023  0.75587  0.14177  Biso   1.000  H
  H576     1.0000 0.97813  0.80427  0.13887  Biso   1.000  H
  C771     1.0000 0.89326  0.69891  0.06151  Biso   1.000  C
  C772     1.0000 0.88658  0.65219  0.05518  Biso   1.000  C
  C773     1.0000 0.92693  0.64099  0.05522  Biso   1.000  C
  H577     1.0000 0.96203  0.66837  0.05717  Biso   1.000  H
  C774     1.0000 0.91597  0.58979  0.05240  Biso   1.000  C
  H578     1.0000 0.94363  0.58217  0.05247  Biso   1.000  H
  N89      1.0000 0.86468  0.54980  0.04953  Biso   1.000  N
  C775     1.0000 0.82432  0.56099  0.04949  Biso   1.000  C
  H579     1.0000 0.78923  0.53367  0.04757  Biso   1.000  H
  C776     1.0000 0.83528  0.61219  0.05231  Biso   1.000  C
  H580     1.0000 0.80773  0.61987  0.05227  Biso   1.000  H
  C777     1.0000 0.13445  0.81029  0.00005  Biso   1.000  C
  H581     1.0000 0.10713  0.80847  0.98867  Biso   1.000  H
  H582     1.0000 0.15003  0.79117  0.99227  Biso   1.000  H
  H583     1.0000 0.11903  0.79457  0.01657  Biso   1.000  H
  C778     1.0000 0.27323  0.97797  0.00977  Biso   1.000  C
  C779     1.0000 0.33840  0.99327  0.00582  Biso   1.000  C
  C780     1.0000 0.37671  0.02987  0.98983  Biso   1.000  C
  H584     1.0000 0.36933  0.05147  0.97927  Biso   1.000  H
  C781     1.0000 0.42607  0.03509  0.98935  Biso   1.000  C
  H585     1.0000 0.45233  0.06017  0.97847  Biso   1.000  H
  N90      1.0000 0.43704  0.00361  0.00485  Biso   1.000  N
  C782     1.0000 0.39869  0.96696  0.02084  Biso   1.000  C
  H586     1.0000 0.40623  0.94547  0.03147  Biso   1.000  H
  C783     1.0000 0.34936  0.96178  0.02132  Biso   1.000  C
  H587     1.0000 0.32323  0.93677  0.03227  Biso   1.000  H
  C784     1.0000 0.27262  0.07709  0.11439  Biso   1.000  C
  H588     1.0000 0.26903  0.10447  0.10567  Biso   1.000  H
  H589     1.0000 0.30253  0.09307  0.12607  Biso   1.000  H
  H590     1.0000 0.27813  0.05597  0.10167  Biso   1.000  H
  C785     1.0000 0.15948  0.95837  0.16172  Biso   1.000  C
  C786     1.0000 0.14847  0.96102  0.19195  Biso   1.000  C
  C787     1.0000 0.15538  0.91911  0.20627  Biso   1.000  C
  H591     1.0000 0.16263  0.89457  0.19837  Biso   1.000  H
  C788     1.0000 0.14961  0.92251  0.23152  Biso   1.000  C
  H592     1.0000 0.15833  0.90097  0.24137  Biso   1.000  H
  C789     1.0000 0.12104  0.98320  0.23499  Biso   1.000  C
  H593     1.0000 0.10823  0.00117  0.24497  Biso   1.000  H
  C790     1.0000 0.12826  0.98921  0.20690  Biso   1.000  C
  H594     1.0000 0.11953  0.01207  0.19827  Biso   1.000  H
  C791     1.0000 0.10314  0.98797  0.29164  Biso   1.000  C
  C792     1.0000 0.56273  0.09467  0.03196  Biso   1.000  C
  Cu19     1.0000 0.33333  0.16667  0.66667  Biso   1.000  Cu
  Cu20     1.0000 0.00000  0.50000  0.00000  Biso   1.000  Cu
  Cu21     1.0000 0.83333  0.16667  0.66667  Biso   1.000  Cu
  Cu22     1.0000 0.50000  0.50000  0.00000  Biso   1.000  Cu
  Cu23     1.0000 0.83333  0.66667  0.66667  Biso   1.000  Cu
  Cu24     1.0000 0.50000  0.00000  0.00000  Biso   1.000  Cu
  Cu25     1.0000 0.66667  0.83333  0.33333  Biso   1.000  Cu
  Cu26     1.0000 0.16667  0.83333  0.33333  Biso   1.000  Cu
  Cu27     1.0000 0.16667  0.33333  0.33333  Biso   1.000  Cu
  Cu28     1.0000 0.33333  0.66667  0.37324  Biso   1.000  Cu
  Cu29     1.0000 0.00000  0.00000  0.70657  Biso   1.000  Cu
  Cu30     1.0000 0.66667  0.33333  0.03991  Biso   1.000  Cu
  Cu31     1.0000 0.66667  0.33333  0.62676  Biso   1.000  Cu
  Cu32     1.0000 0.33333  0.66667  0.96009  Biso   1.000  Cu
  Cu33     1.0000 0.00000  0.00000  0.29343  Biso   1.000  Cu
