data_image0
_cell_length_a       36.405
_cell_length_b       36.405
_cell_length_c       11.6941
_cell_angle_alpha    90
_cell_angle_beta     90
_cell_angle_gamma    120

_symmetry_space_group_name_H-M    "P 1"
_symmetry_int_tables_number       1

loop_
  _symmetry_equiv_pos_as_xyz
  'x, y, z'

loop_
  _atom_site_label
  _atom_site_occupancy
  _atom_site_fract_x
  _atom_site_fract_y
  _atom_site_fract_z
  _atom_site_thermal_displace_type
  _atom_site_B_iso_or_equiv
  _atom_site_type_symbol
  Nd1      1.0000 0.37974  0.14983  0.67494  Biso   1.000  Nd
  O1       1.0000 0.41056  0.22510  0.62780  Biso   1.000  O
  O2       1.0000 0.35941  0.24258  0.63790  Biso   1.000  O
  O3       1.0000 0.44794  0.40512  0.80660  Biso   1.000  O
  O4       1.0000 0.51227  0.41441  0.81660  Biso   1.000  O
  O5       1.0000 0.34083  0.17450  0.78850  Biso   1.000  O
  O6       1.0000 0.29830  0.19050  0.87770  Biso   1.000  O
  O7       1.0000 0.45105  0.17374  0.59690  Biso   1.000  O
  O8       1.0000 0.38179  0.08582  0.60920  Biso   1.000  O
  C1       1.0000 0.39655  0.25026  0.62350  Biso   1.000  C
  C2       1.0000 0.42751  0.29674  0.59830  Biso   1.000  C
  C3       1.0000 0.44286  0.32557  0.68850  Biso   1.000  C
  C4       1.0000 0.46549  0.36912  0.66880  Biso   1.000  C
  C5       1.0000 0.47670  0.39922  0.77010  Biso   1.000  C
  C6       1.0000 0.47359  0.38358  0.55620  Biso   1.000  C
  C7       1.0000 0.46040  0.35590  0.46150  Biso   1.000  C
  C8       1.0000 0.43724  0.31199  0.48710  Biso   1.000  C
  C9       1.0000 0.32760  0.18240  0.87680  Biso   1.000  C
  C10      1.0000 0.47150  0.20090  0.52850  Biso   1.000  C
  H1       1.0000 0.45880  0.21480  0.49430  Biso   1.000  H
  C11      1.0000 0.52630  0.24180  0.40000  Biso   1.000  C
  H2       1.0000 0.50950  0.25520  0.39140  Biso   1.000  H
  H3       1.0000 0.52430  0.22630  0.33150  Biso   1.000  H
  H4       1.0000 0.55540  0.26300  0.41270  Biso   1.000  H
  C12      1.0000 0.52990  0.18330  0.54600  Biso   1.000  C
  H5       1.0000 0.51450  0.16830  0.61310  Biso   1.000  H
  H6       1.0000 0.55930  0.20120  0.56490  Biso   1.000  H
  H7       1.0000 0.52710  0.16340  0.48820  Biso   1.000  H
  C13      1.0000 0.35320  0.05060  0.58260  Biso   1.000  C
  H8       1.0000 0.32610  0.04700  0.57660  Biso   1.000  H
  C14      1.0000 0.39740  0.01950  0.56930  Biso   1.000  C
  H9       1.0000 0.41900  0.04830  0.58380  Biso   1.000  H
  H10      1.0000 0.40340  0.01000  0.49880  Biso   1.000  H
  H11      1.0000 0.39690  0.00170  0.63080  Biso   1.000  H
  C15      1.0000 0.32090  0.97570  0.54080  Biso   1.000  C
  H12      1.0000 0.29570  0.97790  0.53710  Biso   1.000  H
  H13      1.0000 0.31820  0.95690  0.60200  Biso   1.000  H
  H14      1.0000 0.32460  0.96470  0.46980  Biso   1.000  H
  N1       1.0000 0.46850  0.37037  0.35120  Biso   1.000  N
  N2       1.0000 0.51060  0.21240  0.49820  Biso   1.000  N
  N3       1.0000 0.35720  0.01710  0.56150  Biso   1.000  N
  I1       1.0000 0.43329  0.30190  0.85625  Biso   1.000  I
  I2       1.0000 0.50627  0.44923  0.52525  Biso   1.000  I
  I3       1.0000 0.41719  0.26810  0.35274  Biso   1.000  I
  Nd2      1.0000 0.04641  0.48317  0.00827  Biso   1.000  Nd
  O9       1.0000 0.07723  0.55843  0.96113  Biso   1.000  O
  O10      1.0000 0.02608  0.57591  0.97123  Biso   1.000  O
  O11      1.0000 0.11461  0.73845  0.13993  Biso   1.000  O
  O12      1.0000 0.17894  0.74774  0.14993  Biso   1.000  O
  O13      1.0000 0.00750  0.50783  0.12183  Biso   1.000  O
  O14      1.0000 0.96497  0.52383  0.21103  Biso   1.000  O
  O15      1.0000 0.11772  0.50707  0.93023  Biso   1.000  O
  O16      1.0000 0.04846  0.41915  0.94253  Biso   1.000  O
  C16      1.0000 0.06322  0.58359  0.95683  Biso   1.000  C
  C17      1.0000 0.09418  0.63007  0.93163  Biso   1.000  C
  C18      1.0000 0.10953  0.65890  0.02183  Biso   1.000  C
  C19      1.0000 0.13216  0.70245  0.00213  Biso   1.000  C
  C20      1.0000 0.14337  0.73255  0.10343  Biso   1.000  C
  C21      1.0000 0.14026  0.71691  0.88953  Biso   1.000  C
  C22      1.0000 0.12707  0.68923  0.79483  Biso   1.000  C
  C23      1.0000 0.10391  0.64532  0.82043  Biso   1.000  C
  C24      1.0000 0.99427  0.51573  0.21013  Biso   1.000  C
  C25      1.0000 0.13817  0.53423  0.86183  Biso   1.000  C
  H15      1.0000 0.12547  0.54813  0.82763  Biso   1.000  H
  C26      1.0000 0.19297  0.57513  0.73333  Biso   1.000  C
  H16      1.0000 0.17617  0.58853  0.72473  Biso   1.000  H
  H17      1.0000 0.19097  0.55963  0.66483  Biso   1.000  H
  H18      1.0000 0.22207  0.59633  0.74603  Biso   1.000  H
  C27      1.0000 0.19657  0.51663  0.87933  Biso   1.000  C
  H19      1.0000 0.18117  0.50163  0.94643  Biso   1.000  H
  H20      1.0000 0.22597  0.53453  0.89823  Biso   1.000  H
  H21      1.0000 0.19377  0.49673  0.82153  Biso   1.000  H
  C28      1.0000 0.01987  0.38393  0.91593  Biso   1.000  C
  H22      1.0000 0.99277  0.38033  0.90993  Biso   1.000  H
  C29      1.0000 0.06407  0.35283  0.90263  Biso   1.000  C
  H23      1.0000 0.08567  0.38163  0.91713  Biso   1.000  H
  H24      1.0000 0.07007  0.34333  0.83213  Biso   1.000  H
  H25      1.0000 0.06357  0.33503  0.96413  Biso   1.000  H
  C30      1.0000 0.98757  0.30903  0.87413  Biso   1.000  C
  H26      1.0000 0.96237  0.31123  0.87043  Biso   1.000  H
  H27      1.0000 0.98487  0.29023  0.93533  Biso   1.000  H
  H28      1.0000 0.99127  0.29803  0.80313  Biso   1.000  H
  N4       1.0000 0.13517  0.70370  0.68453  Biso   1.000  N
  N5       1.0000 0.17727  0.54573  0.83153  Biso   1.000  N
  N6       1.0000 0.02387  0.35043  0.89483  Biso   1.000  N
  I4       1.0000 0.09996  0.63523  0.18958  Biso   1.000  I
  I5       1.0000 0.17294  0.78256  0.85858  Biso   1.000  I
  I6       1.0000 0.08386  0.60144  0.68607  Biso   1.000  I
  Nd3      1.0000 0.71307  0.81650  0.34161  Biso   1.000  Nd
  O17      1.0000 0.74389  0.89177  0.29447  Biso   1.000  O
  O18      1.0000 0.69274  0.90925  0.30457  Biso   1.000  O
  O19      1.0000 0.78127  0.07179  0.47327  Biso   1.000  O
  O20      1.0000 0.84560  0.08108  0.48327  Biso   1.000  O
  O21      1.0000 0.67416  0.84117  0.45517  Biso   1.000  O
  O22      1.0000 0.63163  0.85717  0.54437  Biso   1.000  O
  O23      1.0000 0.78438  0.84041  0.26357  Biso   1.000  O
  O24      1.0000 0.71512  0.75249  0.27587  Biso   1.000  O
  C31      1.0000 0.72988  0.91693  0.29017  Biso   1.000  C
  C32      1.0000 0.76084  0.96341  0.26497  Biso   1.000  C
  C33      1.0000 0.77619  0.99224  0.35517  Biso   1.000  C
  C34      1.0000 0.79882  0.03579  0.33547  Biso   1.000  C
  C35      1.0000 0.81003  0.06589  0.43677  Biso   1.000  C
  C36      1.0000 0.80692  0.05025  0.22287  Biso   1.000  C
  C37      1.0000 0.79373  0.02257  0.12817  Biso   1.000  C
  C38      1.0000 0.77057  0.97866  0.15377  Biso   1.000  C
  C39      1.0000 0.66093  0.84907  0.54347  Biso   1.000  C
  C40      1.0000 0.80483  0.86757  0.19517  Biso   1.000  C
  H29      1.0000 0.79213  0.88147  0.16097  Biso   1.000  H
  C41      1.0000 0.85963  0.90847  0.06667  Biso   1.000  C
  H30      1.0000 0.84283  0.92187  0.05807  Biso   1.000  H
  H31      1.0000 0.85763  0.89297  0.99817  Biso   1.000  H
  H32      1.0000 0.88873  0.92967  0.07937  Biso   1.000  H
  C42      1.0000 0.86323  0.84997  0.21267  Biso   1.000  C
  H33      1.0000 0.84783  0.83497  0.27977  Biso   1.000  H
  H34      1.0000 0.89263  0.86787  0.23157  Biso   1.000  H
  H35      1.0000 0.86043  0.83007  0.15487  Biso   1.000  H
  C43      1.0000 0.68653  0.71727  0.24927  Biso   1.000  C
  H36      1.0000 0.65943  0.71367  0.24327  Biso   1.000  H
  C44      1.0000 0.73073  0.68617  0.23597  Biso   1.000  C
  H37      1.0000 0.75233  0.71497  0.25047  Biso   1.000  H
  H38      1.0000 0.73673  0.67667  0.16547  Biso   1.000  H
  H39      1.0000 0.73023  0.66837  0.29747  Biso   1.000  H
  C45      1.0000 0.65423  0.64237  0.20747  Biso   1.000  C
  H40      1.0000 0.62903  0.64457  0.20377  Biso   1.000  H
  H41      1.0000 0.65153  0.62357  0.26867  Biso   1.000  H
  H42      1.0000 0.65793  0.63137  0.13647  Biso   1.000  H
  N7       1.0000 0.80183  0.03704  0.01787  Biso   1.000  N
  N8       1.0000 0.84393  0.87907  0.16487  Biso   1.000  N
  N9       1.0000 0.69053  0.68377  0.22817  Biso   1.000  N
  I7       1.0000 0.76662  0.96856  0.52292  Biso   1.000  I
  I8       1.0000 0.83961  0.11589  0.19192  Biso   1.000  I
  I9       1.0000 0.75052  0.93477  0.01941  Biso   1.000  I
  Nd4      1.0000 0.85017  0.22990  0.67494  Biso   1.000  Nd
  O25      1.0000 0.77490  0.18546  0.62780  Biso   1.000  O
  O26      1.0000 0.75742  0.11683  0.63790  Biso   1.000  O
  O27      1.0000 0.59488  0.04282  0.80660  Biso   1.000  O
  O28      1.0000 0.58559  0.09786  0.81660  Biso   1.000  O
  O29      1.0000 0.82550  0.16633  0.78850  Biso   1.000  O
  O30      1.0000 0.80950  0.10780  0.87770  Biso   1.000  O
  O31      1.0000 0.82626  0.27731  0.59690  Biso   1.000  O
  O32      1.0000 0.91418  0.29597  0.60920  Biso   1.000  O
  C46      1.0000 0.74974  0.14629  0.62350  Biso   1.000  C
  C47      1.0000 0.70326  0.13077  0.59830  Biso   1.000  C
  C48      1.0000 0.67443  0.11729  0.68850  Biso   1.000  C
  C49      1.0000 0.63088  0.09637  0.66880  Biso   1.000  C
  C50      1.0000 0.60078  0.07748  0.77010  Biso   1.000  C
  C51      1.0000 0.61642  0.09001  0.55620  Biso   1.000  C
  C52      1.0000 0.64410  0.10450  0.46150  Biso   1.000  C
  C53      1.0000 0.68801  0.12525  0.48710  Biso   1.000  C
  C54      1.0000 0.81760  0.14520  0.87680  Biso   1.000  C
  C55      1.0000 0.79910  0.27060  0.52850  Biso   1.000  C
  H43      1.0000 0.78520  0.24400  0.49430  Biso   1.000  H
  C56      1.0000 0.75820  0.28450  0.40000  Biso   1.000  C
  H44      1.0000 0.74480  0.25430  0.39140  Biso   1.000  H
  H45      1.0000 0.77370  0.29800  0.33150  Biso   1.000  H
  H46      1.0000 0.73700  0.29240  0.41270  Biso   1.000  H
  C57      1.0000 0.81670  0.34660  0.54600  Biso   1.000  C
  H47      1.0000 0.83170  0.34620  0.61310  Biso   1.000  H
  H48      1.0000 0.79880  0.35810  0.56490  Biso   1.000  H
  H49      1.0000 0.83660  0.36370  0.48820  Biso   1.000  H
  C58      1.0000 0.94940  0.30260  0.58260  Biso   1.000  C
  H50      1.0000 0.95300  0.27910  0.57660  Biso   1.000  H
  C59      1.0000 0.98050  0.37790  0.56930  Biso   1.000  C
  H51      1.0000 0.95170  0.37070  0.58380  Biso   1.000  H
  H52      1.0000 0.99000  0.39340  0.49880  Biso   1.000  H
  H53      1.0000 0.99830  0.39520  0.63080  Biso   1.000  H
  C60      1.0000 0.02430  0.34520  0.54080  Biso   1.000  C
  H54      1.0000 0.02210  0.31780  0.53710  Biso   1.000  H
  H55      1.0000 0.04310  0.36130  0.60200  Biso   1.000  H
  H56      1.0000 0.03530  0.35990  0.46980  Biso   1.000  H
  N10      1.0000 0.62963  0.09813  0.35120  Biso   1.000  N
  N11      1.0000 0.78760  0.29820  0.49820  Biso   1.000  N
  N12      1.0000 0.98290  0.34010  0.56150  Biso   1.000  N
  I10      1.0000 0.69810  0.13139  0.85625  Biso   1.000  I
  I11      1.0000 0.55077  0.05705  0.52525  Biso   1.000  I
  I12      1.0000 0.73190  0.14909  0.35274  Biso   1.000  I
  Nd5      1.0000 0.51683  0.56324  0.00827  Biso   1.000  Nd
  O33      1.0000 0.44157  0.51879  0.96113  Biso   1.000  O
  O34      1.0000 0.42409  0.45016  0.97123  Biso   1.000  O
  O35      1.0000 0.26155  0.37615  0.13993  Biso   1.000  O
  O36      1.0000 0.25226  0.43119  0.14993  Biso   1.000  O
  O37      1.0000 0.49217  0.49966  0.12183  Biso   1.000  O
  O38      1.0000 0.47617  0.44113  0.21103  Biso   1.000  O
  O39      1.0000 0.49293  0.61064  0.93023  Biso   1.000  O
  O40      1.0000 0.58085  0.62930  0.94253  Biso   1.000  O
  C61      1.0000 0.41641  0.47962  0.95683  Biso   1.000  C
  C62      1.0000 0.36993  0.46410  0.93163  Biso   1.000  C
  C63      1.0000 0.34110  0.45062  0.02183  Biso   1.000  C
  C64      1.0000 0.29755  0.42970  0.00213  Biso   1.000  C
  C65      1.0000 0.26745  0.41081  0.10343  Biso   1.000  C
  C66      1.0000 0.28309  0.42334  0.88953  Biso   1.000  C
  C67      1.0000 0.31077  0.43783  0.79483  Biso   1.000  C
  C68      1.0000 0.35468  0.45858  0.82043  Biso   1.000  C
  C69      1.0000 0.48427  0.47853  0.21013  Biso   1.000  C
  C70      1.0000 0.46577  0.60393  0.86183  Biso   1.000  C
  H57      1.0000 0.45187  0.57733  0.82763  Biso   1.000  H
  C71      1.0000 0.42487  0.61783  0.73333  Biso   1.000  C
  H58      1.0000 0.41147  0.58763  0.72473  Biso   1.000  H
  H59      1.0000 0.44037  0.63133  0.66483  Biso   1.000  H
  H60      1.0000 0.40367  0.62573  0.74603  Biso   1.000  H
  C72      1.0000 0.48337  0.67993  0.87933  Biso   1.000  C
  H61      1.0000 0.49837  0.67953  0.94643  Biso   1.000  H
  H62      1.0000 0.46547  0.69143  0.89823  Biso   1.000  H
  H63      1.0000 0.50327  0.69703  0.82153  Biso   1.000  H
  C73      1.0000 0.61607  0.63593  0.91593  Biso   1.000  C
  H64      1.0000 0.61967  0.61243  0.90993  Biso   1.000  H
  C74      1.0000 0.64717  0.71123  0.90263  Biso   1.000  C
  H65      1.0000 0.61837  0.70403  0.91713  Biso   1.000  H
  H66      1.0000 0.65667  0.72673  0.83213  Biso   1.000  H
  H67      1.0000 0.66497  0.72853  0.96413  Biso   1.000  H
  C75      1.0000 0.69097  0.67853  0.87413  Biso   1.000  C
  H68      1.0000 0.68877  0.65113  0.87043  Biso   1.000  H
  H69      1.0000 0.70977  0.69463  0.93533  Biso   1.000  H
  H70      1.0000 0.70197  0.69323  0.80313  Biso   1.000  H
  N13      1.0000 0.29630  0.43146  0.68453  Biso   1.000  N
  N14      1.0000 0.45427  0.63153  0.83153  Biso   1.000  N
  N15      1.0000 0.64957  0.67343  0.89483  Biso   1.000  N
  I13      1.0000 0.36477  0.46473  0.18958  Biso   1.000  I
  I14      1.0000 0.21744  0.39038  0.85858  Biso   1.000  I
  I15      1.0000 0.39856  0.48242  0.68607  Biso   1.000  I
  Nd6      1.0000 0.18350  0.89657  0.34161  Biso   1.000  Nd
  O41      1.0000 0.10823  0.85213  0.29447  Biso   1.000  O
  O42      1.0000 0.09075  0.78350  0.30457  Biso   1.000  O
  O43      1.0000 0.92821  0.70949  0.47327  Biso   1.000  O
  O44      1.0000 0.91892  0.76453  0.48327  Biso   1.000  O
  O45      1.0000 0.15883  0.83300  0.45517  Biso   1.000  O
  O46      1.0000 0.14283  0.77447  0.54437  Biso   1.000  O
  O47      1.0000 0.15959  0.94398  0.26357  Biso   1.000  O
  O48      1.0000 0.24751  0.96264  0.27587  Biso   1.000  O
  C76      1.0000 0.08307  0.81296  0.29017  Biso   1.000  C
  C77      1.0000 0.03659  0.79744  0.26497  Biso   1.000  C
  C78      1.0000 0.00776  0.78396  0.35517  Biso   1.000  C
  C79      1.0000 0.96421  0.76304  0.33547  Biso   1.000  C
  C80      1.0000 0.93411  0.74415  0.43677  Biso   1.000  C
  C81      1.0000 0.94975  0.75668  0.22287  Biso   1.000  C
  C82      1.0000 0.97743  0.77117  0.12817  Biso   1.000  C
  C83      1.0000 0.02134  0.79192  0.15377  Biso   1.000  C
  C84      1.0000 0.15093  0.81187  0.54347  Biso   1.000  C
  C85      1.0000 0.13243  0.93727  0.19517  Biso   1.000  C
  H71      1.0000 0.11853  0.91067  0.16097  Biso   1.000  H
  C86      1.0000 0.09153  0.95117  0.06667  Biso   1.000  C
  H72      1.0000 0.07813  0.92097  0.05807  Biso   1.000  H
  H73      1.0000 0.10703  0.96467  0.99817  Biso   1.000  H
  H74      1.0000 0.07033  0.95907  0.07937  Biso   1.000  H
  C87      1.0000 0.15003  0.01327  0.21267  Biso   1.000  C
  H75      1.0000 0.16503  0.01287  0.27977  Biso   1.000  H
  H76      1.0000 0.13213  0.02477  0.23157  Biso   1.000  H
  H77      1.0000 0.16993  0.03037  0.15487  Biso   1.000  H
  C88      1.0000 0.28273  0.96927  0.24927  Biso   1.000  C
  H78      1.0000 0.28633  0.94577  0.24327  Biso   1.000  H
  C89      1.0000 0.31383  0.04457  0.23597  Biso   1.000  C
  H79      1.0000 0.28503  0.03737  0.25047  Biso   1.000  H
  H80      1.0000 0.32333  0.06007  0.16547  Biso   1.000  H
  H81      1.0000 0.33163  0.06187  0.29747  Biso   1.000  H
  C90      1.0000 0.35763  0.01187  0.20747  Biso   1.000  C
  H82      1.0000 0.35543  0.98447  0.20377  Biso   1.000  H
  H83      1.0000 0.37643  0.02797  0.26867  Biso   1.000  H
  H84      1.0000 0.36863  0.02657  0.13647  Biso   1.000  H
  N16      1.0000 0.96296  0.76480  0.01787  Biso   1.000  N
  N17      1.0000 0.12093  0.96487  0.16487  Biso   1.000  N
  N18      1.0000 0.31623  0.00677  0.22817  Biso   1.000  N
  I16      1.0000 0.03144  0.79806  0.52292  Biso   1.000  I
  I17      1.0000 0.88411  0.72371  0.19192  Biso   1.000  I
  I18      1.0000 0.06523  0.81575  0.01941  Biso   1.000  I
  Nd7      1.0000 0.77010  0.62026  0.67494  Biso   1.000  Nd
  O49      1.0000 0.81454  0.58944  0.62780  Biso   1.000  O
  O50      1.0000 0.88317  0.64059  0.63790  Biso   1.000  O
  O51      1.0000 0.95718  0.55206  0.80660  Biso   1.000  O
  O52      1.0000 0.90214  0.48773  0.81660  Biso   1.000  O
  O53      1.0000 0.83367  0.65917  0.78850  Biso   1.000  O
  O54      1.0000 0.89220  0.70170  0.87770  Biso   1.000  O
  O55      1.0000 0.72269  0.54895  0.59690  Biso   1.000  O
  O56      1.0000 0.70403  0.61821  0.60920  Biso   1.000  O
  C91      1.0000 0.85371  0.60345  0.62350  Biso   1.000  C
  C92      1.0000 0.86923  0.57249  0.59830  Biso   1.000  C
  C93      1.0000 0.88271  0.55714  0.68850  Biso   1.000  C
  C94      1.0000 0.90363  0.53451  0.66880  Biso   1.000  C
  C95      1.0000 0.92252  0.52330  0.77010  Biso   1.000  C
  C96      1.0000 0.90999  0.52641  0.55620  Biso   1.000  C
  C97      1.0000 0.89550  0.53960  0.46150  Biso   1.000  C
  C98      1.0000 0.87475  0.56276  0.48710  Biso   1.000  C
  C99      1.0000 0.85480  0.67240  0.87680  Biso   1.000  C
  C100     1.0000 0.72940  0.52850  0.52850  Biso   1.000  C
  H85      1.0000 0.75600  0.54120  0.49430  Biso   1.000  H
  C101     1.0000 0.71550  0.47370  0.40000  Biso   1.000  C
  H86      1.0000 0.74570  0.49050  0.39140  Biso   1.000  H
  H87      1.0000 0.70200  0.47570  0.33150  Biso   1.000  H
  H88      1.0000 0.70760  0.44460  0.41270  Biso   1.000  H
  C102     1.0000 0.65340  0.47010  0.54600  Biso   1.000  C
  H89      1.0000 0.65380  0.48550  0.61310  Biso   1.000  H
  H90      1.0000 0.64190  0.44070  0.56490  Biso   1.000  H
  H91      1.0000 0.63630  0.47290  0.48820  Biso   1.000  H
  C103     1.0000 0.69740  0.64680  0.58260  Biso   1.000  C
  H92      1.0000 0.72090  0.67390  0.57660  Biso   1.000  H
  C104     1.0000 0.62210  0.60260  0.56930  Biso   1.000  C
  H93      1.0000 0.62930  0.58100  0.58380  Biso   1.000  H
  H94      1.0000 0.60660  0.59660  0.49880  Biso   1.000  H
  H95      1.0000 0.60480  0.60310  0.63080  Biso   1.000  H
  C105     1.0000 0.65480  0.67910  0.54080  Biso   1.000  C
  H96      1.0000 0.68220  0.70430  0.53710  Biso   1.000  H
  H97      1.0000 0.63870  0.68180  0.60200  Biso   1.000  H
  H98      1.0000 0.64010  0.67540  0.46980  Biso   1.000  H
  N19      1.0000 0.90187  0.53150  0.35120  Biso   1.000  N
  N20      1.0000 0.70180  0.48940  0.49820  Biso   1.000  N
  N21      1.0000 0.65990  0.64280  0.56150  Biso   1.000  N
  I19      1.0000 0.86861  0.56671  0.85625  Biso   1.000  I
  I20      1.0000 0.94295  0.49373  0.52525  Biso   1.000  I
  I21      1.0000 0.85091  0.58281  0.35274  Biso   1.000  I
  Nd8      1.0000 0.43676  0.95359  0.00827  Biso   1.000  Nd
  O57      1.0000 0.48121  0.92277  0.96113  Biso   1.000  O
  O58      1.0000 0.54984  0.97392  0.97123  Biso   1.000  O
  O59      1.0000 0.62385  0.88539  0.13993  Biso   1.000  O
  O60      1.0000 0.56881  0.82106  0.14993  Biso   1.000  O
  O61      1.0000 0.50034  0.99250  0.12183  Biso   1.000  O
  O62      1.0000 0.55887  0.03503  0.21103  Biso   1.000  O
  O63      1.0000 0.38936  0.88228  0.93023  Biso   1.000  O
  O64      1.0000 0.37070  0.95154  0.94253  Biso   1.000  O
  C106     1.0000 0.52038  0.93678  0.95683  Biso   1.000  C
  C107     1.0000 0.53590  0.90582  0.93163  Biso   1.000  C
  C108     1.0000 0.54938  0.89047  0.02183  Biso   1.000  C
  C109     1.0000 0.57030  0.86784  0.00213  Biso   1.000  C
  C110     1.0000 0.58919  0.85663  0.10343  Biso   1.000  C
  C111     1.0000 0.57666  0.85974  0.88953  Biso   1.000  C
  C112     1.0000 0.56217  0.87293  0.79483  Biso   1.000  C
  C113     1.0000 0.54142  0.89609  0.82043  Biso   1.000  C
  C114     1.0000 0.52147  0.00573  0.21013  Biso   1.000  C
  C115     1.0000 0.39607  0.86183  0.86183  Biso   1.000  C
  H99      1.0000 0.42267  0.87453  0.82763  Biso   1.000  H
  C116     1.0000 0.38217  0.80703  0.73333  Biso   1.000  C
  H100     1.0000 0.41237  0.82383  0.72473  Biso   1.000  H
  H101     1.0000 0.36867  0.80903  0.66483  Biso   1.000  H
  H102     1.0000 0.37427  0.77793  0.74603  Biso   1.000  H
  C117     1.0000 0.32007  0.80343  0.87933  Biso   1.000  C
  H103     1.0000 0.32047  0.81883  0.94643  Biso   1.000  H
  H104     1.0000 0.30857  0.77403  0.89823  Biso   1.000  H
  H105     1.0000 0.30297  0.80623  0.82153  Biso   1.000  H
  C118     1.0000 0.36407  0.98013  0.91593  Biso   1.000  C
  H106     1.0000 0.38757  0.00723  0.90993  Biso   1.000  H
  C119     1.0000 0.28877  0.93593  0.90263  Biso   1.000  C
  H107     1.0000 0.29597  0.91433  0.91713  Biso   1.000  H
  H108     1.0000 0.27327  0.92993  0.83213  Biso   1.000  H
  H109     1.0000 0.27147  0.93643  0.96413  Biso   1.000  H
  C120     1.0000 0.32147  0.01243  0.87413  Biso   1.000  C
  H110     1.0000 0.34887  0.03763  0.87043  Biso   1.000  H
  H111     1.0000 0.30537  0.01513  0.93533  Biso   1.000  H
  H112     1.0000 0.30677  0.00873  0.80313  Biso   1.000  H
  N22      1.0000 0.56854  0.86483  0.68453  Biso   1.000  N
  N23      1.0000 0.36847  0.82273  0.83153  Biso   1.000  N
  N24      1.0000 0.32657  0.97613  0.89483  Biso   1.000  N
  I22      1.0000 0.53527  0.90004  0.18958  Biso   1.000  I
  I23      1.0000 0.60962  0.82706  0.85858  Biso   1.000  I
  I24      1.0000 0.51758  0.91614  0.68607  Biso   1.000  I
  Nd9      1.0000 0.10343  0.28693  0.34161  Biso   1.000  Nd
  O65      1.0000 0.14787  0.25611  0.29447  Biso   1.000  O
  O66      1.0000 0.21650  0.30726  0.30457  Biso   1.000  O
  O67      1.0000 0.29051  0.21873  0.47327  Biso   1.000  O
  O68      1.0000 0.23547  0.15440  0.48327  Biso   1.000  O
  O69      1.0000 0.16700  0.32584  0.45517  Biso   1.000  O
  O70      1.0000 0.22553  0.36837  0.54437  Biso   1.000  O
  O71      1.0000 0.05602  0.21562  0.26357  Biso   1.000  O
  O72      1.0000 0.03736  0.28488  0.27587  Biso   1.000  O
  C121     1.0000 0.18704  0.27012  0.29017  Biso   1.000  C
  C122     1.0000 0.20256  0.23916  0.26497  Biso   1.000  C
  C123     1.0000 0.21604  0.22381  0.35517  Biso   1.000  C
  C124     1.0000 0.23696  0.20118  0.33547  Biso   1.000  C
  C125     1.0000 0.25585  0.18997  0.43677  Biso   1.000  C
  C126     1.0000 0.24332  0.19308  0.22287  Biso   1.000  C
  C127     1.0000 0.22883  0.20627  0.12817  Biso   1.000  C
  C128     1.0000 0.20808  0.22943  0.15377  Biso   1.000  C
  C129     1.0000 0.18813  0.33907  0.54347  Biso   1.000  C
  C130     1.0000 0.06273  0.19517  0.19517  Biso   1.000  C
  H113     1.0000 0.08933  0.20787  0.16097  Biso   1.000  H
  C131     1.0000 0.04883  0.14037  0.06667  Biso   1.000  C
  H114     1.0000 0.07903  0.15717  0.05807  Biso   1.000  H
  H115     1.0000 0.03533  0.14237  0.99817  Biso   1.000  H
  H116     1.0000 0.04093  0.11127  0.07937  Biso   1.000  H
  C132     1.0000 0.98673  0.13677  0.21267  Biso   1.000  C
  H117     1.0000 0.98713  0.15217  0.27977  Biso   1.000  H
  H118     1.0000 0.97523  0.10737  0.23157  Biso   1.000  H
  H119     1.0000 0.96963  0.13957  0.15487  Biso   1.000  H
  C133     1.0000 0.03073  0.31347  0.24927  Biso   1.000  C
  H120     1.0000 0.05423  0.34057  0.24327  Biso   1.000  H
  C134     1.0000 0.95543  0.26927  0.23597  Biso   1.000  C
  H121     1.0000 0.96263  0.24767  0.25047  Biso   1.000  H
  H122     1.0000 0.93993  0.26327  0.16547  Biso   1.000  H
  H123     1.0000 0.93813  0.26977  0.29747  Biso   1.000  H
  C135     1.0000 0.98813  0.34577  0.20747  Biso   1.000  C
  H124     1.0000 0.01553  0.37097  0.20377  Biso   1.000  H
  H125     1.0000 0.97203  0.34847  0.26867  Biso   1.000  H
  H126     1.0000 0.97343  0.34207  0.13647  Biso   1.000  H
  N25      1.0000 0.23520  0.19817  0.01787  Biso   1.000  N
  N26      1.0000 0.03513  0.15607  0.16487  Biso   1.000  N
  N27      1.0000 0.99323  0.30947  0.22817  Biso   1.000  N
  I25      1.0000 0.20194  0.23338  0.52292  Biso   1.000  I
  I26      1.0000 0.27629  0.16039  0.19192  Biso   1.000  I
  I27      1.0000 0.18425  0.24948  0.01941  Biso   1.000  I
  Nd10     1.0000 0.62026  0.85017  0.32506  Biso   1.000  Nd
  O73      1.0000 0.58944  0.77490  0.37220  Biso   1.000  O
  O74      1.0000 0.64059  0.75742  0.36210  Biso   1.000  O
  O75      1.0000 0.55206  0.59488  0.19340  Biso   1.000  O
  O76      1.0000 0.48773  0.58559  0.18340  Biso   1.000  O
  O77      1.0000 0.65917  0.82550  0.21150  Biso   1.000  O
  O78      1.0000 0.70170  0.80950  0.12230  Biso   1.000  O
  O79      1.0000 0.54895  0.82626  0.40310  Biso   1.000  O
  O80      1.0000 0.61821  0.91418  0.39080  Biso   1.000  O
  C136     1.0000 0.60345  0.74974  0.37650  Biso   1.000  C
  C137     1.0000 0.57249  0.70326  0.40170  Biso   1.000  C
  C138     1.0000 0.55714  0.67443  0.31150  Biso   1.000  C
  C139     1.0000 0.53451  0.63088  0.33120  Biso   1.000  C
  C140     1.0000 0.52330  0.60078  0.22990  Biso   1.000  C
  C141     1.0000 0.52641  0.61642  0.44380  Biso   1.000  C
  C142     1.0000 0.53960  0.64410  0.53850  Biso   1.000  C
  C143     1.0000 0.56276  0.68801  0.51290  Biso   1.000  C
  C144     1.0000 0.67240  0.81760  0.12320  Biso   1.000  C
  C145     1.0000 0.52850  0.79910  0.47150  Biso   1.000  C
  H127     1.0000 0.54120  0.78520  0.50570  Biso   1.000  H
  C146     1.0000 0.47370  0.75820  0.60000  Biso   1.000  C
  H128     1.0000 0.49050  0.74480  0.60860  Biso   1.000  H
  H129     1.0000 0.47570  0.77370  0.66850  Biso   1.000  H
  H130     1.0000 0.44460  0.73700  0.58730  Biso   1.000  H
  C147     1.0000 0.47010  0.81670  0.45400  Biso   1.000  C
  H131     1.0000 0.48550  0.83170  0.38690  Biso   1.000  H
  H132     1.0000 0.44070  0.79880  0.43510  Biso   1.000  H
  H133     1.0000 0.47290  0.83660  0.51180  Biso   1.000  H
  C148     1.0000 0.64680  0.94940  0.41740  Biso   1.000  C
  H134     1.0000 0.67390  0.95300  0.42340  Biso   1.000  H
  C149     1.0000 0.60260  0.98050  0.43070  Biso   1.000  C
  H135     1.0000 0.58100  0.95170  0.41620  Biso   1.000  H
  H136     1.0000 0.59660  0.99000  0.50120  Biso   1.000  H
  H137     1.0000 0.60310  0.99830  0.36920  Biso   1.000  H
  C150     1.0000 0.67910  0.02430  0.45920  Biso   1.000  C
  H138     1.0000 0.70430  0.02210  0.46290  Biso   1.000  H
  H139     1.0000 0.68180  0.04310  0.39800  Biso   1.000  H
  H140     1.0000 0.67540  0.03530  0.53020  Biso   1.000  H
  N28      1.0000 0.53150  0.62963  0.64880  Biso   1.000  N
  N29      1.0000 0.48940  0.78760  0.50180  Biso   1.000  N
  N30      1.0000 0.64280  0.98290  0.43850  Biso   1.000  N
  I28      1.0000 0.56671  0.69810  0.14375  Biso   1.000  I
  I29      1.0000 0.49373  0.55077  0.47475  Biso   1.000  I
  I30      1.0000 0.58281  0.73190  0.64726  Biso   1.000  I
  Nd11     1.0000 0.28693  0.18350  0.65839  Biso   1.000  Nd
  O81      1.0000 0.25611  0.10823  0.70553  Biso   1.000  O
  O82      1.0000 0.30726  0.09075  0.69543  Biso   1.000  O
  O83      1.0000 0.21873  0.92821  0.52673  Biso   1.000  O
  O84      1.0000 0.15440  0.91892  0.51673  Biso   1.000  O
  O85      1.0000 0.32584  0.15883  0.54483  Biso   1.000  O
  O86      1.0000 0.36837  0.14283  0.45563  Biso   1.000  O
  O87      1.0000 0.21562  0.15959  0.73643  Biso   1.000  O
  O88      1.0000 0.28488  0.24751  0.72413  Biso   1.000  O
  C151     1.0000 0.27012  0.08307  0.70983  Biso   1.000  C
  C152     1.0000 0.23916  0.03659  0.73503  Biso   1.000  C
  C153     1.0000 0.22381  0.00776  0.64483  Biso   1.000  C
  C154     1.0000 0.20118  0.96421  0.66453  Biso   1.000  C
  C155     1.0000 0.18997  0.93411  0.56323  Biso   1.000  C
  C156     1.0000 0.19308  0.94975  0.77713  Biso   1.000  C
  C157     1.0000 0.20627  0.97743  0.87183  Biso   1.000  C
  C158     1.0000 0.22943  0.02134  0.84623  Biso   1.000  C
  C159     1.0000 0.33907  0.15093  0.45653  Biso   1.000  C
  C160     1.0000 0.19517  0.13243  0.80483  Biso   1.000  C
  H141     1.0000 0.20787  0.11853  0.83903  Biso   1.000  H
  C161     1.0000 0.14037  0.09153  0.93333  Biso   1.000  C
  H142     1.0000 0.15717  0.07813  0.94193  Biso   1.000  H
  H143     1.0000 0.14237  0.10703  0.00183  Biso   1.000  H
  H144     1.0000 0.11127  0.07033  0.92063  Biso   1.000  H
  C162     1.0000 0.13677  0.15003  0.78733  Biso   1.000  C
  H145     1.0000 0.15217  0.16503  0.72023  Biso   1.000  H
  H146     1.0000 0.10737  0.13213  0.76843  Biso   1.000  H
  H147     1.0000 0.13957  0.16993  0.84513  Biso   1.000  H
  C163     1.0000 0.31347  0.28273  0.75073  Biso   1.000  C
  H148     1.0000 0.34057  0.28633  0.75673  Biso   1.000  H
  C164     1.0000 0.26927  0.31383  0.76403  Biso   1.000  C
  H149     1.0000 0.24767  0.28503  0.74953  Biso   1.000  H
  H150     1.0000 0.26327  0.32333  0.83453  Biso   1.000  H
  H151     1.0000 0.26977  0.33163  0.70253  Biso   1.000  H
  C165     1.0000 0.34577  0.35763  0.79253  Biso   1.000  C
  H152     1.0000 0.37097  0.35543  0.79623  Biso   1.000  H
  H153     1.0000 0.34847  0.37643  0.73133  Biso   1.000  H
  H154     1.0000 0.34207  0.36863  0.86353  Biso   1.000  H
  N31      1.0000 0.19817  0.96296  0.98213  Biso   1.000  N
  N32      1.0000 0.15607  0.12093  0.83513  Biso   1.000  N
  N33      1.0000 0.30947  0.31623  0.77183  Biso   1.000  N
  I31      1.0000 0.23338  0.03144  0.47708  Biso   1.000  I
  I32      1.0000 0.16039  0.88411  0.80808  Biso   1.000  I
  I33      1.0000 0.24948  0.06523  0.98059  Biso   1.000  I
  Nd12     1.0000 0.95359  0.51683  0.99173  Biso   1.000  Nd
  O89      1.0000 0.92277  0.44157  0.03887  Biso   1.000  O
  O90      1.0000 0.97392  0.42409  0.02877  Biso   1.000  O
  O91      1.0000 0.88539  0.26155  0.86007  Biso   1.000  O
  O92      1.0000 0.82106  0.25226  0.85007  Biso   1.000  O
  O93      1.0000 0.99250  0.49217  0.87817  Biso   1.000  O
  O94      1.0000 0.03503  0.47617  0.78897  Biso   1.000  O
  O95      1.0000 0.88228  0.49293  0.06977  Biso   1.000  O
  O96      1.0000 0.95154  0.58085  0.05747  Biso   1.000  O
  C166     1.0000 0.93678  0.41641  0.04317  Biso   1.000  C
  C167     1.0000 0.90582  0.36993  0.06837  Biso   1.000  C
  C168     1.0000 0.89047  0.34110  0.97817  Biso   1.000  C
  C169     1.0000 0.86784  0.29755  0.99787  Biso   1.000  C
  C170     1.0000 0.85663  0.26745  0.89657  Biso   1.000  C
  C171     1.0000 0.85974  0.28309  0.11047  Biso   1.000  C
  C172     1.0000 0.87293  0.31077  0.20517  Biso   1.000  C
  C173     1.0000 0.89609  0.35468  0.17957  Biso   1.000  C
  C174     1.0000 0.00573  0.48427  0.78987  Biso   1.000  C
  C175     1.0000 0.86183  0.46577  0.13817  Biso   1.000  C
  H155     1.0000 0.87453  0.45187  0.17237  Biso   1.000  H
  C176     1.0000 0.80703  0.42487  0.26667  Biso   1.000  C
  H156     1.0000 0.82383  0.41147  0.27527  Biso   1.000  H
  H157     1.0000 0.80903  0.44037  0.33517  Biso   1.000  H
  H158     1.0000 0.77793  0.40367  0.25397  Biso   1.000  H
  C177     1.0000 0.80343  0.48337  0.12067  Biso   1.000  C
  H159     1.0000 0.81883  0.49837  0.05357  Biso   1.000  H
  H160     1.0000 0.77403  0.46547  0.10177  Biso   1.000  H
  H161     1.0000 0.80623  0.50327  0.17847  Biso   1.000  H
  C178     1.0000 0.98013  0.61607  0.08407  Biso   1.000  C
  H162     1.0000 0.00723  0.61967  0.09007  Biso   1.000  H
  C179     1.0000 0.93593  0.64717  0.09737  Biso   1.000  C
  H163     1.0000 0.91433  0.61837  0.08287  Biso   1.000  H
  H164     1.0000 0.92993  0.65667  0.16787  Biso   1.000  H
  H165     1.0000 0.93643  0.66497  0.03587  Biso   1.000  H
  C180     1.0000 0.01243  0.69097  0.12587  Biso   1.000  C
  H166     1.0000 0.03763  0.68877  0.12957  Biso   1.000  H
  H167     1.0000 0.01513  0.70977  0.06467  Biso   1.000  H
  H168     1.0000 0.00873  0.70197  0.19687  Biso   1.000  H
  N34      1.0000 0.86483  0.29630  0.31547  Biso   1.000  N
  N35      1.0000 0.82273  0.45427  0.16847  Biso   1.000  N
  N36      1.0000 0.97613  0.64957  0.10517  Biso   1.000  N
  I34      1.0000 0.90004  0.36477  0.81042  Biso   1.000  I
  I35      1.0000 0.82706  0.21744  0.14142  Biso   1.000  I
  I36      1.0000 0.91614  0.39856  0.31393  Biso   1.000  I
  Nd13     1.0000 0.14983  0.77010  0.32506  Biso   1.000  Nd
  O97      1.0000 0.22510  0.81454  0.37220  Biso   1.000  O
  O98      1.0000 0.24258  0.88317  0.36210  Biso   1.000  O
  O99      1.0000 0.40512  0.95718  0.19340  Biso   1.000  O
  O100     1.0000 0.41441  0.90214  0.18340  Biso   1.000  O
  O101     1.0000 0.17450  0.83367  0.21150  Biso   1.000  O
  O102     1.0000 0.19050  0.89220  0.12230  Biso   1.000  O
  O103     1.0000 0.17374  0.72269  0.40310  Biso   1.000  O
  O104     1.0000 0.08582  0.70403  0.39080  Biso   1.000  O
  C181     1.0000 0.25026  0.85371  0.37650  Biso   1.000  C
  C182     1.0000 0.29674  0.86923  0.40170  Biso   1.000  C
  C183     1.0000 0.32557  0.88271  0.31150  Biso   1.000  C
  C184     1.0000 0.36912  0.90363  0.33120  Biso   1.000  C
  C185     1.0000 0.39922  0.92252  0.22990  Biso   1.000  C
  C186     1.0000 0.38358  0.90999  0.44380  Biso   1.000  C
  C187     1.0000 0.35590  0.89550  0.53850  Biso   1.000  C
  C188     1.0000 0.31199  0.87475  0.51290  Biso   1.000  C
  C189     1.0000 0.18240  0.85480  0.12320  Biso   1.000  C
  C190     1.0000 0.20090  0.72940  0.47150  Biso   1.000  C
  H169     1.0000 0.21480  0.75600  0.50570  Biso   1.000  H
  C191     1.0000 0.24180  0.71550  0.60000  Biso   1.000  C
  H170     1.0000 0.25520  0.74570  0.60860  Biso   1.000  H
  H171     1.0000 0.22630  0.70200  0.66850  Biso   1.000  H
  H172     1.0000 0.26300  0.70760  0.58730  Biso   1.000  H
  C192     1.0000 0.18330  0.65340  0.45400  Biso   1.000  C
  H173     1.0000 0.16830  0.65380  0.38690  Biso   1.000  H
  H174     1.0000 0.20120  0.64190  0.43510  Biso   1.000  H
  H175     1.0000 0.16340  0.63630  0.51180  Biso   1.000  H
  C193     1.0000 0.05060  0.69740  0.41740  Biso   1.000  C
  H176     1.0000 0.04700  0.72090  0.42340  Biso   1.000  H
  C194     1.0000 0.01950  0.62210  0.43070  Biso   1.000  C
  H177     1.0000 0.04830  0.62930  0.41620  Biso   1.000  H
  H178     1.0000 0.01000  0.60660  0.50120  Biso   1.000  H
  H179     1.0000 0.00170  0.60480  0.36920  Biso   1.000  H
  C195     1.0000 0.97570  0.65480  0.45920  Biso   1.000  C
  H180     1.0000 0.97790  0.68220  0.46290  Biso   1.000  H
  H181     1.0000 0.95690  0.63870  0.39800  Biso   1.000  H
  H182     1.0000 0.96470  0.64010  0.53020  Biso   1.000  H
  N37      1.0000 0.37037  0.90187  0.64880  Biso   1.000  N
  N38      1.0000 0.21240  0.70180  0.50180  Biso   1.000  N
  N39      1.0000 0.01710  0.65990  0.43850  Biso   1.000  N
  I37      1.0000 0.30190  0.86861  0.14375  Biso   1.000  I
  I38      1.0000 0.44923  0.94295  0.47475  Biso   1.000  I
  I39      1.0000 0.26810  0.85091  0.64726  Biso   1.000  I
  Nd14     1.0000 0.81650  0.10343  0.65839  Biso   1.000  Nd
  O105     1.0000 0.89177  0.14787  0.70553  Biso   1.000  O
  O106     1.0000 0.90925  0.21650  0.69543  Biso   1.000  O
  O107     1.0000 0.07179  0.29051  0.52673  Biso   1.000  O
  O108     1.0000 0.08108  0.23547  0.51673  Biso   1.000  O
  O109     1.0000 0.84117  0.16700  0.54483  Biso   1.000  O
  O110     1.0000 0.85717  0.22553  0.45563  Biso   1.000  O
  O111     1.0000 0.84041  0.05602  0.73643  Biso   1.000  O
  O112     1.0000 0.75249  0.03736  0.72413  Biso   1.000  O
  C196     1.0000 0.91693  0.18704  0.70983  Biso   1.000  C
  C197     1.0000 0.96341  0.20256  0.73503  Biso   1.000  C
  C198     1.0000 0.99224  0.21604  0.64483  Biso   1.000  C
  C199     1.0000 0.03579  0.23696  0.66453  Biso   1.000  C
  C200     1.0000 0.06589  0.25585  0.56323  Biso   1.000  C
  C201     1.0000 0.05025  0.24332  0.77713  Biso   1.000  C
  C202     1.0000 0.02257  0.22883  0.87183  Biso   1.000  C
  C203     1.0000 0.97866  0.20808  0.84623  Biso   1.000  C
  C204     1.0000 0.84907  0.18813  0.45653  Biso   1.000  C
  C205     1.0000 0.86757  0.06273  0.80483  Biso   1.000  C
  H183     1.0000 0.88147  0.08933  0.83903  Biso   1.000  H
  C206     1.0000 0.90847  0.04883  0.93333  Biso   1.000  C
  H184     1.0000 0.92187  0.07903  0.94193  Biso   1.000  H
  H185     1.0000 0.89297  0.03533  0.00183  Biso   1.000  H
  H186     1.0000 0.92967  0.04093  0.92063  Biso   1.000  H
  C207     1.0000 0.84997  0.98673  0.78733  Biso   1.000  C
  H187     1.0000 0.83497  0.98713  0.72023  Biso   1.000  H
  H188     1.0000 0.86787  0.97523  0.76843  Biso   1.000  H
  H189     1.0000 0.83007  0.96963  0.84513  Biso   1.000  H
  C208     1.0000 0.71727  0.03073  0.75073  Biso   1.000  C
  H190     1.0000 0.71367  0.05423  0.75673  Biso   1.000  H
  C209     1.0000 0.68617  0.95543  0.76403  Biso   1.000  C
  H191     1.0000 0.71497  0.96263  0.74953  Biso   1.000  H
  H192     1.0000 0.67667  0.93993  0.83453  Biso   1.000  H
  H193     1.0000 0.66837  0.93813  0.70253  Biso   1.000  H
  C210     1.0000 0.64237  0.98813  0.79253  Biso   1.000  C
  H194     1.0000 0.64457  0.01553  0.79623  Biso   1.000  H
  H195     1.0000 0.62357  0.97203  0.73133  Biso   1.000  H
  H196     1.0000 0.63137  0.97343  0.86353  Biso   1.000  H
  N40      1.0000 0.03704  0.23520  0.98213  Biso   1.000  N
  N41      1.0000 0.87907  0.03513  0.83513  Biso   1.000  N
  N42      1.0000 0.68377  0.99323  0.77183  Biso   1.000  N
  I40      1.0000 0.96856  0.20194  0.47708  Biso   1.000  I
  I41      1.0000 0.11589  0.27629  0.80808  Biso   1.000  I
  I42      1.0000 0.93477  0.18425  0.98059  Biso   1.000  I
  Nd15     1.0000 0.48317  0.43676  0.99173  Biso   1.000  Nd
  O113     1.0000 0.55843  0.48121  0.03887  Biso   1.000  O
  O114     1.0000 0.57591  0.54984  0.02877  Biso   1.000  O
  O115     1.0000 0.73845  0.62385  0.86007  Biso   1.000  O
  O116     1.0000 0.74774  0.56881  0.85007  Biso   1.000  O
  O117     1.0000 0.50783  0.50034  0.87817  Biso   1.000  O
  O118     1.0000 0.52383  0.55887  0.78897  Biso   1.000  O
  O119     1.0000 0.50707  0.38936  0.06977  Biso   1.000  O
  O120     1.0000 0.41915  0.37070  0.05747  Biso   1.000  O
  C211     1.0000 0.58359  0.52038  0.04317  Biso   1.000  C
  C212     1.0000 0.63007  0.53590  0.06837  Biso   1.000  C
  C213     1.0000 0.65890  0.54938  0.97817  Biso   1.000  C
  C214     1.0000 0.70245  0.57030  0.99787  Biso   1.000  C
  C215     1.0000 0.73255  0.58919  0.89657  Biso   1.000  C
  C216     1.0000 0.71691  0.57666  0.11047  Biso   1.000  C
  C217     1.0000 0.68923  0.56217  0.20517  Biso   1.000  C
  C218     1.0000 0.64532  0.54142  0.17957  Biso   1.000  C
  C219     1.0000 0.51573  0.52147  0.78987  Biso   1.000  C
  C220     1.0000 0.53423  0.39607  0.13817  Biso   1.000  C
  H197     1.0000 0.54813  0.42267  0.17237  Biso   1.000  H
  C221     1.0000 0.57513  0.38217  0.26667  Biso   1.000  C
  H198     1.0000 0.58853  0.41237  0.27527  Biso   1.000  H
  H199     1.0000 0.55963  0.36867  0.33517  Biso   1.000  H
  H200     1.0000 0.59633  0.37427  0.25397  Biso   1.000  H
  C222     1.0000 0.51663  0.32007  0.12067  Biso   1.000  C
  H201     1.0000 0.50163  0.32047  0.05357  Biso   1.000  H
  H202     1.0000 0.53453  0.30857  0.10177  Biso   1.000  H
  H203     1.0000 0.49673  0.30297  0.17847  Biso   1.000  H
  C223     1.0000 0.38393  0.36407  0.08407  Biso   1.000  C
  H204     1.0000 0.38033  0.38757  0.09007  Biso   1.000  H
  C224     1.0000 0.35283  0.28877  0.09737  Biso   1.000  C
  H205     1.0000 0.38163  0.29597  0.08287  Biso   1.000  H
  H206     1.0000 0.34333  0.27327  0.16787  Biso   1.000  H
  H207     1.0000 0.33503  0.27147  0.03587  Biso   1.000  H
  C225     1.0000 0.30903  0.32147  0.12587  Biso   1.000  C
  H208     1.0000 0.31123  0.34887  0.12957  Biso   1.000  H
  H209     1.0000 0.29023  0.30537  0.06467  Biso   1.000  H
  H210     1.0000 0.29803  0.30677  0.19687  Biso   1.000  H
  N43      1.0000 0.70370  0.56854  0.31547  Biso   1.000  N
  N44      1.0000 0.54573  0.36847  0.16847  Biso   1.000  N
  N45      1.0000 0.35043  0.32657  0.10517  Biso   1.000  N
  I43      1.0000 0.63523  0.53527  0.81042  Biso   1.000  I
  I44      1.0000 0.78256  0.60962  0.14142  Biso   1.000  I
  I45      1.0000 0.60144  0.51758  0.31393  Biso   1.000  I
  Nd16     1.0000 0.22990  0.37974  0.32506  Biso   1.000  Nd
  O121     1.0000 0.18546  0.41056  0.37220  Biso   1.000  O
  O122     1.0000 0.11683  0.35941  0.36210  Biso   1.000  O
  O123     1.0000 0.04282  0.44794  0.19340  Biso   1.000  O
  O124     1.0000 0.09786  0.51227  0.18340  Biso   1.000  O
  O125     1.0000 0.16633  0.34083  0.21150  Biso   1.000  O
  O126     1.0000 0.10780  0.29830  0.12230  Biso   1.000  O
  O127     1.0000 0.27731  0.45105  0.40310  Biso   1.000  O
  O128     1.0000 0.29597  0.38179  0.39080  Biso   1.000  O
  C226     1.0000 0.14629  0.39655  0.37650  Biso   1.000  C
  C227     1.0000 0.13077  0.42751  0.40170  Biso   1.000  C
  C228     1.0000 0.11729  0.44286  0.31150  Biso   1.000  C
  C229     1.0000 0.09637  0.46549  0.33120  Biso   1.000  C
  C230     1.0000 0.07748  0.47670  0.22990  Biso   1.000  C
  C231     1.0000 0.09001  0.47359  0.44380  Biso   1.000  C
  C232     1.0000 0.10450  0.46040  0.53850  Biso   1.000  C
  C233     1.0000 0.12525  0.43724  0.51290  Biso   1.000  C
  C234     1.0000 0.14520  0.32760  0.12320  Biso   1.000  C
  C235     1.0000 0.27060  0.47150  0.47150  Biso   1.000  C
  H211     1.0000 0.24400  0.45880  0.50570  Biso   1.000  H
  C236     1.0000 0.28450  0.52630  0.60000  Biso   1.000  C
  H212     1.0000 0.25430  0.50950  0.60860  Biso   1.000  H
  H213     1.0000 0.29800  0.52430  0.66850  Biso   1.000  H
  H214     1.0000 0.29240  0.55540  0.58730  Biso   1.000  H
  C237     1.0000 0.34660  0.52990  0.45400  Biso   1.000  C
  H215     1.0000 0.34620  0.51450  0.38690  Biso   1.000  H
  H216     1.0000 0.35810  0.55930  0.43510  Biso   1.000  H
  H217     1.0000 0.36370  0.52710  0.51180  Biso   1.000  H
  C238     1.0000 0.30260  0.35320  0.41740  Biso   1.000  C
  H218     1.0000 0.27910  0.32610  0.42340  Biso   1.000  H
  C239     1.0000 0.37790  0.39740  0.43070  Biso   1.000  C
  H219     1.0000 0.37070  0.41900  0.41620  Biso   1.000  H
  H220     1.0000 0.39340  0.40340  0.50120  Biso   1.000  H
  H221     1.0000 0.39520  0.39690  0.36920  Biso   1.000  H
  C240     1.0000 0.34520  0.32090  0.45920  Biso   1.000  C
  H222     1.0000 0.31780  0.29570  0.46290  Biso   1.000  H
  H223     1.0000 0.36130  0.31820  0.39800  Biso   1.000  H
  H224     1.0000 0.35990  0.32460  0.53020  Biso   1.000  H
  N46      1.0000 0.09813  0.46850  0.64880  Biso   1.000  N
  N47      1.0000 0.29820  0.51060  0.50180  Biso   1.000  N
  N48      1.0000 0.34010  0.35720  0.43850  Biso   1.000  N
  I46      1.0000 0.13139  0.43329  0.14375  Biso   1.000  I
  I47      1.0000 0.05705  0.50627  0.47475  Biso   1.000  I
  I48      1.0000 0.14909  0.41719  0.64726  Biso   1.000  I
  Nd17     1.0000 0.89657  0.71307  0.65839  Biso   1.000  Nd
  O129     1.0000 0.85213  0.74389  0.70553  Biso   1.000  O
  O130     1.0000 0.78350  0.69274  0.69543  Biso   1.000  O
  O131     1.0000 0.70949  0.78127  0.52673  Biso   1.000  O
  O132     1.0000 0.76453  0.84560  0.51673  Biso   1.000  O
  O133     1.0000 0.83300  0.67416  0.54483  Biso   1.000  O
  O134     1.0000 0.77447  0.63163  0.45563  Biso   1.000  O
  O135     1.0000 0.94398  0.78438  0.73643  Biso   1.000  O
  O136     1.0000 0.96264  0.71512  0.72413  Biso   1.000  O
  C241     1.0000 0.81296  0.72988  0.70983  Biso   1.000  C
  C242     1.0000 0.79744  0.76084  0.73503  Biso   1.000  C
  C243     1.0000 0.78396  0.77619  0.64483  Biso   1.000  C
  C244     1.0000 0.76304  0.79882  0.66453  Biso   1.000  C
  C245     1.0000 0.74415  0.81003  0.56323  Biso   1.000  C
  C246     1.0000 0.75668  0.80692  0.77713  Biso   1.000  C
  C247     1.0000 0.77117  0.79373  0.87183  Biso   1.000  C
  C248     1.0000 0.79192  0.77057  0.84623  Biso   1.000  C
  C249     1.0000 0.81187  0.66093  0.45653  Biso   1.000  C
  C250     1.0000 0.93727  0.80483  0.80483  Biso   1.000  C
  H225     1.0000 0.91067  0.79213  0.83903  Biso   1.000  H
  C251     1.0000 0.95117  0.85963  0.93333  Biso   1.000  C
  H226     1.0000 0.92097  0.84283  0.94193  Biso   1.000  H
  H227     1.0000 0.96467  0.85763  0.00183  Biso   1.000  H
  H228     1.0000 0.95907  0.88873  0.92063  Biso   1.000  H
  C252     1.0000 0.01327  0.86323  0.78733  Biso   1.000  C
  H229     1.0000 0.01287  0.84783  0.72023  Biso   1.000  H
  H230     1.0000 0.02477  0.89263  0.76843  Biso   1.000  H
  H231     1.0000 0.03037  0.86043  0.84513  Biso   1.000  H
  C253     1.0000 0.96927  0.68653  0.75073  Biso   1.000  C
  H232     1.0000 0.94577  0.65943  0.75673  Biso   1.000  H
  C254     1.0000 0.04457  0.73073  0.76403  Biso   1.000  C
  H233     1.0000 0.03737  0.75233  0.74953  Biso   1.000  H
  H234     1.0000 0.06007  0.73673  0.83453  Biso   1.000  H
  H235     1.0000 0.06187  0.73023  0.70253  Biso   1.000  H
  C255     1.0000 0.01187  0.65423  0.79253  Biso   1.000  C
  H236     1.0000 0.98447  0.62903  0.79623  Biso   1.000  H
  H237     1.0000 0.02797  0.65153  0.73133  Biso   1.000  H
  H238     1.0000 0.02657  0.65793  0.86353  Biso   1.000  H
  N49      1.0000 0.76480  0.80183  0.98213  Biso   1.000  N
  N50      1.0000 0.96487  0.84393  0.83513  Biso   1.000  N
  N51      1.0000 0.00677  0.69053  0.77183  Biso   1.000  N
  I49      1.0000 0.79806  0.76662  0.47708  Biso   1.000  I
  I50      1.0000 0.72371  0.83961  0.80808  Biso   1.000  I
  I51      1.0000 0.81575  0.75052  0.98059  Biso   1.000  I
  Nd18     1.0000 0.56324  0.04641  0.99173  Biso   1.000  Nd
  O137     1.0000 0.51879  0.07723  0.03887  Biso   1.000  O
  O138     1.0000 0.45016  0.02608  0.02877  Biso   1.000  O
  O139     1.0000 0.37615  0.11461  0.86007  Biso   1.000  O
  O140     1.0000 0.43119  0.17894  0.85007  Biso   1.000  O
  O141     1.0000 0.49966  0.00750  0.87817  Biso   1.000  O
  O142     1.0000 0.44113  0.96497  0.78897  Biso   1.000  O
  O143     1.0000 0.61064  0.11772  0.06977  Biso   1.000  O
  O144     1.0000 0.62930  0.04846  0.05747  Biso   1.000  O
  C256     1.0000 0.47962  0.06322  0.04317  Biso   1.000  C
  C257     1.0000 0.46410  0.09418  0.06837  Biso   1.000  C
  C258     1.0000 0.45062  0.10953  0.97817  Biso   1.000  C
  C259     1.0000 0.42970  0.13216  0.99787  Biso   1.000  C
  C260     1.0000 0.41081  0.14337  0.89657  Biso   1.000  C
  C261     1.0000 0.42334  0.14026  0.11047  Biso   1.000  C
  C262     1.0000 0.43783  0.12707  0.20517  Biso   1.000  C
  C263     1.0000 0.45858  0.10391  0.17957  Biso   1.000  C
  C264     1.0000 0.47853  0.99427  0.78987  Biso   1.000  C
  C265     1.0000 0.60393  0.13817  0.13817  Biso   1.000  C
  H239     1.0000 0.57733  0.12547  0.17237  Biso   1.000  H
  C266     1.0000 0.61783  0.19297  0.26667  Biso   1.000  C
  H240     1.0000 0.58763  0.17617  0.27527  Biso   1.000  H
  H241     1.0000 0.63133  0.19097  0.33517  Biso   1.000  H
  H242     1.0000 0.62573  0.22207  0.25397  Biso   1.000  H
  C267     1.0000 0.67993  0.19657  0.12067  Biso   1.000  C
  H243     1.0000 0.67953  0.18117  0.05357  Biso   1.000  H
  H244     1.0000 0.69143  0.22597  0.10177  Biso   1.000  H
  H245     1.0000 0.69703  0.19377  0.17847  Biso   1.000  H
  C268     1.0000 0.63593  0.01987  0.08407  Biso   1.000  C
  H246     1.0000 0.61243  0.99277  0.09007  Biso   1.000  H
  C269     1.0000 0.71123  0.06407  0.09737  Biso   1.000  C
  H247     1.0000 0.70403  0.08567  0.08287  Biso   1.000  H
  H248     1.0000 0.72673  0.07007  0.16787  Biso   1.000  H
  H249     1.0000 0.72853  0.06357  0.03587  Biso   1.000  H
  C270     1.0000 0.67853  0.98757  0.12587  Biso   1.000  C
  H250     1.0000 0.65113  0.96237  0.12957  Biso   1.000  H
  H251     1.0000 0.69463  0.98487  0.06467  Biso   1.000  H
  H252     1.0000 0.69323  0.99127  0.19687  Biso   1.000  H
  N52      1.0000 0.43146  0.13517  0.31547  Biso   1.000  N
  N53      1.0000 0.63153  0.17727  0.16847  Biso   1.000  N
  N54      1.0000 0.67343  0.02387  0.10517  Biso   1.000  N
  I52      1.0000 0.46473  0.09996  0.81042  Biso   1.000  I
  I53      1.0000 0.39038  0.17294  0.14142  Biso   1.000  I
  I54      1.0000 0.48242  0.08386  0.31393  Biso   1.000  I
