data_image0
_cell_length_a       28.834
_cell_length_b       16.381
_cell_length_c       23.199
_cell_angle_alpha    90
_cell_angle_beta     92.893
_cell_angle_gamma    90

_symmetry_space_group_name_H-M    "P 1"
_symmetry_int_tables_number       1

loop_
  _symmetry_equiv_pos_as_xyz
  'x, y, z'

loop_
  _atom_site_label
  _atom_site_occupancy
  _atom_site_fract_x
  _atom_site_fract_y
  _atom_site_fract_z
  _atom_site_thermal_displace_type
  _atom_site_B_iso_or_equiv
  _atom_site_type_symbol
  Co1      1.0000 0.79806  0.71863  0.03516  Biso   1.000  Co
  Co2      1.0000 0.79511  0.60635  0.15666  Biso   1.000  Co
  Co3      1.0000 0.70884  0.75547  0.12981  Biso   1.000  Co
  O1       1.0000 0.83554  0.61350  0.02550  Biso   1.000  O
  O2       1.0000 0.81482  0.52597  0.09462  Biso   1.000  O
  O3       1.0000 0.95339  0.30230  0.96141  Biso   1.000  O
  O4       1.0000 0.16622  0.23888  0.03774  Biso   1.000  O
  O5       1.0000 0.14036  0.28590  0.11915  Biso   1.000  O
  O6       1.0000 0.83778  0.78428  0.09316  Biso   1.000  O
  O7       1.0000 0.85230  0.68366  0.15687  Biso   1.000  O
  O8       1.0000 0.75595  0.82299  0.02397  Biso   1.000  O
  O9       1.0000 0.73208  0.87213  0.10698  Biso   1.000  O
  O10      1.0000 0.81055  0.18340  0.97365  Biso   1.000  O
  O11      1.0000 0.72708  0.22210  0.71380  Biso   1.000  O
  O12      1.0000 0.77226  0.33210  0.72645  Biso   1.000  O
  O13      1.0000 0.75527  0.67601  0.09884  Biso   1.000  O
  H1       1.0000 0.73730  0.64210  0.08130  Biso   1.000  H
  O14      1.0000 0.67075  0.63750  0.14783  Biso   1.000  O
  H2       1.0000 0.65100  0.63850  0.17380  Biso   1.000  H
  H3       1.0000 0.69590  0.61400  0.15890  Biso   1.000  H
  C1       1.0000 0.83598  0.54460  0.05009  Biso   1.000  C
  C2       1.0000 0.86526  0.47920  0.02474  Biso   1.000  C
  C3       1.0000 0.86021  0.39830  0.03974  Biso   1.000  C
  H4       1.0000 0.83670  0.38310  0.06490  Biso   1.000  H
  C4       1.0000 0.88925  0.33870  0.01850  Biso   1.000  C
  H5       1.0000 0.88550  0.28300  0.02860  Biso   1.000  H
  C5       1.0000 0.92351  0.36170  0.98260  Biso   1.000  C
  C6       1.0000 0.92878  0.44180  0.96590  Biso   1.000  C
  H6       1.0000 0.95220  0.45670  0.94050  Biso   1.000  H
  C7       1.0000 0.89912  0.50060  0.98700  Biso   1.000  C
  H7       1.0000 0.90210  0.55590  0.97550  Biso   1.000  H
  C8       1.0000 0.13306  0.26620  0.06666  Biso   1.000  C
  C9       1.0000 0.08542  0.27400  0.04060  Biso   1.000  C
  C10      1.0000 0.05030  0.31150  0.07100  Biso   1.000  C
  H8       1.0000 0.05690  0.32980  0.10940  Biso   1.000  H
  C11      1.0000 0.00608  0.32200  0.04560  Biso   1.000  C
  H9       1.0000 0.98260  0.34810  0.06620  Biso   1.000  H
  C12      1.0000 0.99635  0.29430  0.99000  Biso   1.000  C
  C13      1.0000 0.03052  0.25480  0.95990  Biso   1.000  C
  H10      1.0000 0.02350  0.23410  0.92220  Biso   1.000  H
  C14      1.0000 0.07467  0.24570  0.98510  Biso   1.000  C
  H11      1.0000 0.09800  0.21980  0.96420  Biso   1.000  H
  C15      1.0000 0.85821  0.75370  0.13698  Biso   1.000  C
  C16      1.0000 0.89467  0.80590  0.16800  Biso   1.000  C
  C17      1.0000 0.91043  0.87770  0.14379  Biso   1.000  C
  H12      1.0000 0.89700  0.89550  0.10770  Biso   1.000  H
  C18      1.0000 0.94513  0.92350  0.17110  Biso   1.000  C
  H13      1.0000 0.95590  0.97200  0.15380  Biso   1.000  H
  C19      1.0000 0.96406  0.89760  0.22410  Biso   1.000  C
  C20      1.0000 0.94751  0.82860  0.25040  Biso   1.000  C
  H14      1.0000 0.95980  0.81260  0.28750  Biso   1.000  H
  C21      1.0000 0.91269  0.78250  0.22210  Biso   1.000  C
  H15      1.0000 0.90120  0.73490  0.23990  Biso   1.000  H
  C22      1.0000 0.75097  0.88100  0.05963  Biso   1.000  C
  C23      1.0000 0.76855  0.96220  0.04150  Biso   1.000  C
  C24      1.0000 0.74913  0.03470  0.05997  Biso   1.000  C
  H16      1.0000 0.72640  0.03360  0.08820  Biso   1.000  H
  C25      1.0000 0.76278  0.10880  0.03730  Biso   1.000  C
  H17      1.0000 0.74940  0.15850  0.04950  Biso   1.000  H
  C26      1.0000 0.79642  0.10880  0.99659  Biso   1.000  C
  C27      1.0000 0.81758  0.03800  0.97980  Biso   1.000  C
  H18      1.0000 0.84160  0.03980  0.95330  Biso   1.000  H
  C28      1.0000 0.80353  0.96390  0.00186  Biso   1.000  C
  H19      1.0000 0.81760  0.91450  0.99010  Biso   1.000  H
  C29      1.0000 0.75431  0.26780  0.74359  Biso   1.000  C
  C30      1.0000 0.76758  0.24360  0.80484  Biso   1.000  C
  C31      1.0000 0.74611  0.17960  0.83199  Biso   1.000  C
  H20      1.0000 0.72160  0.15100  0.81200  Biso   1.000  H
  C32      1.0000 0.75981  0.15640  0.88791  Biso   1.000  C
  H21      1.0000 0.74510  0.11190  0.90590  Biso   1.000  H
  C33      1.0000 0.79517  0.19920  0.91690  Biso   1.000  C
  C34      1.0000 0.81732  0.26370  0.89070  Biso   1.000  C
  H22      1.0000 0.84180  0.29220  0.91090  Biso   1.000  H
  C35      1.0000 0.80335  0.28590  0.83482  Biso   1.000  C
  H23      1.0000 0.81820  0.33020  0.81680  Biso   1.000  H
  O15      1.0000 0.83483  0.53830  0.21912  Biso   1.000  O
  N1       1.0000 0.86935  0.42730  0.25851  Biso   1.000  N
  C36      1.0000 0.85419  0.47280  0.21380  Biso   1.000  C
  H24      1.0000 0.85870  0.45320  0.17590  Biso   1.000  H
  C37      1.0000 0.86160  0.45480  0.31730  Biso   1.000  C
  H25      1.0000 0.86120  0.51460  0.31840  Biso   1.000  H
  H26      1.0000 0.88660  0.43440  0.34370  Biso   1.000  H
  H27      1.0000 0.83170  0.43380  0.32930  Biso   1.000  H
  C38      1.0000 0.88720  0.34440  0.24950  Biso   1.000  C
  H28      1.0000 0.88780  0.33350  0.20800  Biso   1.000  H
  H29      1.0000 0.86700  0.30460  0.26730  Biso   1.000  H
  H30      1.0000 0.91870  0.34000  0.26710  Biso   1.000  H
  O16      1.0000 0.73802  0.52480  0.17109  Biso   1.000  O
  N2       1.0000 0.69605  0.46380  0.23955  Biso   1.000  N
  C39      1.0000 0.73273  0.50300  0.22188  Biso   1.000  C
  H31      1.0000 0.75690  0.51560  0.24990  Biso   1.000  H
  C40      1.0000 0.65768  0.44050  0.20030  Biso   1.000  C
  H32      1.0000 0.66310  0.46100  0.16160  Biso   1.000  H
  H33      1.0000 0.62880  0.46370  0.21370  Biso   1.000  H
  H34      1.0000 0.65520  0.38080  0.19930  Biso   1.000  H
  C41      1.0000 0.69350  0.44050  0.30000  Biso   1.000  C
  H35      1.0000 0.72060  0.46210  0.32220  Biso   1.000  H
  H36      1.0000 0.69310  0.38080  0.30310  Biso   1.000  H
  H37      1.0000 0.66510  0.46280  0.31530  Biso   1.000  H
  Co4      1.0000 0.29806  0.21863  0.03516  Biso   1.000  Co
  Co5      1.0000 0.29511  0.10635  0.15666  Biso   1.000  Co
  Co6      1.0000 0.20884  0.25547  0.12981  Biso   1.000  Co
  O17      1.0000 0.33554  0.11350  0.02550  Biso   1.000  O
  O18      1.0000 0.31482  0.02597  0.09462  Biso   1.000  O
  O19      1.0000 0.45339  0.80230  0.96141  Biso   1.000  O
  O20      1.0000 0.66622  0.73888  0.03774  Biso   1.000  O
  O21      1.0000 0.64036  0.78590  0.11915  Biso   1.000  O
  O22      1.0000 0.33778  0.28428  0.09316  Biso   1.000  O
  O23      1.0000 0.35230  0.18366  0.15687  Biso   1.000  O
  O24      1.0000 0.25595  0.32299  0.02397  Biso   1.000  O
  O25      1.0000 0.23208  0.37213  0.10698  Biso   1.000  O
  O26      1.0000 0.31055  0.68340  0.97365  Biso   1.000  O
  O27      1.0000 0.22708  0.72210  0.71380  Biso   1.000  O
  O28      1.0000 0.27226  0.83210  0.72645  Biso   1.000  O
  O29      1.0000 0.25527  0.17601  0.09884  Biso   1.000  O
  H38      1.0000 0.23730  0.14210  0.08130  Biso   1.000  H
  O30      1.0000 0.17075  0.13750  0.14783  Biso   1.000  O
  H39      1.0000 0.15100  0.13850  0.17380  Biso   1.000  H
  H40      1.0000 0.19590  0.11400  0.15890  Biso   1.000  H
  C42      1.0000 0.33598  0.04460  0.05009  Biso   1.000  C
  C43      1.0000 0.36526  0.97920  0.02474  Biso   1.000  C
  C44      1.0000 0.36021  0.89830  0.03974  Biso   1.000  C
  H41      1.0000 0.33670  0.88310  0.06490  Biso   1.000  H
  C45      1.0000 0.38925  0.83870  0.01850  Biso   1.000  C
  H42      1.0000 0.38550  0.78300  0.02860  Biso   1.000  H
  C46      1.0000 0.42351  0.86170  0.98260  Biso   1.000  C
  C47      1.0000 0.42878  0.94180  0.96590  Biso   1.000  C
  H43      1.0000 0.45220  0.95670  0.94050  Biso   1.000  H
  C48      1.0000 0.39912  0.00060  0.98700  Biso   1.000  C
  H44      1.0000 0.40210  0.05590  0.97550  Biso   1.000  H
  C49      1.0000 0.63306  0.76620  0.06666  Biso   1.000  C
  C50      1.0000 0.58542  0.77400  0.04060  Biso   1.000  C
  C51      1.0000 0.55030  0.81150  0.07100  Biso   1.000  C
  H45      1.0000 0.55690  0.82980  0.10940  Biso   1.000  H
  C52      1.0000 0.50608  0.82200  0.04560  Biso   1.000  C
  H46      1.0000 0.48260  0.84810  0.06620  Biso   1.000  H
  C53      1.0000 0.49635  0.79430  0.99000  Biso   1.000  C
  C54      1.0000 0.53052  0.75480  0.95990  Biso   1.000  C
  H47      1.0000 0.52350  0.73410  0.92220  Biso   1.000  H
  C55      1.0000 0.57467  0.74570  0.98510  Biso   1.000  C
  H48      1.0000 0.59800  0.71980  0.96420  Biso   1.000  H
  C56      1.0000 0.35821  0.25370  0.13698  Biso   1.000  C
  C57      1.0000 0.39467  0.30590  0.16800  Biso   1.000  C
  C58      1.0000 0.41043  0.37770  0.14379  Biso   1.000  C
  H49      1.0000 0.39700  0.39550  0.10770  Biso   1.000  H
  C59      1.0000 0.44513  0.42350  0.17110  Biso   1.000  C
  H50      1.0000 0.45590  0.47200  0.15380  Biso   1.000  H
  C60      1.0000 0.46406  0.39760  0.22410  Biso   1.000  C
  C61      1.0000 0.44751  0.32860  0.25040  Biso   1.000  C
  H51      1.0000 0.45980  0.31260  0.28750  Biso   1.000  H
  C62      1.0000 0.41269  0.28250  0.22210  Biso   1.000  C
  H52      1.0000 0.40120  0.23490  0.23990  Biso   1.000  H
  C63      1.0000 0.25097  0.38100  0.05963  Biso   1.000  C
  C64      1.0000 0.26855  0.46220  0.04150  Biso   1.000  C
  C65      1.0000 0.24913  0.53470  0.05997  Biso   1.000  C
  H53      1.0000 0.22640  0.53360  0.08820  Biso   1.000  H
  C66      1.0000 0.26278  0.60880  0.03730  Biso   1.000  C
  H54      1.0000 0.24940  0.65850  0.04950  Biso   1.000  H
  C67      1.0000 0.29642  0.60880  0.99659  Biso   1.000  C
  C68      1.0000 0.31758  0.53800  0.97980  Biso   1.000  C
  H55      1.0000 0.34160  0.53980  0.95330  Biso   1.000  H
  C69      1.0000 0.30353  0.46390  0.00186  Biso   1.000  C
  H56      1.0000 0.31760  0.41450  0.99010  Biso   1.000  H
  C70      1.0000 0.25431  0.76780  0.74359  Biso   1.000  C
  C71      1.0000 0.26758  0.74360  0.80484  Biso   1.000  C
  C72      1.0000 0.24611  0.67960  0.83199  Biso   1.000  C
  H57      1.0000 0.22160  0.65100  0.81200  Biso   1.000  H
  C73      1.0000 0.25981  0.65640  0.88791  Biso   1.000  C
  H58      1.0000 0.24510  0.61190  0.90590  Biso   1.000  H
  C74      1.0000 0.29517  0.69920  0.91690  Biso   1.000  C
  C75      1.0000 0.31732  0.76370  0.89070  Biso   1.000  C
  H59      1.0000 0.34180  0.79220  0.91090  Biso   1.000  H
  C76      1.0000 0.30335  0.78590  0.83482  Biso   1.000  C
  H60      1.0000 0.31820  0.83020  0.81680  Biso   1.000  H
  O31      1.0000 0.33483  0.03830  0.21912  Biso   1.000  O
  N3       1.0000 0.36935  0.92730  0.25851  Biso   1.000  N
  C77      1.0000 0.35419  0.97280  0.21380  Biso   1.000  C
  H61      1.0000 0.35870  0.95320  0.17590  Biso   1.000  H
  C78      1.0000 0.36160  0.95480  0.31730  Biso   1.000  C
  H62      1.0000 0.36120  0.01460  0.31840  Biso   1.000  H
  H63      1.0000 0.38660  0.93440  0.34370  Biso   1.000  H
  H64      1.0000 0.33170  0.93380  0.32930  Biso   1.000  H
  C79      1.0000 0.38720  0.84440  0.24950  Biso   1.000  C
  H65      1.0000 0.38780  0.83350  0.20800  Biso   1.000  H
  H66      1.0000 0.36700  0.80460  0.26730  Biso   1.000  H
  H67      1.0000 0.41870  0.84000  0.26710  Biso   1.000  H
  O32      1.0000 0.23802  0.02480  0.17109  Biso   1.000  O
  N4       1.0000 0.19605  0.96380  0.23955  Biso   1.000  N
  C80      1.0000 0.23273  0.00300  0.22188  Biso   1.000  C
  H68      1.0000 0.25690  0.01560  0.24990  Biso   1.000  H
  C81      1.0000 0.15768  0.94050  0.20030  Biso   1.000  C
  H69      1.0000 0.16310  0.96100  0.16160  Biso   1.000  H
  H70      1.0000 0.12880  0.96370  0.21370  Biso   1.000  H
  H71      1.0000 0.15520  0.88080  0.19930  Biso   1.000  H
  C82      1.0000 0.19350  0.94050  0.30000  Biso   1.000  C
  H72      1.0000 0.22060  0.96210  0.32220  Biso   1.000  H
  H73      1.0000 0.19310  0.88080  0.30310  Biso   1.000  H
  H74      1.0000 0.16510  0.96280  0.31530  Biso   1.000  H
  Co7      1.0000 0.20194  0.71863  0.46484  Biso   1.000  Co
  Co8      1.0000 0.20489  0.60635  0.34334  Biso   1.000  Co
  Co9      1.0000 0.29116  0.75547  0.37019  Biso   1.000  Co
  O33      1.0000 0.16446  0.61350  0.47450  Biso   1.000  O
  O34      1.0000 0.18518  0.52597  0.40538  Biso   1.000  O
  O35      1.0000 0.04661  0.30230  0.53859  Biso   1.000  O
  O36      1.0000 0.83378  0.23888  0.46226  Biso   1.000  O
  O37      1.0000 0.85964  0.28590  0.38085  Biso   1.000  O
  O38      1.0000 0.16222  0.78428  0.40684  Biso   1.000  O
  O39      1.0000 0.14770  0.68366  0.34313  Biso   1.000  O
  O40      1.0000 0.24405  0.82299  0.47603  Biso   1.000  O
  O41      1.0000 0.26792  0.87213  0.39302  Biso   1.000  O
  O42      1.0000 0.18945  0.18340  0.52635  Biso   1.000  O
  O43      1.0000 0.27292  0.22210  0.78620  Biso   1.000  O
  O44      1.0000 0.22774  0.33210  0.77355  Biso   1.000  O
  O45      1.0000 0.24473  0.67601  0.40116  Biso   1.000  O
  H75      1.0000 0.26270  0.64210  0.41870  Biso   1.000  H
  O46      1.0000 0.32925  0.63750  0.35217  Biso   1.000  O
  H76      1.0000 0.34900  0.63850  0.32620  Biso   1.000  H
  H77      1.0000 0.30410  0.61400  0.34110  Biso   1.000  H
  C83      1.0000 0.16402  0.54460  0.44991  Biso   1.000  C
  C84      1.0000 0.13474  0.47920  0.47526  Biso   1.000  C
  C85      1.0000 0.13979  0.39830  0.46026  Biso   1.000  C
  H78      1.0000 0.16330  0.38310  0.43510  Biso   1.000  H
  C86      1.0000 0.11075  0.33870  0.48150  Biso   1.000  C
  H79      1.0000 0.11450  0.28300  0.47140  Biso   1.000  H
  C87      1.0000 0.07649  0.36170  0.51740  Biso   1.000  C
  C88      1.0000 0.07122  0.44180  0.53410  Biso   1.000  C
  H80      1.0000 0.04780  0.45670  0.55950  Biso   1.000  H
  C89      1.0000 0.10088  0.50060  0.51300  Biso   1.000  C
  H81      1.0000 0.09790  0.55590  0.52450  Biso   1.000  H
  C90      1.0000 0.86694  0.26620  0.43334  Biso   1.000  C
  C91      1.0000 0.91458  0.27400  0.45940  Biso   1.000  C
  C92      1.0000 0.94970  0.31150  0.42900  Biso   1.000  C
  H82      1.0000 0.94310  0.32980  0.39060  Biso   1.000  H
  C93      1.0000 0.99392  0.32200  0.45440  Biso   1.000  C
  H83      1.0000 0.01740  0.34810  0.43380  Biso   1.000  H
  C94      1.0000 0.00365  0.29430  0.51000  Biso   1.000  C
  C95      1.0000 0.96948  0.25480  0.54010  Biso   1.000  C
  H84      1.0000 0.97650  0.23410  0.57780  Biso   1.000  H
  C96      1.0000 0.92533  0.24570  0.51490  Biso   1.000  C
  H85      1.0000 0.90200  0.21980  0.53580  Biso   1.000  H
  C97      1.0000 0.14179  0.75370  0.36302  Biso   1.000  C
  C98      1.0000 0.10533  0.80590  0.33200  Biso   1.000  C
  C99      1.0000 0.08957  0.87770  0.35621  Biso   1.000  C
  H86      1.0000 0.10300  0.89550  0.39230  Biso   1.000  H
  C100     1.0000 0.05487  0.92350  0.32890  Biso   1.000  C
  H87      1.0000 0.04410  0.97200  0.34620  Biso   1.000  H
  C101     1.0000 0.03594  0.89760  0.27590  Biso   1.000  C
  C102     1.0000 0.05249  0.82860  0.24960  Biso   1.000  C
  H88      1.0000 0.04020  0.81260  0.21250  Biso   1.000  H
  C103     1.0000 0.08731  0.78250  0.27790  Biso   1.000  C
  H89      1.0000 0.09880  0.73490  0.26010  Biso   1.000  H
  C104     1.0000 0.24903  0.88100  0.44037  Biso   1.000  C
  C105     1.0000 0.23145  0.96220  0.45850  Biso   1.000  C
  C106     1.0000 0.25087  0.03470  0.44003  Biso   1.000  C
  H90      1.0000 0.27360  0.03360  0.41180  Biso   1.000  H
  C107     1.0000 0.23722  0.10880  0.46270  Biso   1.000  C
  H91      1.0000 0.25060  0.15850  0.45050  Biso   1.000  H
  C108     1.0000 0.20358  0.10880  0.50341  Biso   1.000  C
  C109     1.0000 0.18242  0.03800  0.52020  Biso   1.000  C
  H92      1.0000 0.15840  0.03980  0.54670  Biso   1.000  H
  C110     1.0000 0.19647  0.96390  0.49814  Biso   1.000  C
  H93      1.0000 0.18240  0.91450  0.50990  Biso   1.000  H
  C111     1.0000 0.24569  0.26780  0.75641  Biso   1.000  C
  C112     1.0000 0.23242  0.24360  0.69516  Biso   1.000  C
  C113     1.0000 0.25389  0.17960  0.66801  Biso   1.000  C
  H94      1.0000 0.27840  0.15100  0.68800  Biso   1.000  H
  C114     1.0000 0.24019  0.15640  0.61209  Biso   1.000  C
  H95      1.0000 0.25490  0.11190  0.59410  Biso   1.000  H
  C115     1.0000 0.20483  0.19920  0.58310  Biso   1.000  C
  C116     1.0000 0.18268  0.26370  0.60930  Biso   1.000  C
  H96      1.0000 0.15820  0.29220  0.58910  Biso   1.000  H
  C117     1.0000 0.19665  0.28590  0.66518  Biso   1.000  C
  H97      1.0000 0.18180  0.33020  0.68320  Biso   1.000  H
  O47      1.0000 0.16517  0.53830  0.28088  Biso   1.000  O
  N5       1.0000 0.13065  0.42730  0.24149  Biso   1.000  N
  C118     1.0000 0.14581  0.47280  0.28620  Biso   1.000  C
  H98      1.0000 0.14130  0.45320  0.32410  Biso   1.000  H
  C119     1.0000 0.13840  0.45480  0.18270  Biso   1.000  C
  H99      1.0000 0.13880  0.51460  0.18160  Biso   1.000  H
  H100     1.0000 0.11340  0.43440  0.15630  Biso   1.000  H
  H101     1.0000 0.16830  0.43380  0.17070  Biso   1.000  H
  C120     1.0000 0.11280  0.34440  0.25050  Biso   1.000  C
  H102     1.0000 0.11220  0.33350  0.29200  Biso   1.000  H
  H103     1.0000 0.13300  0.30460  0.23270  Biso   1.000  H
  H104     1.0000 0.08130  0.34000  0.23290  Biso   1.000  H
  O48      1.0000 0.26198  0.52480  0.32891  Biso   1.000  O
  N6       1.0000 0.30395  0.46380  0.26045  Biso   1.000  N
  C121     1.0000 0.26727  0.50300  0.27812  Biso   1.000  C
  H105     1.0000 0.24310  0.51560  0.25010  Biso   1.000  H
  C122     1.0000 0.34232  0.44050  0.29970  Biso   1.000  C
  H106     1.0000 0.33690  0.46100  0.33840  Biso   1.000  H
  H107     1.0000 0.37120  0.46370  0.28630  Biso   1.000  H
  H108     1.0000 0.34480  0.38080  0.30070  Biso   1.000  H
  C123     1.0000 0.30650  0.44050  0.20000  Biso   1.000  C
  H109     1.0000 0.27940  0.46210  0.17780  Biso   1.000  H
  H110     1.0000 0.30690  0.38080  0.19690  Biso   1.000  H
  H111     1.0000 0.33490  0.46280  0.18470  Biso   1.000  H
  Co10     1.0000 0.70194  0.21863  0.46484  Biso   1.000  Co
  Co11     1.0000 0.70489  0.10635  0.34334  Biso   1.000  Co
  Co12     1.0000 0.79116  0.25547  0.37019  Biso   1.000  Co
  O49      1.0000 0.66446  0.11350  0.47450  Biso   1.000  O
  O50      1.0000 0.68518  0.02597  0.40538  Biso   1.000  O
  O51      1.0000 0.54661  0.80230  0.53859  Biso   1.000  O
  O52      1.0000 0.33378  0.73888  0.46226  Biso   1.000  O
  O53      1.0000 0.35964  0.78590  0.38085  Biso   1.000  O
  O54      1.0000 0.66222  0.28428  0.40684  Biso   1.000  O
  O55      1.0000 0.64770  0.18366  0.34313  Biso   1.000  O
  O56      1.0000 0.74405  0.32299  0.47603  Biso   1.000  O
  O57      1.0000 0.76792  0.37213  0.39302  Biso   1.000  O
  O58      1.0000 0.68945  0.68340  0.52635  Biso   1.000  O
  O59      1.0000 0.77292  0.72210  0.78620  Biso   1.000  O
  O60      1.0000 0.72774  0.83210  0.77355  Biso   1.000  O
  O61      1.0000 0.74473  0.17601  0.40116  Biso   1.000  O
  H112     1.0000 0.76270  0.14210  0.41870  Biso   1.000  H
  O62      1.0000 0.82925  0.13750  0.35217  Biso   1.000  O
  H113     1.0000 0.84900  0.13850  0.32620  Biso   1.000  H
  H114     1.0000 0.80410  0.11400  0.34110  Biso   1.000  H
  C124     1.0000 0.66402  0.04460  0.44991  Biso   1.000  C
  C125     1.0000 0.63474  0.97920  0.47526  Biso   1.000  C
  C126     1.0000 0.63979  0.89830  0.46026  Biso   1.000  C
  H115     1.0000 0.66330  0.88310  0.43510  Biso   1.000  H
  C127     1.0000 0.61075  0.83870  0.48150  Biso   1.000  C
  H116     1.0000 0.61450  0.78300  0.47140  Biso   1.000  H
  C128     1.0000 0.57649  0.86170  0.51740  Biso   1.000  C
  C129     1.0000 0.57122  0.94180  0.53410  Biso   1.000  C
  H117     1.0000 0.54780  0.95670  0.55950  Biso   1.000  H
  C130     1.0000 0.60088  0.00060  0.51300  Biso   1.000  C
  H118     1.0000 0.59790  0.05590  0.52450  Biso   1.000  H
  C131     1.0000 0.36694  0.76620  0.43334  Biso   1.000  C
  C132     1.0000 0.41458  0.77400  0.45940  Biso   1.000  C
  C133     1.0000 0.44970  0.81150  0.42900  Biso   1.000  C
  H119     1.0000 0.44310  0.82980  0.39060  Biso   1.000  H
  C134     1.0000 0.49392  0.82200  0.45440  Biso   1.000  C
  H120     1.0000 0.51740  0.84810  0.43380  Biso   1.000  H
  C135     1.0000 0.50365  0.79430  0.51000  Biso   1.000  C
  C136     1.0000 0.46948  0.75480  0.54010  Biso   1.000  C
  H121     1.0000 0.47650  0.73410  0.57780  Biso   1.000  H
  C137     1.0000 0.42533  0.74570  0.51490  Biso   1.000  C
  H122     1.0000 0.40200  0.71980  0.53580  Biso   1.000  H
  C138     1.0000 0.64179  0.25370  0.36302  Biso   1.000  C
  C139     1.0000 0.60533  0.30590  0.33200  Biso   1.000  C
  C140     1.0000 0.58957  0.37770  0.35621  Biso   1.000  C
  H123     1.0000 0.60300  0.39550  0.39230  Biso   1.000  H
  C141     1.0000 0.55487  0.42350  0.32890  Biso   1.000  C
  H124     1.0000 0.54410  0.47200  0.34620  Biso   1.000  H
  C142     1.0000 0.53594  0.39760  0.27590  Biso   1.000  C
  C143     1.0000 0.55249  0.32860  0.24960  Biso   1.000  C
  H125     1.0000 0.54020  0.31260  0.21250  Biso   1.000  H
  C144     1.0000 0.58731  0.28250  0.27790  Biso   1.000  C
  H126     1.0000 0.59880  0.23490  0.26010  Biso   1.000  H
  C145     1.0000 0.74903  0.38100  0.44037  Biso   1.000  C
  C146     1.0000 0.73145  0.46220  0.45850  Biso   1.000  C
  C147     1.0000 0.75087  0.53470  0.44003  Biso   1.000  C
  H127     1.0000 0.77360  0.53360  0.41180  Biso   1.000  H
  C148     1.0000 0.73722  0.60880  0.46270  Biso   1.000  C
  H128     1.0000 0.75060  0.65850  0.45050  Biso   1.000  H
  C149     1.0000 0.70358  0.60880  0.50341  Biso   1.000  C
  C150     1.0000 0.68242  0.53800  0.52020  Biso   1.000  C
  H129     1.0000 0.65840  0.53980  0.54670  Biso   1.000  H
  C151     1.0000 0.69647  0.46390  0.49814  Biso   1.000  C
  H130     1.0000 0.68240  0.41450  0.50990  Biso   1.000  H
  C152     1.0000 0.74569  0.76780  0.75641  Biso   1.000  C
  C153     1.0000 0.73242  0.74360  0.69516  Biso   1.000  C
  C154     1.0000 0.75389  0.67960  0.66801  Biso   1.000  C
  H131     1.0000 0.77840  0.65100  0.68800  Biso   1.000  H
  C155     1.0000 0.74019  0.65640  0.61209  Biso   1.000  C
  H132     1.0000 0.75490  0.61190  0.59410  Biso   1.000  H
  C156     1.0000 0.70483  0.69920  0.58310  Biso   1.000  C
  C157     1.0000 0.68268  0.76370  0.60930  Biso   1.000  C
  H133     1.0000 0.65820  0.79220  0.58910  Biso   1.000  H
  C158     1.0000 0.69665  0.78590  0.66518  Biso   1.000  C
  H134     1.0000 0.68180  0.83020  0.68320  Biso   1.000  H
  O63      1.0000 0.66517  0.03830  0.28088  Biso   1.000  O
  N7       1.0000 0.63065  0.92730  0.24149  Biso   1.000  N
  C159     1.0000 0.64581  0.97280  0.28620  Biso   1.000  C
  H135     1.0000 0.64130  0.95320  0.32410  Biso   1.000  H
  C160     1.0000 0.63840  0.95480  0.18270  Biso   1.000  C
  H136     1.0000 0.63880  0.01460  0.18160  Biso   1.000  H
  H137     1.0000 0.61340  0.93440  0.15630  Biso   1.000  H
  H138     1.0000 0.66830  0.93380  0.17070  Biso   1.000  H
  C161     1.0000 0.61280  0.84440  0.25050  Biso   1.000  C
  H139     1.0000 0.61220  0.83350  0.29200  Biso   1.000  H
  H140     1.0000 0.63300  0.80460  0.23270  Biso   1.000  H
  H141     1.0000 0.58130  0.84000  0.23290  Biso   1.000  H
  O64      1.0000 0.76198  0.02480  0.32891  Biso   1.000  O
  N8       1.0000 0.80395  0.96380  0.26045  Biso   1.000  N
  C162     1.0000 0.76727  0.00300  0.27812  Biso   1.000  C
  H142     1.0000 0.74310  0.01560  0.25010  Biso   1.000  H
  C163     1.0000 0.84232  0.94050  0.29970  Biso   1.000  C
  H143     1.0000 0.83690  0.96100  0.33840  Biso   1.000  H
  H144     1.0000 0.87120  0.96370  0.28630  Biso   1.000  H
  H145     1.0000 0.84480  0.88080  0.30070  Biso   1.000  H
  C164     1.0000 0.80650  0.94050  0.20000  Biso   1.000  C
  H146     1.0000 0.77940  0.96210  0.17780  Biso   1.000  H
  H147     1.0000 0.80690  0.88080  0.19690  Biso   1.000  H
  H148     1.0000 0.83490  0.96280  0.18470  Biso   1.000  H
  Co13     1.0000 0.20194  0.28137  0.96484  Biso   1.000  Co
  Co14     1.0000 0.20489  0.39365  0.84334  Biso   1.000  Co
  Co15     1.0000 0.29116  0.24453  0.87019  Biso   1.000  Co
  O65      1.0000 0.16446  0.38650  0.97450  Biso   1.000  O
  O66      1.0000 0.18518  0.47403  0.90538  Biso   1.000  O
  O67      1.0000 0.04661  0.69770  0.03859  Biso   1.000  O
  O68      1.0000 0.83378  0.76112  0.96226  Biso   1.000  O
  O69      1.0000 0.85964  0.71410  0.88085  Biso   1.000  O
  O70      1.0000 0.16222  0.21572  0.90684  Biso   1.000  O
  O71      1.0000 0.14770  0.31634  0.84313  Biso   1.000  O
  O72      1.0000 0.24405  0.17701  0.97603  Biso   1.000  O
  O73      1.0000 0.26792  0.12787  0.89302  Biso   1.000  O
  O74      1.0000 0.18945  0.81660  0.02635  Biso   1.000  O
  O75      1.0000 0.27292  0.77790  0.28620  Biso   1.000  O
  O76      1.0000 0.22774  0.66790  0.27355  Biso   1.000  O
  O77      1.0000 0.24473  0.32399  0.90116  Biso   1.000  O
  H149     1.0000 0.26270  0.35790  0.91870  Biso   1.000  H
  O78      1.0000 0.32925  0.36250  0.85217  Biso   1.000  O
  H150     1.0000 0.34900  0.36150  0.82620  Biso   1.000  H
  H151     1.0000 0.30410  0.38600  0.84110  Biso   1.000  H
  C165     1.0000 0.16402  0.45540  0.94991  Biso   1.000  C
  C166     1.0000 0.13474  0.52080  0.97526  Biso   1.000  C
  C167     1.0000 0.13979  0.60170  0.96026  Biso   1.000  C
  H152     1.0000 0.16330  0.61690  0.93510  Biso   1.000  H
  C168     1.0000 0.11075  0.66130  0.98150  Biso   1.000  C
  H153     1.0000 0.11450  0.71700  0.97140  Biso   1.000  H
  C169     1.0000 0.07649  0.63830  0.01740  Biso   1.000  C
  C170     1.0000 0.07122  0.55820  0.03410  Biso   1.000  C
  H154     1.0000 0.04780  0.54330  0.05950  Biso   1.000  H
  C171     1.0000 0.10088  0.49940  0.01300  Biso   1.000  C
  H155     1.0000 0.09790  0.44410  0.02450  Biso   1.000  H
  C172     1.0000 0.86694  0.73380  0.93334  Biso   1.000  C
  C173     1.0000 0.91458  0.72600  0.95940  Biso   1.000  C
  C174     1.0000 0.94970  0.68850  0.92900  Biso   1.000  C
  H156     1.0000 0.94310  0.67020  0.89060  Biso   1.000  H
  C175     1.0000 0.99392  0.67800  0.95440  Biso   1.000  C
  H157     1.0000 0.01740  0.65190  0.93380  Biso   1.000  H
  C176     1.0000 0.00365  0.70570  0.01000  Biso   1.000  C
  C177     1.0000 0.96948  0.74520  0.04010  Biso   1.000  C
  H158     1.0000 0.97650  0.76590  0.07780  Biso   1.000  H
  C178     1.0000 0.92533  0.75430  0.01490  Biso   1.000  C
  H159     1.0000 0.90200  0.78020  0.03580  Biso   1.000  H
  C179     1.0000 0.14179  0.24630  0.86302  Biso   1.000  C
  C180     1.0000 0.10533  0.19410  0.83200  Biso   1.000  C
  C181     1.0000 0.08957  0.12230  0.85621  Biso   1.000  C
  H160     1.0000 0.10300  0.10450  0.89230  Biso   1.000  H
  C182     1.0000 0.05487  0.07650  0.82890  Biso   1.000  C
  H161     1.0000 0.04410  0.02800  0.84620  Biso   1.000  H
  C183     1.0000 0.03594  0.10240  0.77590  Biso   1.000  C
  C184     1.0000 0.05249  0.17140  0.74960  Biso   1.000  C
  H162     1.0000 0.04020  0.18740  0.71250  Biso   1.000  H
  C185     1.0000 0.08731  0.21750  0.77790  Biso   1.000  C
  H163     1.0000 0.09880  0.26510  0.76010  Biso   1.000  H
  C186     1.0000 0.24903  0.11900  0.94037  Biso   1.000  C
  C187     1.0000 0.23145  0.03780  0.95850  Biso   1.000  C
  C188     1.0000 0.25087  0.96530  0.94003  Biso   1.000  C
  H164     1.0000 0.27360  0.96640  0.91180  Biso   1.000  H
  C189     1.0000 0.23722  0.89120  0.96270  Biso   1.000  C
  H165     1.0000 0.25060  0.84150  0.95050  Biso   1.000  H
  C190     1.0000 0.20358  0.89120  0.00341  Biso   1.000  C
  C191     1.0000 0.18242  0.96200  0.02020  Biso   1.000  C
  H166     1.0000 0.15840  0.96020  0.04670  Biso   1.000  H
  C192     1.0000 0.19647  0.03610  0.99814  Biso   1.000  C
  H167     1.0000 0.18240  0.08550  0.00990  Biso   1.000  H
  C193     1.0000 0.24569  0.73220  0.25641  Biso   1.000  C
  C194     1.0000 0.23242  0.75640  0.19516  Biso   1.000  C
  C195     1.0000 0.25389  0.82040  0.16801  Biso   1.000  C
  H168     1.0000 0.27840  0.84900  0.18800  Biso   1.000  H
  C196     1.0000 0.24019  0.84360  0.11209  Biso   1.000  C
  H169     1.0000 0.25490  0.88810  0.09410  Biso   1.000  H
  C197     1.0000 0.20483  0.80080  0.08310  Biso   1.000  C
  C198     1.0000 0.18268  0.73630  0.10930  Biso   1.000  C
  H170     1.0000 0.15820  0.70780  0.08910  Biso   1.000  H
  C199     1.0000 0.19665  0.71410  0.16518  Biso   1.000  C
  H171     1.0000 0.18180  0.66980  0.18320  Biso   1.000  H
  O79      1.0000 0.16517  0.46170  0.78088  Biso   1.000  O
  N9       1.0000 0.13065  0.57270  0.74149  Biso   1.000  N
  C200     1.0000 0.14581  0.52720  0.78620  Biso   1.000  C
  H172     1.0000 0.14130  0.54680  0.82410  Biso   1.000  H
  C201     1.0000 0.13840  0.54520  0.68270  Biso   1.000  C
  H173     1.0000 0.13880  0.48540  0.68160  Biso   1.000  H
  H174     1.0000 0.11340  0.56560  0.65630  Biso   1.000  H
  H175     1.0000 0.16830  0.56620  0.67070  Biso   1.000  H
  C202     1.0000 0.11280  0.65560  0.75050  Biso   1.000  C
  H176     1.0000 0.11220  0.66650  0.79200  Biso   1.000  H
  H177     1.0000 0.13300  0.69540  0.73270  Biso   1.000  H
  H178     1.0000 0.08130  0.66000  0.73290  Biso   1.000  H
  O80      1.0000 0.26198  0.47520  0.82891  Biso   1.000  O
  N10      1.0000 0.30395  0.53620  0.76045  Biso   1.000  N
  C203     1.0000 0.26727  0.49700  0.77812  Biso   1.000  C
  H179     1.0000 0.24310  0.48440  0.75010  Biso   1.000  H
  C204     1.0000 0.34232  0.55950  0.79970  Biso   1.000  C
  H180     1.0000 0.33690  0.53900  0.83840  Biso   1.000  H
  H181     1.0000 0.37120  0.53630  0.78630  Biso   1.000  H
  H182     1.0000 0.34480  0.61920  0.80070  Biso   1.000  H
  C205     1.0000 0.30650  0.55950  0.70000  Biso   1.000  C
  H183     1.0000 0.27940  0.53790  0.67780  Biso   1.000  H
  H184     1.0000 0.30690  0.61920  0.69690  Biso   1.000  H
  H185     1.0000 0.33490  0.53720  0.68470  Biso   1.000  H
  Co16     1.0000 0.70194  0.78137  0.96484  Biso   1.000  Co
  Co17     1.0000 0.70489  0.89365  0.84334  Biso   1.000  Co
  Co18     1.0000 0.79116  0.74453  0.87019  Biso   1.000  Co
  O81      1.0000 0.66446  0.88650  0.97450  Biso   1.000  O
  O82      1.0000 0.68518  0.97403  0.90538  Biso   1.000  O
  O83      1.0000 0.54661  0.19770  0.03859  Biso   1.000  O
  O84      1.0000 0.33378  0.26112  0.96226  Biso   1.000  O
  O85      1.0000 0.35964  0.21410  0.88085  Biso   1.000  O
  O86      1.0000 0.66222  0.71572  0.90684  Biso   1.000  O
  O87      1.0000 0.64770  0.81634  0.84313  Biso   1.000  O
  O88      1.0000 0.74405  0.67701  0.97603  Biso   1.000  O
  O89      1.0000 0.76792  0.62787  0.89302  Biso   1.000  O
  O90      1.0000 0.68945  0.31660  0.02635  Biso   1.000  O
  O91      1.0000 0.77292  0.27790  0.28620  Biso   1.000  O
  O92      1.0000 0.72774  0.16790  0.27355  Biso   1.000  O
  O93      1.0000 0.74473  0.82399  0.90116  Biso   1.000  O
  H186     1.0000 0.76270  0.85790  0.91870  Biso   1.000  H
  O94      1.0000 0.82925  0.86250  0.85217  Biso   1.000  O
  H187     1.0000 0.84900  0.86150  0.82620  Biso   1.000  H
  H188     1.0000 0.80410  0.88600  0.84110  Biso   1.000  H
  C206     1.0000 0.66402  0.95540  0.94991  Biso   1.000  C
  C207     1.0000 0.63474  0.02080  0.97526  Biso   1.000  C
  C208     1.0000 0.63979  0.10170  0.96026  Biso   1.000  C
  H189     1.0000 0.66330  0.11690  0.93510  Biso   1.000  H
  C209     1.0000 0.61075  0.16130  0.98150  Biso   1.000  C
  H190     1.0000 0.61450  0.21700  0.97140  Biso   1.000  H
  C210     1.0000 0.57649  0.13830  0.01740  Biso   1.000  C
  C211     1.0000 0.57122  0.05820  0.03410  Biso   1.000  C
  H191     1.0000 0.54780  0.04330  0.05950  Biso   1.000  H
  C212     1.0000 0.60088  0.99940  0.01300  Biso   1.000  C
  H192     1.0000 0.59790  0.94410  0.02450  Biso   1.000  H
  C213     1.0000 0.36694  0.23380  0.93334  Biso   1.000  C
  C214     1.0000 0.41458  0.22600  0.95940  Biso   1.000  C
  C215     1.0000 0.44970  0.18850  0.92900  Biso   1.000  C
  H193     1.0000 0.44310  0.17020  0.89060  Biso   1.000  H
  C216     1.0000 0.49392  0.17800  0.95440  Biso   1.000  C
  H194     1.0000 0.51740  0.15190  0.93380  Biso   1.000  H
  C217     1.0000 0.50365  0.20570  0.01000  Biso   1.000  C
  C218     1.0000 0.46948  0.24520  0.04010  Biso   1.000  C
  H195     1.0000 0.47650  0.26590  0.07780  Biso   1.000  H
  C219     1.0000 0.42533  0.25430  0.01490  Biso   1.000  C
  H196     1.0000 0.40200  0.28020  0.03580  Biso   1.000  H
  C220     1.0000 0.64179  0.74630  0.86302  Biso   1.000  C
  C221     1.0000 0.60533  0.69410  0.83200  Biso   1.000  C
  C222     1.0000 0.58957  0.62230  0.85621  Biso   1.000  C
  H197     1.0000 0.60300  0.60450  0.89230  Biso   1.000  H
  C223     1.0000 0.55487  0.57650  0.82890  Biso   1.000  C
  H198     1.0000 0.54410  0.52800  0.84620  Biso   1.000  H
  C224     1.0000 0.53594  0.60240  0.77590  Biso   1.000  C
  C225     1.0000 0.55249  0.67140  0.74960  Biso   1.000  C
  H199     1.0000 0.54020  0.68740  0.71250  Biso   1.000  H
  C226     1.0000 0.58731  0.71750  0.77790  Biso   1.000  C
  H200     1.0000 0.59880  0.76510  0.76010  Biso   1.000  H
  C227     1.0000 0.74903  0.61900  0.94037  Biso   1.000  C
  C228     1.0000 0.73145  0.53780  0.95850  Biso   1.000  C
  C229     1.0000 0.75087  0.46530  0.94003  Biso   1.000  C
  H201     1.0000 0.77360  0.46640  0.91180  Biso   1.000  H
  C230     1.0000 0.73722  0.39120  0.96270  Biso   1.000  C
  H202     1.0000 0.75060  0.34150  0.95050  Biso   1.000  H
  C231     1.0000 0.70358  0.39120  0.00341  Biso   1.000  C
  C232     1.0000 0.68242  0.46200  0.02020  Biso   1.000  C
  H203     1.0000 0.65840  0.46020  0.04670  Biso   1.000  H
  C233     1.0000 0.69647  0.53610  0.99814  Biso   1.000  C
  H204     1.0000 0.68240  0.58550  0.00990  Biso   1.000  H
  C234     1.0000 0.74569  0.23220  0.25641  Biso   1.000  C
  C235     1.0000 0.73242  0.25640  0.19516  Biso   1.000  C
  C236     1.0000 0.75389  0.32040  0.16801  Biso   1.000  C
  H205     1.0000 0.77840  0.34900  0.18800  Biso   1.000  H
  C237     1.0000 0.74019  0.34360  0.11209  Biso   1.000  C
  H206     1.0000 0.75490  0.38810  0.09410  Biso   1.000  H
  C238     1.0000 0.70483  0.30080  0.08310  Biso   1.000  C
  C239     1.0000 0.68268  0.23630  0.10930  Biso   1.000  C
  H207     1.0000 0.65820  0.20780  0.08910  Biso   1.000  H
  C240     1.0000 0.69665  0.21410  0.16518  Biso   1.000  C
  H208     1.0000 0.68180  0.16980  0.18320  Biso   1.000  H
  O95      1.0000 0.66517  0.96170  0.78088  Biso   1.000  O
  N11      1.0000 0.63065  0.07270  0.74149  Biso   1.000  N
  C241     1.0000 0.64581  0.02720  0.78620  Biso   1.000  C
  H209     1.0000 0.64130  0.04680  0.82410  Biso   1.000  H
  C242     1.0000 0.63840  0.04520  0.68270  Biso   1.000  C
  H210     1.0000 0.63880  0.98540  0.68160  Biso   1.000  H
  H211     1.0000 0.61340  0.06560  0.65630  Biso   1.000  H
  H212     1.0000 0.66830  0.06620  0.67070  Biso   1.000  H
  C243     1.0000 0.61280  0.15560  0.75050  Biso   1.000  C
  H213     1.0000 0.61220  0.16650  0.79200  Biso   1.000  H
  H214     1.0000 0.63300  0.19540  0.73270  Biso   1.000  H
  H215     1.0000 0.58130  0.16000  0.73290  Biso   1.000  H
  O96      1.0000 0.76198  0.97520  0.82891  Biso   1.000  O
  N12      1.0000 0.80395  0.03620  0.76045  Biso   1.000  N
  C244     1.0000 0.76727  0.99700  0.77812  Biso   1.000  C
  H216     1.0000 0.74310  0.98440  0.75010  Biso   1.000  H
  C245     1.0000 0.84232  0.05950  0.79970  Biso   1.000  C
  H217     1.0000 0.83690  0.03900  0.83840  Biso   1.000  H
  H218     1.0000 0.87120  0.03630  0.78630  Biso   1.000  H
  H219     1.0000 0.84480  0.11920  0.80070  Biso   1.000  H
  C246     1.0000 0.80650  0.05950  0.70000  Biso   1.000  C
  H220     1.0000 0.77940  0.03790  0.67780  Biso   1.000  H
  H221     1.0000 0.80690  0.11920  0.69690  Biso   1.000  H
  H222     1.0000 0.83490  0.03720  0.68470  Biso   1.000  H
  Co19     1.0000 0.79806  0.28137  0.53516  Biso   1.000  Co
  Co20     1.0000 0.79511  0.39365  0.65666  Biso   1.000  Co
  Co21     1.0000 0.70884  0.24453  0.62981  Biso   1.000  Co
  O97      1.0000 0.83554  0.38650  0.52550  Biso   1.000  O
  O98      1.0000 0.81482  0.47403  0.59462  Biso   1.000  O
  O99      1.0000 0.95339  0.69770  0.46141  Biso   1.000  O
  O100     1.0000 0.16622  0.76112  0.53774  Biso   1.000  O
  O101     1.0000 0.14036  0.71410  0.61915  Biso   1.000  O
  O102     1.0000 0.83778  0.21572  0.59316  Biso   1.000  O
  O103     1.0000 0.85230  0.31634  0.65687  Biso   1.000  O
  O104     1.0000 0.75595  0.17701  0.52397  Biso   1.000  O
  O105     1.0000 0.73208  0.12787  0.60698  Biso   1.000  O
  O106     1.0000 0.81055  0.81660  0.47365  Biso   1.000  O
  O107     1.0000 0.72708  0.77790  0.21380  Biso   1.000  O
  O108     1.0000 0.77226  0.66790  0.22645  Biso   1.000  O
  O109     1.0000 0.75527  0.32399  0.59884  Biso   1.000  O
  H223     1.0000 0.73730  0.35790  0.58130  Biso   1.000  H
  O110     1.0000 0.67075  0.36250  0.64783  Biso   1.000  O
  H224     1.0000 0.65100  0.36150  0.67380  Biso   1.000  H
  H225     1.0000 0.69590  0.38600  0.65890  Biso   1.000  H
  C247     1.0000 0.83598  0.45540  0.55009  Biso   1.000  C
  C248     1.0000 0.86526  0.52080  0.52474  Biso   1.000  C
  C249     1.0000 0.86021  0.60170  0.53974  Biso   1.000  C
  H226     1.0000 0.83670  0.61690  0.56490  Biso   1.000  H
  C250     1.0000 0.88925  0.66130  0.51850  Biso   1.000  C
  H227     1.0000 0.88550  0.71700  0.52860  Biso   1.000  H
  C251     1.0000 0.92351  0.63830  0.48260  Biso   1.000  C
  C252     1.0000 0.92878  0.55820  0.46590  Biso   1.000  C
  H228     1.0000 0.95220  0.54330  0.44050  Biso   1.000  H
  C253     1.0000 0.89912  0.49940  0.48700  Biso   1.000  C
  H229     1.0000 0.90210  0.44410  0.47550  Biso   1.000  H
  C254     1.0000 0.13306  0.73380  0.56666  Biso   1.000  C
  C255     1.0000 0.08542  0.72600  0.54060  Biso   1.000  C
  C256     1.0000 0.05030  0.68850  0.57100  Biso   1.000  C
  H230     1.0000 0.05690  0.67020  0.60940  Biso   1.000  H
  C257     1.0000 0.00608  0.67800  0.54560  Biso   1.000  C
  H231     1.0000 0.98260  0.65190  0.56620  Biso   1.000  H
  C258     1.0000 0.99635  0.70570  0.49000  Biso   1.000  C
  C259     1.0000 0.03052  0.74520  0.45990  Biso   1.000  C
  H232     1.0000 0.02350  0.76590  0.42220  Biso   1.000  H
  C260     1.0000 0.07467  0.75430  0.48510  Biso   1.000  C
  H233     1.0000 0.09800  0.78020  0.46420  Biso   1.000  H
  C261     1.0000 0.85821  0.24630  0.63698  Biso   1.000  C
  C262     1.0000 0.89467  0.19410  0.66800  Biso   1.000  C
  C263     1.0000 0.91043  0.12230  0.64379  Biso   1.000  C
  H234     1.0000 0.89700  0.10450  0.60770  Biso   1.000  H
  C264     1.0000 0.94513  0.07650  0.67110  Biso   1.000  C
  H235     1.0000 0.95590  0.02800  0.65380  Biso   1.000  H
  C265     1.0000 0.96406  0.10240  0.72410  Biso   1.000  C
  C266     1.0000 0.94751  0.17140  0.75040  Biso   1.000  C
  H236     1.0000 0.95980  0.18740  0.78750  Biso   1.000  H
  C267     1.0000 0.91269  0.21750  0.72210  Biso   1.000  C
  H237     1.0000 0.90120  0.26510  0.73990  Biso   1.000  H
  C268     1.0000 0.75097  0.11900  0.55963  Biso   1.000  C
  C269     1.0000 0.76855  0.03780  0.54150  Biso   1.000  C
  C270     1.0000 0.74913  0.96530  0.55997  Biso   1.000  C
  H238     1.0000 0.72640  0.96640  0.58820  Biso   1.000  H
  C271     1.0000 0.76278  0.89120  0.53730  Biso   1.000  C
  H239     1.0000 0.74940  0.84150  0.54950  Biso   1.000  H
  C272     1.0000 0.79642  0.89120  0.49659  Biso   1.000  C
  C273     1.0000 0.81758  0.96200  0.47980  Biso   1.000  C
  H240     1.0000 0.84160  0.96020  0.45330  Biso   1.000  H
  C274     1.0000 0.80353  0.03610  0.50186  Biso   1.000  C
  H241     1.0000 0.81760  0.08550  0.49010  Biso   1.000  H
  C275     1.0000 0.75431  0.73220  0.24359  Biso   1.000  C
  C276     1.0000 0.76758  0.75640  0.30484  Biso   1.000  C
  C277     1.0000 0.74611  0.82040  0.33199  Biso   1.000  C
  H242     1.0000 0.72160  0.84900  0.31200  Biso   1.000  H
  C278     1.0000 0.75981  0.84360  0.38791  Biso   1.000  C
  H243     1.0000 0.74510  0.88810  0.40590  Biso   1.000  H
  C279     1.0000 0.79517  0.80080  0.41690  Biso   1.000  C
  C280     1.0000 0.81732  0.73630  0.39070  Biso   1.000  C
  H244     1.0000 0.84180  0.70780  0.41090  Biso   1.000  H
  C281     1.0000 0.80335  0.71410  0.33482  Biso   1.000  C
  H245     1.0000 0.81820  0.66980  0.31680  Biso   1.000  H
  O111     1.0000 0.83483  0.46170  0.71912  Biso   1.000  O
  N13      1.0000 0.86935  0.57270  0.75851  Biso   1.000  N
  C282     1.0000 0.85419  0.52720  0.71380  Biso   1.000  C
  H246     1.0000 0.85870  0.54680  0.67590  Biso   1.000  H
  C283     1.0000 0.86160  0.54520  0.81730  Biso   1.000  C
  H247     1.0000 0.86120  0.48540  0.81840  Biso   1.000  H
  H248     1.0000 0.88660  0.56560  0.84370  Biso   1.000  H
  H249     1.0000 0.83170  0.56620  0.82930  Biso   1.000  H
  C284     1.0000 0.88720  0.65560  0.74950  Biso   1.000  C
  H250     1.0000 0.88780  0.66650  0.70800  Biso   1.000  H
  H251     1.0000 0.86700  0.69540  0.76730  Biso   1.000  H
  H252     1.0000 0.91870  0.66000  0.76710  Biso   1.000  H
  O112     1.0000 0.73802  0.47520  0.67109  Biso   1.000  O
  N14      1.0000 0.69605  0.53620  0.73955  Biso   1.000  N
  C285     1.0000 0.73273  0.49700  0.72188  Biso   1.000  C
  H253     1.0000 0.75690  0.48440  0.74990  Biso   1.000  H
  C286     1.0000 0.65768  0.55950  0.70030  Biso   1.000  C
  H254     1.0000 0.66310  0.53900  0.66160  Biso   1.000  H
  H255     1.0000 0.62880  0.53630  0.71370  Biso   1.000  H
  H256     1.0000 0.65520  0.61920  0.69930  Biso   1.000  H
  C287     1.0000 0.69350  0.55950  0.80000  Biso   1.000  C
  H257     1.0000 0.72060  0.53790  0.82220  Biso   1.000  H
  H258     1.0000 0.69310  0.61920  0.80310  Biso   1.000  H
  H259     1.0000 0.66510  0.53720  0.81530  Biso   1.000  H
  Co22     1.0000 0.29806  0.78137  0.53516  Biso   1.000  Co
  Co23     1.0000 0.29511  0.89365  0.65666  Biso   1.000  Co
  Co24     1.0000 0.20884  0.74453  0.62981  Biso   1.000  Co
  O113     1.0000 0.33554  0.88650  0.52550  Biso   1.000  O
  O114     1.0000 0.31482  0.97403  0.59462  Biso   1.000  O
  O115     1.0000 0.45339  0.19770  0.46141  Biso   1.000  O
  O116     1.0000 0.66622  0.26112  0.53774  Biso   1.000  O
  O117     1.0000 0.64036  0.21410  0.61915  Biso   1.000  O
  O118     1.0000 0.33778  0.71572  0.59316  Biso   1.000  O
  O119     1.0000 0.35230  0.81634  0.65687  Biso   1.000  O
  O120     1.0000 0.25595  0.67701  0.52397  Biso   1.000  O
  O121     1.0000 0.23208  0.62787  0.60698  Biso   1.000  O
  O122     1.0000 0.31055  0.31660  0.47365  Biso   1.000  O
  O123     1.0000 0.22708  0.27790  0.21380  Biso   1.000  O
  O124     1.0000 0.27226  0.16790  0.22645  Biso   1.000  O
  O125     1.0000 0.25527  0.82399  0.59884  Biso   1.000  O
  H260     1.0000 0.23730  0.85790  0.58130  Biso   1.000  H
  O126     1.0000 0.17075  0.86250  0.64783  Biso   1.000  O
  H261     1.0000 0.15100  0.86150  0.67380  Biso   1.000  H
  H262     1.0000 0.19590  0.88600  0.65890  Biso   1.000  H
  C288     1.0000 0.33598  0.95540  0.55009  Biso   1.000  C
  C289     1.0000 0.36526  0.02080  0.52474  Biso   1.000  C
  C290     1.0000 0.36021  0.10170  0.53974  Biso   1.000  C
  H263     1.0000 0.33670  0.11690  0.56490  Biso   1.000  H
  C291     1.0000 0.38925  0.16130  0.51850  Biso   1.000  C
  H264     1.0000 0.38550  0.21700  0.52860  Biso   1.000  H
  C292     1.0000 0.42351  0.13830  0.48260  Biso   1.000  C
  C293     1.0000 0.42878  0.05820  0.46590  Biso   1.000  C
  H265     1.0000 0.45220  0.04330  0.44050  Biso   1.000  H
  C294     1.0000 0.39912  0.99940  0.48700  Biso   1.000  C
  H266     1.0000 0.40210  0.94410  0.47550  Biso   1.000  H
  C295     1.0000 0.63306  0.23380  0.56666  Biso   1.000  C
  C296     1.0000 0.58542  0.22600  0.54060  Biso   1.000  C
  C297     1.0000 0.55030  0.18850  0.57100  Biso   1.000  C
  H267     1.0000 0.55690  0.17020  0.60940  Biso   1.000  H
  C298     1.0000 0.50608  0.17800  0.54560  Biso   1.000  C
  H268     1.0000 0.48260  0.15190  0.56620  Biso   1.000  H
  C299     1.0000 0.49635  0.20570  0.49000  Biso   1.000  C
  C300     1.0000 0.53052  0.24520  0.45990  Biso   1.000  C
  H269     1.0000 0.52350  0.26590  0.42220  Biso   1.000  H
  C301     1.0000 0.57467  0.25430  0.48510  Biso   1.000  C
  H270     1.0000 0.59800  0.28020  0.46420  Biso   1.000  H
  C302     1.0000 0.35821  0.74630  0.63698  Biso   1.000  C
  C303     1.0000 0.39467  0.69410  0.66800  Biso   1.000  C
  C304     1.0000 0.41043  0.62230  0.64379  Biso   1.000  C
  H271     1.0000 0.39700  0.60450  0.60770  Biso   1.000  H
  C305     1.0000 0.44513  0.57650  0.67110  Biso   1.000  C
  H272     1.0000 0.45590  0.52800  0.65380  Biso   1.000  H
  C306     1.0000 0.46406  0.60240  0.72410  Biso   1.000  C
  C307     1.0000 0.44751  0.67140  0.75040  Biso   1.000  C
  H273     1.0000 0.45980  0.68740  0.78750  Biso   1.000  H
  C308     1.0000 0.41269  0.71750  0.72210  Biso   1.000  C
  H274     1.0000 0.40120  0.76510  0.73990  Biso   1.000  H
  C309     1.0000 0.25097  0.61900  0.55963  Biso   1.000  C
  C310     1.0000 0.26855  0.53780  0.54150  Biso   1.000  C
  C311     1.0000 0.24913  0.46530  0.55997  Biso   1.000  C
  H275     1.0000 0.22640  0.46640  0.58820  Biso   1.000  H
  C312     1.0000 0.26278  0.39120  0.53730  Biso   1.000  C
  H276     1.0000 0.24940  0.34150  0.54950  Biso   1.000  H
  C313     1.0000 0.29642  0.39120  0.49659  Biso   1.000  C
  C314     1.0000 0.31758  0.46200  0.47980  Biso   1.000  C
  H277     1.0000 0.34160  0.46020  0.45330  Biso   1.000  H
  C315     1.0000 0.30353  0.53610  0.50186  Biso   1.000  C
  H278     1.0000 0.31760  0.58550  0.49010  Biso   1.000  H
  C316     1.0000 0.25431  0.23220  0.24359  Biso   1.000  C
  C317     1.0000 0.26758  0.25640  0.30484  Biso   1.000  C
  C318     1.0000 0.24611  0.32040  0.33199  Biso   1.000  C
  H279     1.0000 0.22160  0.34900  0.31200  Biso   1.000  H
  C319     1.0000 0.25981  0.34360  0.38791  Biso   1.000  C
  H280     1.0000 0.24510  0.38810  0.40590  Biso   1.000  H
  C320     1.0000 0.29517  0.30080  0.41690  Biso   1.000  C
  C321     1.0000 0.31732  0.23630  0.39070  Biso   1.000  C
  H281     1.0000 0.34180  0.20780  0.41090  Biso   1.000  H
  C322     1.0000 0.30335  0.21410  0.33482  Biso   1.000  C
  H282     1.0000 0.31820  0.16980  0.31680  Biso   1.000  H
  O127     1.0000 0.33483  0.96170  0.71912  Biso   1.000  O
  N15      1.0000 0.36935  0.07270  0.75851  Biso   1.000  N
  C323     1.0000 0.35419  0.02720  0.71380  Biso   1.000  C
  H283     1.0000 0.35870  0.04680  0.67590  Biso   1.000  H
  C324     1.0000 0.36160  0.04520  0.81730  Biso   1.000  C
  H284     1.0000 0.36120  0.98540  0.81840  Biso   1.000  H
  H285     1.0000 0.38660  0.06560  0.84370  Biso   1.000  H
  H286     1.0000 0.33170  0.06620  0.82930  Biso   1.000  H
  C325     1.0000 0.38720  0.15560  0.74950  Biso   1.000  C
  H287     1.0000 0.38780  0.16650  0.70800  Biso   1.000  H
  H288     1.0000 0.36700  0.19540  0.76730  Biso   1.000  H
  H289     1.0000 0.41870  0.16000  0.76710  Biso   1.000  H
  O128     1.0000 0.23802  0.97520  0.67109  Biso   1.000  O
  N16      1.0000 0.19605  0.03620  0.73955  Biso   1.000  N
  C326     1.0000 0.23273  0.99700  0.72188  Biso   1.000  C
  H290     1.0000 0.25690  0.98440  0.74990  Biso   1.000  H
  C327     1.0000 0.15768  0.05950  0.70030  Biso   1.000  C
  H291     1.0000 0.16310  0.03900  0.66160  Biso   1.000  H
  H292     1.0000 0.12880  0.03630  0.71370  Biso   1.000  H
  H293     1.0000 0.15520  0.11920  0.69930  Biso   1.000  H
  C328     1.0000 0.19350  0.05950  0.80000  Biso   1.000  C
  H294     1.0000 0.22060  0.03790  0.82220  Biso   1.000  H
  H295     1.0000 0.19310  0.11920  0.80310  Biso   1.000  H
  H296     1.0000 0.16510  0.03720  0.81530  Biso   1.000  H
  O129     1.0000 0.00000  0.94330  0.25000  Biso   1.000  O
  O130     1.0000 0.50000  0.44330  0.25000  Biso   1.000  O
  O131     1.0000 0.00000  0.05670  0.75000  Biso   1.000  O
  O132     1.0000 0.50000  0.55670  0.75000  Biso   1.000  O
