data_image0
_cell_length_a       23.0065
_cell_length_b       23.0065
_cell_length_c       23.0065
_cell_angle_alpha    90
_cell_angle_beta     90
_cell_angle_gamma    90

_symmetry_space_group_name_H-M    "P 1"
_symmetry_int_tables_number       1

loop_
  _symmetry_equiv_pos_as_xyz
  'x, y, z'

loop_
  _atom_site_label
  _atom_site_occupancy
  _atom_site_fract_x
  _atom_site_fract_y
  _atom_site_fract_z
  _atom_site_thermal_displace_type
  _atom_site_B_iso_or_equiv
  _atom_site_type_symbol
  N1       1.0000 0.70171  0.89850  0.11370  Biso   1.000  N
  C1       1.0000 0.72830  0.90250  0.05957  Biso   1.000  C
  C2       1.0000 0.78830  0.90850  0.05580  Biso   1.000  C
  H1       1.0000 0.80650  0.91130  0.01880  Biso   1.000  H
  C3       1.0000 0.82172  0.91040  0.10610  Biso   1.000  C
  H2       1.0000 0.86270  0.91450  0.10340  Biso   1.000  H
  C4       1.0000 0.79510  0.90630  0.16020  Biso   1.000  C
  H3       1.0000 0.81800  0.90760  0.19450  Biso   1.000  H
  C5       1.0000 0.73510  0.90040  0.16397  Biso   1.000  C
  H4       1.0000 0.71700  0.89760  0.20090  Biso   1.000  H
  N2       1.0000 0.60450  0.89820  0.96620  Biso   1.000  N
  N3       1.0000 0.63190  0.89520  0.02146  Biso   1.000  N
  C6       1.0000 0.69267  0.90180  0.01300  Biso   1.000  C
  C7       1.0000 0.70280  0.90890  0.95250  Biso   1.000  C
  H5       1.0000 0.73960  0.91420  0.93450  Biso   1.000  H
  C8       1.0000 0.64830  0.90660  0.92361  Biso   1.000  C
  H6       1.0000 0.64230  0.91010  0.88290  Biso   1.000  H
  C9       1.0000 0.54640  0.88430  0.95850  Biso   1.000  C
  H7       1.0000 0.53180  0.90430  0.92330  Biso   1.000  H
  H8       1.0000 0.52390  0.89880  0.99220  Biso   1.000  H
  C10      1.0000 0.53560  0.81742  0.95190  Biso   1.000  C
  C11      1.0000 0.58248  0.77950  0.95450  Biso   1.000  C
  H9       1.0000 0.62080  0.79430  0.95880  Biso   1.000  H
  C12      1.0000 0.57340  0.71985  0.95070  Biso   1.000  C
  H10      1.0000 0.60540  0.69390  0.95250  Biso   1.000  H
  C13      1.0000 0.51730  0.69821  0.94440  Biso   1.000  C
  C14      1.0000 0.47038  0.73620  0.94180  Biso   1.000  C
  C15      1.0000 0.47950  0.79580  0.94560  Biso   1.000  C
  C16      1.0000 0.41530  0.71260  0.93380  Biso   1.000  C
  H11      1.0000 0.41080  0.67180  0.92960  Biso   1.000  H
  C17      1.0000 0.36694  0.74870  0.93180  Biso   1.000  C
  H12      1.0000 0.32870  0.73320  0.93100  Biso   1.000  H
  C18      1.0000 0.37659  0.80830  0.93110  Biso   1.000  C
  H13      1.0000 0.34480  0.83370  0.92390  Biso   1.000  H
  C19      1.0000 0.43150  0.83215  0.94070  Biso   1.000  C
  H14      1.0000 0.43610  0.87310  0.94380  Biso   1.000  H
  C20      1.0000 0.51120  0.63760  0.94790  Biso   1.000  C
  N4       1.0000 0.50400  0.58360  0.94970  Biso   1.000  N
  N5       1.0000 0.79829  0.10150  0.61370  Biso   1.000  N
  C21      1.0000 0.77170  0.09750  0.55957  Biso   1.000  C
  C22      1.0000 0.71170  0.09150  0.55580  Biso   1.000  C
  H15      1.0000 0.69350  0.08870  0.51880  Biso   1.000  H
  C23      1.0000 0.67828  0.08960  0.60610  Biso   1.000  C
  H16      1.0000 0.63730  0.08550  0.60340  Biso   1.000  H
  C24      1.0000 0.70490  0.09370  0.66020  Biso   1.000  C
  H17      1.0000 0.68200  0.09240  0.69450  Biso   1.000  H
  C25      1.0000 0.76490  0.09960  0.66397  Biso   1.000  C
  H18      1.0000 0.78300  0.10240  0.70090  Biso   1.000  H
  N6       1.0000 0.89550  0.10180  0.46620  Biso   1.000  N
  N7       1.0000 0.86810  0.10480  0.52146  Biso   1.000  N
  C26      1.0000 0.80733  0.09820  0.51300  Biso   1.000  C
  C27      1.0000 0.79720  0.09110  0.45250  Biso   1.000  C
  H19      1.0000 0.76040  0.08580  0.43450  Biso   1.000  H
  C28      1.0000 0.85170  0.09340  0.42361  Biso   1.000  C
  H20      1.0000 0.85770  0.08990  0.38290  Biso   1.000  H
  C29      1.0000 0.95360  0.11570  0.45850  Biso   1.000  C
  H21      1.0000 0.96820  0.09570  0.42330  Biso   1.000  H
  H22      1.0000 0.97610  0.10120  0.49220  Biso   1.000  H
  C30      1.0000 0.96440  0.18258  0.45190  Biso   1.000  C
  C31      1.0000 0.91752  0.22050  0.45450  Biso   1.000  C
  H23      1.0000 0.87920  0.20570  0.45880  Biso   1.000  H
  C32      1.0000 0.92660  0.28015  0.45070  Biso   1.000  C
  H24      1.0000 0.89460  0.30610  0.45250  Biso   1.000  H
  C33      1.0000 0.98270  0.30179  0.44440  Biso   1.000  C
  C34      1.0000 0.02962  0.26380  0.44180  Biso   1.000  C
  C35      1.0000 0.02050  0.20420  0.44560  Biso   1.000  C
  C36      1.0000 0.08470  0.28740  0.43380  Biso   1.000  C
  H25      1.0000 0.08920  0.32820  0.42960  Biso   1.000  H
  C37      1.0000 0.13306  0.25130  0.43180  Biso   1.000  C
  H26      1.0000 0.17130  0.26680  0.43100  Biso   1.000  H
  C38      1.0000 0.12341  0.19170  0.43110  Biso   1.000  C
  H27      1.0000 0.15520  0.16630  0.42390  Biso   1.000  H
  C39      1.0000 0.06850  0.16785  0.44070  Biso   1.000  C
  H28      1.0000 0.06390  0.12690  0.44380  Biso   1.000  H
  C40      1.0000 0.98880  0.36240  0.44790  Biso   1.000  C
  N8       1.0000 0.99600  0.41640  0.44970  Biso   1.000  N
  N9       1.0000 0.29829  0.39850  0.38630  Biso   1.000  N
  C41      1.0000 0.27170  0.40250  0.44043  Biso   1.000  C
  C42      1.0000 0.21170  0.40850  0.44420  Biso   1.000  C
  H29      1.0000 0.19350  0.41130  0.48120  Biso   1.000  H
  C43      1.0000 0.17828  0.41040  0.39390  Biso   1.000  C
  H30      1.0000 0.13730  0.41450  0.39660  Biso   1.000  H
  C44      1.0000 0.20490  0.40630  0.33980  Biso   1.000  C
  H31      1.0000 0.18200  0.40760  0.30550  Biso   1.000  H
  C45      1.0000 0.26490  0.40040  0.33603  Biso   1.000  C
  H32      1.0000 0.28300  0.39760  0.29910  Biso   1.000  H
  N10      1.0000 0.39550  0.39820  0.53380  Biso   1.000  N
  N11      1.0000 0.36810  0.39520  0.47854  Biso   1.000  N
  C46      1.0000 0.30733  0.40180  0.48700  Biso   1.000  C
  C47      1.0000 0.29720  0.40890  0.54750  Biso   1.000  C
  H33      1.0000 0.26040  0.41420  0.56550  Biso   1.000  H
  C48      1.0000 0.35170  0.40660  0.57639  Biso   1.000  C
  H34      1.0000 0.35770  0.41010  0.61710  Biso   1.000  H
  C49      1.0000 0.45360  0.38430  0.54150  Biso   1.000  C
  H35      1.0000 0.46820  0.40430  0.57670  Biso   1.000  H
  H36      1.0000 0.47610  0.39880  0.50780  Biso   1.000  H
  C50      1.0000 0.46440  0.31742  0.54810  Biso   1.000  C
  C51      1.0000 0.41752  0.27950  0.54550  Biso   1.000  C
  H37      1.0000 0.37920  0.29430  0.54120  Biso   1.000  H
  C52      1.0000 0.42660  0.21985  0.54930  Biso   1.000  C
  H38      1.0000 0.39460  0.19390  0.54750  Biso   1.000  H
  C53      1.0000 0.48270  0.19821  0.55560  Biso   1.000  C
  C54      1.0000 0.52962  0.23620  0.55820  Biso   1.000  C
  C55      1.0000 0.52050  0.29580  0.55440  Biso   1.000  C
  C56      1.0000 0.58470  0.21260  0.56620  Biso   1.000  C
  H39      1.0000 0.58920  0.17180  0.57040  Biso   1.000  H
  C57      1.0000 0.63306  0.24870  0.56820  Biso   1.000  C
  H40      1.0000 0.67130  0.23320  0.56900  Biso   1.000  H
  C58      1.0000 0.62341  0.30830  0.56890  Biso   1.000  C
  H41      1.0000 0.65520  0.33370  0.57610  Biso   1.000  H
  C59      1.0000 0.56850  0.33215  0.55930  Biso   1.000  C
  H42      1.0000 0.56390  0.37310  0.55620  Biso   1.000  H
  C60      1.0000 0.48880  0.13760  0.55210  Biso   1.000  C
  N12      1.0000 0.49600  0.08360  0.55030  Biso   1.000  N
  N13      1.0000 0.20171  0.60150  0.88630  Biso   1.000  N
  C61      1.0000 0.22830  0.59750  0.94043  Biso   1.000  C
  C62      1.0000 0.28830  0.59150  0.94420  Biso   1.000  C
  H43      1.0000 0.30650  0.58870  0.98120  Biso   1.000  H
  C63      1.0000 0.32172  0.58960  0.89390  Biso   1.000  C
  H44      1.0000 0.36270  0.58550  0.89660  Biso   1.000  H
  C64      1.0000 0.29510  0.59370  0.83980  Biso   1.000  C
  H45      1.0000 0.31800  0.59240  0.80550  Biso   1.000  H
  C65      1.0000 0.23510  0.59960  0.83603  Biso   1.000  C
  H46      1.0000 0.21700  0.60240  0.79910  Biso   1.000  H
  N14      1.0000 0.10450  0.60180  0.03380  Biso   1.000  N
  N15      1.0000 0.13190  0.60480  0.97854  Biso   1.000  N
  C66      1.0000 0.19267  0.59820  0.98700  Biso   1.000  C
  C67      1.0000 0.20280  0.59110  0.04750  Biso   1.000  C
  H47      1.0000 0.23960  0.58580  0.06550  Biso   1.000  H
  C68      1.0000 0.14830  0.59340  0.07639  Biso   1.000  C
  H48      1.0000 0.14230  0.58990  0.11710  Biso   1.000  H
  C69      1.0000 0.04640  0.61570  0.04150  Biso   1.000  C
  H49      1.0000 0.03180  0.59570  0.07670  Biso   1.000  H
  H50      1.0000 0.02390  0.60120  0.00780  Biso   1.000  H
  C70      1.0000 0.03560  0.68258  0.04810  Biso   1.000  C
  C71      1.0000 0.08248  0.72050  0.04550  Biso   1.000  C
  H51      1.0000 0.12080  0.70570  0.04120  Biso   1.000  H
  C72      1.0000 0.07340  0.78015  0.04930  Biso   1.000  C
  H52      1.0000 0.10540  0.80610  0.04750  Biso   1.000  H
  C73      1.0000 0.01730  0.80179  0.05560  Biso   1.000  C
  C74      1.0000 0.97038  0.76380  0.05820  Biso   1.000  C
  C75      1.0000 0.97950  0.70420  0.05440  Biso   1.000  C
  C76      1.0000 0.91530  0.78740  0.06620  Biso   1.000  C
  H53      1.0000 0.91080  0.82820  0.07040  Biso   1.000  H
  C77      1.0000 0.86694  0.75130  0.06820  Biso   1.000  C
  H54      1.0000 0.82870  0.76680  0.06900  Biso   1.000  H
  C78      1.0000 0.87659  0.69170  0.06890  Biso   1.000  C
  H55      1.0000 0.84480  0.66630  0.07610  Biso   1.000  H
  C79      1.0000 0.93150  0.66785  0.05930  Biso   1.000  C
  H56      1.0000 0.93610  0.62690  0.05620  Biso   1.000  H
  C80      1.0000 0.01120  0.86240  0.05210  Biso   1.000  C
  N16      1.0000 0.00400  0.91640  0.05030  Biso   1.000  N
  N17      1.0000 0.11370  0.70171  0.89850  Biso   1.000  N
  C81      1.0000 0.05957  0.72830  0.90250  Biso   1.000  C
  C82      1.0000 0.05580  0.78830  0.90850  Biso   1.000  C
  H57      1.0000 0.01880  0.80650  0.91130  Biso   1.000  H
  C83      1.0000 0.10610  0.82172  0.91040  Biso   1.000  C
  H58      1.0000 0.10340  0.86270  0.91450  Biso   1.000  H
  C84      1.0000 0.16020  0.79510  0.90630  Biso   1.000  C
  H59      1.0000 0.19450  0.81800  0.90760  Biso   1.000  H
  C85      1.0000 0.16397  0.73510  0.90040  Biso   1.000  C
  H60      1.0000 0.20090  0.71700  0.89760  Biso   1.000  H
  N18      1.0000 0.96620  0.60450  0.89820  Biso   1.000  N
  N19      1.0000 0.02146  0.63190  0.89520  Biso   1.000  N
  C86      1.0000 0.01300  0.69267  0.90180  Biso   1.000  C
  C87      1.0000 0.95250  0.70280  0.90890  Biso   1.000  C
  H61      1.0000 0.93450  0.73960  0.91420  Biso   1.000  H
  C88      1.0000 0.92361  0.64830  0.90660  Biso   1.000  C
  H62      1.0000 0.88290  0.64230  0.91010  Biso   1.000  H
  C89      1.0000 0.95850  0.54640  0.88430  Biso   1.000  C
  H63      1.0000 0.92330  0.53180  0.90430  Biso   1.000  H
  H64      1.0000 0.99220  0.52390  0.89880  Biso   1.000  H
  C90      1.0000 0.95190  0.53560  0.81742  Biso   1.000  C
  C91      1.0000 0.95450  0.58248  0.77950  Biso   1.000  C
  H65      1.0000 0.95880  0.62080  0.79430  Biso   1.000  H
  C92      1.0000 0.95070  0.57340  0.71985  Biso   1.000  C
  H66      1.0000 0.95250  0.60540  0.69390  Biso   1.000  H
  C93      1.0000 0.94440  0.51730  0.69821  Biso   1.000  C
  C94      1.0000 0.94180  0.47038  0.73620  Biso   1.000  C
  C95      1.0000 0.94560  0.47950  0.79580  Biso   1.000  C
  C96      1.0000 0.93380  0.41530  0.71260  Biso   1.000  C
  H67      1.0000 0.92960  0.41080  0.67180  Biso   1.000  H
  C97      1.0000 0.93180  0.36694  0.74870  Biso   1.000  C
  H68      1.0000 0.93100  0.32870  0.73320  Biso   1.000  H
  C98      1.0000 0.93110  0.37659  0.80830  Biso   1.000  C
  H69      1.0000 0.92390  0.34480  0.83370  Biso   1.000  H
  C99      1.0000 0.94070  0.43150  0.83215  Biso   1.000  C
  H70      1.0000 0.94380  0.43610  0.87310  Biso   1.000  H
  C100     1.0000 0.94790  0.51120  0.63760  Biso   1.000  C
  N20      1.0000 0.94970  0.50400  0.58360  Biso   1.000  N
  N21      1.0000 0.61370  0.79829  0.10150  Biso   1.000  N
  C101     1.0000 0.55957  0.77170  0.09750  Biso   1.000  C
  C102     1.0000 0.55580  0.71170  0.09150  Biso   1.000  C
  H71      1.0000 0.51880  0.69350  0.08870  Biso   1.000  H
  C103     1.0000 0.60610  0.67828  0.08960  Biso   1.000  C
  H72      1.0000 0.60340  0.63730  0.08550  Biso   1.000  H
  C104     1.0000 0.66020  0.70490  0.09370  Biso   1.000  C
  H73      1.0000 0.69450  0.68200  0.09240  Biso   1.000  H
  C105     1.0000 0.66397  0.76490  0.09960  Biso   1.000  C
  H74      1.0000 0.70090  0.78300  0.10240  Biso   1.000  H
  N22      1.0000 0.46620  0.89550  0.10180  Biso   1.000  N
  N23      1.0000 0.52146  0.86810  0.10480  Biso   1.000  N
  C106     1.0000 0.51300  0.80733  0.09820  Biso   1.000  C
  C107     1.0000 0.45250  0.79720  0.09110  Biso   1.000  C
  H75      1.0000 0.43450  0.76040  0.08580  Biso   1.000  H
  C108     1.0000 0.42361  0.85170  0.09340  Biso   1.000  C
  H76      1.0000 0.38290  0.85770  0.08990  Biso   1.000  H
  C109     1.0000 0.45850  0.95360  0.11570  Biso   1.000  C
  H77      1.0000 0.42330  0.96820  0.09570  Biso   1.000  H
  H78      1.0000 0.49220  0.97610  0.10120  Biso   1.000  H
  C110     1.0000 0.45190  0.96440  0.18258  Biso   1.000  C
  C111     1.0000 0.45450  0.91752  0.22050  Biso   1.000  C
  H79      1.0000 0.45880  0.87920  0.20570  Biso   1.000  H
  C112     1.0000 0.45070  0.92660  0.28015  Biso   1.000  C
  H80      1.0000 0.45250  0.89460  0.30610  Biso   1.000  H
  C113     1.0000 0.44440  0.98270  0.30179  Biso   1.000  C
  C114     1.0000 0.44180  0.02962  0.26380  Biso   1.000  C
  C115     1.0000 0.44560  0.02050  0.20420  Biso   1.000  C
  C116     1.0000 0.43380  0.08470  0.28740  Biso   1.000  C
  H81      1.0000 0.42960  0.08920  0.32820  Biso   1.000  H
  C117     1.0000 0.43180  0.13306  0.25130  Biso   1.000  C
  H82      1.0000 0.43100  0.17130  0.26680  Biso   1.000  H
  C118     1.0000 0.43110  0.12341  0.19170  Biso   1.000  C
  H83      1.0000 0.42390  0.15520  0.16630  Biso   1.000  H
  C119     1.0000 0.44070  0.06850  0.16785  Biso   1.000  C
  H84      1.0000 0.44380  0.06390  0.12690  Biso   1.000  H
  C120     1.0000 0.44790  0.98880  0.36240  Biso   1.000  C
  N24      1.0000 0.44970  0.99600  0.41640  Biso   1.000  N
  N25      1.0000 0.38630  0.29829  0.39850  Biso   1.000  N
  C121     1.0000 0.44043  0.27170  0.40250  Biso   1.000  C
  C122     1.0000 0.44420  0.21170  0.40850  Biso   1.000  C
  H85      1.0000 0.48120  0.19350  0.41130  Biso   1.000  H
  C123     1.0000 0.39390  0.17828  0.41040  Biso   1.000  C
  H86      1.0000 0.39660  0.13730  0.41450  Biso   1.000  H
  C124     1.0000 0.33980  0.20490  0.40630  Biso   1.000  C
  H87      1.0000 0.30550  0.18200  0.40760  Biso   1.000  H
  C125     1.0000 0.33603  0.26490  0.40040  Biso   1.000  C
  H88      1.0000 0.29910  0.28300  0.39760  Biso   1.000  H
  N26      1.0000 0.53380  0.39550  0.39820  Biso   1.000  N
  N27      1.0000 0.47854  0.36810  0.39520  Biso   1.000  N
  C126     1.0000 0.48700  0.30733  0.40180  Biso   1.000  C
  C127     1.0000 0.54750  0.29720  0.40890  Biso   1.000  C
  H89      1.0000 0.56550  0.26040  0.41420  Biso   1.000  H
  C128     1.0000 0.57639  0.35170  0.40660  Biso   1.000  C
  H90      1.0000 0.61710  0.35770  0.41010  Biso   1.000  H
  C129     1.0000 0.54150  0.45360  0.38430  Biso   1.000  C
  H91      1.0000 0.57670  0.46820  0.40430  Biso   1.000  H
  H92      1.0000 0.50780  0.47610  0.39880  Biso   1.000  H
  C130     1.0000 0.54810  0.46440  0.31742  Biso   1.000  C
  C131     1.0000 0.54550  0.41752  0.27950  Biso   1.000  C
  H93      1.0000 0.54120  0.37920  0.29430  Biso   1.000  H
  C132     1.0000 0.54930  0.42660  0.21985  Biso   1.000  C
  H94      1.0000 0.54750  0.39460  0.19390  Biso   1.000  H
  C133     1.0000 0.55560  0.48270  0.19821  Biso   1.000  C
  C134     1.0000 0.55820  0.52962  0.23620  Biso   1.000  C
  C135     1.0000 0.55440  0.52050  0.29580  Biso   1.000  C
  C136     1.0000 0.56620  0.58470  0.21260  Biso   1.000  C
  H95      1.0000 0.57040  0.58920  0.17180  Biso   1.000  H
  C137     1.0000 0.56820  0.63306  0.24870  Biso   1.000  C
  H96      1.0000 0.56900  0.67130  0.23320  Biso   1.000  H
  C138     1.0000 0.56890  0.62341  0.30830  Biso   1.000  C
  H97      1.0000 0.57610  0.65520  0.33370  Biso   1.000  H
  C139     1.0000 0.55930  0.56850  0.33215  Biso   1.000  C
  H98      1.0000 0.55620  0.56390  0.37310  Biso   1.000  H
  C140     1.0000 0.55210  0.48880  0.13760  Biso   1.000  C
  N28      1.0000 0.55030  0.49600  0.08360  Biso   1.000  N
  N29      1.0000 0.88630  0.20171  0.60150  Biso   1.000  N
  C141     1.0000 0.94043  0.22830  0.59750  Biso   1.000  C
  C142     1.0000 0.94420  0.28830  0.59150  Biso   1.000  C
  H99      1.0000 0.98120  0.30650  0.58870  Biso   1.000  H
  C143     1.0000 0.89390  0.32172  0.58960  Biso   1.000  C
  H100     1.0000 0.89660  0.36270  0.58550  Biso   1.000  H
  C144     1.0000 0.83980  0.29510  0.59370  Biso   1.000  C
  H101     1.0000 0.80550  0.31800  0.59240  Biso   1.000  H
  C145     1.0000 0.83603  0.23510  0.59960  Biso   1.000  C
  H102     1.0000 0.79910  0.21700  0.60240  Biso   1.000  H
  N30      1.0000 0.03380  0.10450  0.60180  Biso   1.000  N
  N31      1.0000 0.97854  0.13190  0.60480  Biso   1.000  N
  C146     1.0000 0.98700  0.19267  0.59820  Biso   1.000  C
  C147     1.0000 0.04750  0.20280  0.59110  Biso   1.000  C
  H103     1.0000 0.06550  0.23960  0.58580  Biso   1.000  H
  C148     1.0000 0.07639  0.14830  0.59340  Biso   1.000  C
  H104     1.0000 0.11710  0.14230  0.58990  Biso   1.000  H
  C149     1.0000 0.04150  0.04640  0.61570  Biso   1.000  C
  H105     1.0000 0.07670  0.03180  0.59570  Biso   1.000  H
  H106     1.0000 0.00780  0.02390  0.60120  Biso   1.000  H
  C150     1.0000 0.04810  0.03560  0.68258  Biso   1.000  C
  C151     1.0000 0.04550  0.08248  0.72050  Biso   1.000  C
  H107     1.0000 0.04120  0.12080  0.70570  Biso   1.000  H
  C152     1.0000 0.04930  0.07340  0.78015  Biso   1.000  C
  H108     1.0000 0.04750  0.10540  0.80610  Biso   1.000  H
  C153     1.0000 0.05560  0.01730  0.80179  Biso   1.000  C
  C154     1.0000 0.05820  0.97038  0.76380  Biso   1.000  C
  C155     1.0000 0.05440  0.97950  0.70420  Biso   1.000  C
  C156     1.0000 0.06620  0.91530  0.78740  Biso   1.000  C
  H109     1.0000 0.07040  0.91080  0.82820  Biso   1.000  H
  C157     1.0000 0.06820  0.86694  0.75130  Biso   1.000  C
  H110     1.0000 0.06900  0.82870  0.76680  Biso   1.000  H
  C158     1.0000 0.06890  0.87659  0.69170  Biso   1.000  C
  H111     1.0000 0.07610  0.84480  0.66630  Biso   1.000  H
  C159     1.0000 0.05930  0.93150  0.66785  Biso   1.000  C
  H112     1.0000 0.05620  0.93610  0.62690  Biso   1.000  H
  C160     1.0000 0.05210  0.01120  0.86240  Biso   1.000  C
  N32      1.0000 0.05030  0.00400  0.91640  Biso   1.000  N
  N33      1.0000 0.89850  0.11370  0.70171  Biso   1.000  N
  C161     1.0000 0.90250  0.05957  0.72830  Biso   1.000  C
  C162     1.0000 0.90850  0.05580  0.78830  Biso   1.000  C
  H113     1.0000 0.91130  0.01880  0.80650  Biso   1.000  H
  C163     1.0000 0.91040  0.10610  0.82172  Biso   1.000  C
  H114     1.0000 0.91450  0.10340  0.86270  Biso   1.000  H
  C164     1.0000 0.90630  0.16020  0.79510  Biso   1.000  C
  H115     1.0000 0.90760  0.19450  0.81800  Biso   1.000  H
  C165     1.0000 0.90040  0.16397  0.73510  Biso   1.000  C
  H116     1.0000 0.89760  0.20090  0.71700  Biso   1.000  H
  N34      1.0000 0.89820  0.96620  0.60450  Biso   1.000  N
  N35      1.0000 0.89520  0.02146  0.63190  Biso   1.000  N
  C166     1.0000 0.90180  0.01300  0.69267  Biso   1.000  C
  C167     1.0000 0.90890  0.95250  0.70280  Biso   1.000  C
  H117     1.0000 0.91420  0.93450  0.73960  Biso   1.000  H
  C168     1.0000 0.90660  0.92361  0.64830  Biso   1.000  C
  H118     1.0000 0.91010  0.88290  0.64230  Biso   1.000  H
  C169     1.0000 0.88430  0.95850  0.54640  Biso   1.000  C
  H119     1.0000 0.90430  0.92330  0.53180  Biso   1.000  H
  H120     1.0000 0.89880  0.99220  0.52390  Biso   1.000  H
  C170     1.0000 0.81742  0.95190  0.53560  Biso   1.000  C
  C171     1.0000 0.77950  0.95450  0.58248  Biso   1.000  C
  H121     1.0000 0.79430  0.95880  0.62080  Biso   1.000  H
  C172     1.0000 0.71985  0.95070  0.57340  Biso   1.000  C
  H122     1.0000 0.69390  0.95250  0.60540  Biso   1.000  H
  C173     1.0000 0.69821  0.94440  0.51730  Biso   1.000  C
  C174     1.0000 0.73620  0.94180  0.47038  Biso   1.000  C
  C175     1.0000 0.79580  0.94560  0.47950  Biso   1.000  C
  C176     1.0000 0.71260  0.93380  0.41530  Biso   1.000  C
  H123     1.0000 0.67180  0.92960  0.41080  Biso   1.000  H
  C177     1.0000 0.74870  0.93180  0.36694  Biso   1.000  C
  H124     1.0000 0.73320  0.93100  0.32870  Biso   1.000  H
  C178     1.0000 0.80830  0.93110  0.37659  Biso   1.000  C
  H125     1.0000 0.83370  0.92390  0.34480  Biso   1.000  H
  C179     1.0000 0.83215  0.94070  0.43150  Biso   1.000  C
  H126     1.0000 0.87310  0.94380  0.43610  Biso   1.000  H
  C180     1.0000 0.63760  0.94790  0.51120  Biso   1.000  C
  N36      1.0000 0.58360  0.94970  0.50400  Biso   1.000  N
  N37      1.0000 0.10150  0.61370  0.79829  Biso   1.000  N
  C181     1.0000 0.09750  0.55957  0.77170  Biso   1.000  C
  C182     1.0000 0.09150  0.55580  0.71170  Biso   1.000  C
  H127     1.0000 0.08870  0.51880  0.69350  Biso   1.000  H
  C183     1.0000 0.08960  0.60610  0.67828  Biso   1.000  C
  H128     1.0000 0.08550  0.60340  0.63730  Biso   1.000  H
  C184     1.0000 0.09370  0.66020  0.70490  Biso   1.000  C
  H129     1.0000 0.09240  0.69450  0.68200  Biso   1.000  H
  C185     1.0000 0.09960  0.66397  0.76490  Biso   1.000  C
  H130     1.0000 0.10240  0.70090  0.78300  Biso   1.000  H
  N38      1.0000 0.10180  0.46620  0.89550  Biso   1.000  N
  N39      1.0000 0.10480  0.52146  0.86810  Biso   1.000  N
  C186     1.0000 0.09820  0.51300  0.80733  Biso   1.000  C
  C187     1.0000 0.09110  0.45250  0.79720  Biso   1.000  C
  H131     1.0000 0.08580  0.43450  0.76040  Biso   1.000  H
  C188     1.0000 0.09340  0.42361  0.85170  Biso   1.000  C
  H132     1.0000 0.08990  0.38290  0.85770  Biso   1.000  H
  C189     1.0000 0.11570  0.45850  0.95360  Biso   1.000  C
  H133     1.0000 0.09570  0.42330  0.96820  Biso   1.000  H
  H134     1.0000 0.10120  0.49220  0.97610  Biso   1.000  H
  C190     1.0000 0.18258  0.45190  0.96440  Biso   1.000  C
  C191     1.0000 0.22050  0.45450  0.91752  Biso   1.000  C
  H135     1.0000 0.20570  0.45880  0.87920  Biso   1.000  H
  C192     1.0000 0.28015  0.45070  0.92660  Biso   1.000  C
  H136     1.0000 0.30610  0.45250  0.89460  Biso   1.000  H
  C193     1.0000 0.30179  0.44440  0.98270  Biso   1.000  C
  C194     1.0000 0.26380  0.44180  0.02962  Biso   1.000  C
  C195     1.0000 0.20420  0.44560  0.02050  Biso   1.000  C
  C196     1.0000 0.28740  0.43380  0.08470  Biso   1.000  C
  H137     1.0000 0.32820  0.42960  0.08920  Biso   1.000  H
  C197     1.0000 0.25130  0.43180  0.13306  Biso   1.000  C
  H138     1.0000 0.26680  0.43100  0.17130  Biso   1.000  H
  C198     1.0000 0.19170  0.43110  0.12341  Biso   1.000  C
  H139     1.0000 0.16630  0.42390  0.15520  Biso   1.000  H
  C199     1.0000 0.16785  0.44070  0.06850  Biso   1.000  C
  H140     1.0000 0.12690  0.44380  0.06390  Biso   1.000  H
  C200     1.0000 0.36240  0.44790  0.98880  Biso   1.000  C
  N40      1.0000 0.41640  0.44970  0.99600  Biso   1.000  N
  N41      1.0000 0.39850  0.38630  0.29829  Biso   1.000  N
  C201     1.0000 0.40250  0.44043  0.27170  Biso   1.000  C
  C202     1.0000 0.40850  0.44420  0.21170  Biso   1.000  C
  H141     1.0000 0.41130  0.48120  0.19350  Biso   1.000  H
  C203     1.0000 0.41040  0.39390  0.17828  Biso   1.000  C
  H142     1.0000 0.41450  0.39660  0.13730  Biso   1.000  H
  C204     1.0000 0.40630  0.33980  0.20490  Biso   1.000  C
  H143     1.0000 0.40760  0.30550  0.18200  Biso   1.000  H
  C205     1.0000 0.40040  0.33603  0.26490  Biso   1.000  C
  H144     1.0000 0.39760  0.29910  0.28300  Biso   1.000  H
  N42      1.0000 0.39820  0.53380  0.39550  Biso   1.000  N
  N43      1.0000 0.39520  0.47854  0.36810  Biso   1.000  N
  C206     1.0000 0.40180  0.48700  0.30733  Biso   1.000  C
  C207     1.0000 0.40890  0.54750  0.29720  Biso   1.000  C
  H145     1.0000 0.41420  0.56550  0.26040  Biso   1.000  H
  C208     1.0000 0.40660  0.57639  0.35170  Biso   1.000  C
  H146     1.0000 0.41010  0.61710  0.35770  Biso   1.000  H
  C209     1.0000 0.38430  0.54150  0.45360  Biso   1.000  C
  H147     1.0000 0.40430  0.57670  0.46820  Biso   1.000  H
  H148     1.0000 0.39880  0.50780  0.47610  Biso   1.000  H
  C210     1.0000 0.31742  0.54810  0.46440  Biso   1.000  C
  C211     1.0000 0.27950  0.54550  0.41752  Biso   1.000  C
  H149     1.0000 0.29430  0.54120  0.37920  Biso   1.000  H
  C212     1.0000 0.21985  0.54930  0.42660  Biso   1.000  C
  H150     1.0000 0.19390  0.54750  0.39460  Biso   1.000  H
  C213     1.0000 0.19821  0.55560  0.48270  Biso   1.000  C
  C214     1.0000 0.23620  0.55820  0.52962  Biso   1.000  C
  C215     1.0000 0.29580  0.55440  0.52050  Biso   1.000  C
  C216     1.0000 0.21260  0.56620  0.58470  Biso   1.000  C
  H151     1.0000 0.17180  0.57040  0.58920  Biso   1.000  H
  C217     1.0000 0.24870  0.56820  0.63306  Biso   1.000  C
  H152     1.0000 0.23320  0.56900  0.67130  Biso   1.000  H
  C218     1.0000 0.30830  0.56890  0.62341  Biso   1.000  C
  H153     1.0000 0.33370  0.57610  0.65520  Biso   1.000  H
  C219     1.0000 0.33215  0.55930  0.56850  Biso   1.000  C
  H154     1.0000 0.37310  0.55620  0.56390  Biso   1.000  H
  C220     1.0000 0.13760  0.55210  0.48880  Biso   1.000  C
  N44      1.0000 0.08360  0.55030  0.49600  Biso   1.000  N
  N45      1.0000 0.60150  0.88630  0.20171  Biso   1.000  N
  C221     1.0000 0.59750  0.94043  0.22830  Biso   1.000  C
  C222     1.0000 0.59150  0.94420  0.28830  Biso   1.000  C
  H155     1.0000 0.58870  0.98120  0.30650  Biso   1.000  H
  C223     1.0000 0.58960  0.89390  0.32172  Biso   1.000  C
  H156     1.0000 0.58550  0.89660  0.36270  Biso   1.000  H
  C224     1.0000 0.59370  0.83980  0.29510  Biso   1.000  C
  H157     1.0000 0.59240  0.80550  0.31800  Biso   1.000  H
  C225     1.0000 0.59960  0.83603  0.23510  Biso   1.000  C
  H158     1.0000 0.60240  0.79910  0.21700  Biso   1.000  H
  N46      1.0000 0.60180  0.03380  0.10450  Biso   1.000  N
  N47      1.0000 0.60480  0.97854  0.13190  Biso   1.000  N
  C226     1.0000 0.59820  0.98700  0.19267  Biso   1.000  C
  C227     1.0000 0.59110  0.04750  0.20280  Biso   1.000  C
  H159     1.0000 0.58580  0.06550  0.23960  Biso   1.000  H
  C228     1.0000 0.59340  0.07639  0.14830  Biso   1.000  C
  H160     1.0000 0.58990  0.11710  0.14230  Biso   1.000  H
  C229     1.0000 0.61570  0.04150  0.04640  Biso   1.000  C
  H161     1.0000 0.59570  0.07670  0.03180  Biso   1.000  H
  H162     1.0000 0.60120  0.00780  0.02390  Biso   1.000  H
  C230     1.0000 0.68258  0.04810  0.03560  Biso   1.000  C
  C231     1.0000 0.72050  0.04550  0.08248  Biso   1.000  C
  H163     1.0000 0.70570  0.04120  0.12080  Biso   1.000  H
  C232     1.0000 0.78015  0.04930  0.07340  Biso   1.000  C
  H164     1.0000 0.80610  0.04750  0.10540  Biso   1.000  H
  C233     1.0000 0.80179  0.05560  0.01730  Biso   1.000  C
  C234     1.0000 0.76380  0.05820  0.97038  Biso   1.000  C
  C235     1.0000 0.70420  0.05440  0.97950  Biso   1.000  C
  C236     1.0000 0.78740  0.06620  0.91530  Biso   1.000  C
  H165     1.0000 0.82820  0.07040  0.91080  Biso   1.000  H
  C237     1.0000 0.75130  0.06820  0.86694  Biso   1.000  C
  H166     1.0000 0.76680  0.06900  0.82870  Biso   1.000  H
  C238     1.0000 0.69170  0.06890  0.87659  Biso   1.000  C
  H167     1.0000 0.66630  0.07610  0.84480  Biso   1.000  H
  C239     1.0000 0.66785  0.05930  0.93150  Biso   1.000  C
  H168     1.0000 0.62690  0.05620  0.93610  Biso   1.000  H
  C240     1.0000 0.86240  0.05210  0.01120  Biso   1.000  C
  N48      1.0000 0.91640  0.05030  0.00400  Biso   1.000  N
  Ag1      1.0000 0.48961  0.51039  0.01039  Biso   1.000  Ag
  Ag2      1.0000 0.01039  0.48961  0.51039  Biso   1.000  Ag
  Ag3      1.0000 0.51039  0.01039  0.48961  Biso   1.000  Ag
  Ag4      1.0000 0.98961  0.98961  0.98961  Biso   1.000  Ag
  Ni1      1.0000 0.61095  0.88905  0.11095  Biso   1.000  Ni
  Ni2      1.0000 0.88905  0.11095  0.61095  Biso   1.000  Ni
  Ni3      1.0000 0.38905  0.38905  0.38905  Biso   1.000  Ni
  Ni4      1.0000 0.11095  0.61095  0.88905  Biso   1.000  Ni
  N49      1.0000 0.61220  0.36810  0.97231  Biso   1.000  N
  C241     1.0000 0.66530  0.36240  0.00060  Biso   1.000  C
  C242     1.0000 0.66680  0.35010  0.05970  Biso   1.000  C
  H169     1.0000 0.70310  0.34620  0.07910  Biso   1.000  H
  C243     1.0000 0.61530  0.34340  0.09056  Biso   1.000  C
  H170     1.0000 0.61630  0.33500  0.13100  Biso   1.000  H
  C244     1.0000 0.56220  0.34910  0.06230  Biso   1.000  C
  H171     1.0000 0.52700  0.34450  0.08330  Biso   1.000  H
  C245     1.0000 0.56070  0.36140  0.00310  Biso   1.000  C
  H172     1.0000 0.52440  0.36530  0.98380  Biso   1.000  H
  N50      1.0000 0.76240  0.37220  0.88015  Biso   1.000  N
  N51      1.0000 0.70622  0.37180  0.90568  Biso   1.000  N
  C246     1.0000 0.71300  0.36530  0.96667  Biso   1.000  C
  C247     1.0000 0.77340  0.36160  0.97880  Biso   1.000  C
  H173     1.0000 0.79040  0.35700  0.01620  Biso   1.000  H
  C248     1.0000 0.80395  0.36580  0.92540  Biso   1.000  C
  H174     1.0000 0.84500  0.36470  0.92070  Biso   1.000  H
  C249     1.0000 0.77360  0.38650  0.82330  Biso   1.000  C
  H175     1.0000 0.74070  0.37270  0.79920  Biso   1.000  H
  H176     1.0000 0.80870  0.36490  0.81070  Biso   1.000  H
  C250     1.0000 0.78310  0.45004  0.81040  Biso   1.000  C
  C251     1.0000 0.78640  0.48880  0.85662  Biso   1.000  C
  H177     1.0000 0.78350  0.47500  0.89540  Biso   1.000  H
  C252     1.0000 0.79410  0.54780  0.84610  Biso   1.000  C
  H178     1.0000 0.79630  0.57430  0.87770  Biso   1.000  H
  C253     1.0000 0.79840  0.56804  0.78930  Biso   1.000  C
  C254     1.0000 0.79510  0.52930  0.74310  Biso   1.000  C
  C255     1.0000 0.78750  0.47030  0.75363  Biso   1.000  C
  C256     1.0000 0.79370  0.55020  0.68644  Biso   1.000  C
  H179     1.0000 0.79440  0.59090  0.67950  Biso   1.000  H
  C257     1.0000 0.79120  0.51170  0.64000  Biso   1.000  C
  H180     1.0000 0.79210  0.52580  0.60120  Biso   1.000  H
  C258     1.0000 0.78740  0.45230  0.65052  Biso   1.000  C
  H181     1.0000 0.78510  0.42590  0.61890  Biso   1.000  H
  C259     1.0000 0.78680  0.43140  0.70740  Biso   1.000  C
  H182     1.0000 0.78600  0.39080  0.71450  Biso   1.000  H
  C260     1.0000 0.80580  0.62900  0.78380  Biso   1.000  C
  N52      1.0000 0.81270  0.67900  0.77800  Biso   1.000  N
  N53      1.0000 0.88780  0.63190  0.47231  Biso   1.000  N
  C261     1.0000 0.83470  0.63760  0.50060  Biso   1.000  C
  C262     1.0000 0.83320  0.64990  0.55970  Biso   1.000  C
  H183     1.0000 0.79690  0.65380  0.57910  Biso   1.000  H
  C263     1.0000 0.88470  0.65660  0.59056  Biso   1.000  C
  H184     1.0000 0.88370  0.66500  0.63100  Biso   1.000  H
  C264     1.0000 0.93780  0.65090  0.56230  Biso   1.000  C
  H185     1.0000 0.97300  0.65550  0.58330  Biso   1.000  H
  C265     1.0000 0.93930  0.63860  0.50310  Biso   1.000  C
  H186     1.0000 0.97560  0.63470  0.48380  Biso   1.000  H
  N54      1.0000 0.73760  0.62780  0.38015  Biso   1.000  N
  N55      1.0000 0.79378  0.62820  0.40568  Biso   1.000  N
  C266     1.0000 0.78700  0.63470  0.46667  Biso   1.000  C
  C267     1.0000 0.72660  0.63840  0.47880  Biso   1.000  C
  H187     1.0000 0.70960  0.64300  0.51620  Biso   1.000  H
  C268     1.0000 0.69605  0.63420  0.42540  Biso   1.000  C
  H188     1.0000 0.65500  0.63530  0.42070  Biso   1.000  H
  C269     1.0000 0.72640  0.61350  0.32330  Biso   1.000  C
  H189     1.0000 0.75930  0.62730  0.29920  Biso   1.000  H
  H190     1.0000 0.69130  0.63510  0.31070  Biso   1.000  H
  C270     1.0000 0.71690  0.54996  0.31040  Biso   1.000  C
  C271     1.0000 0.71360  0.51120  0.35662  Biso   1.000  C
  H191     1.0000 0.71650  0.52500  0.39540  Biso   1.000  H
  C272     1.0000 0.70590  0.45220  0.34610  Biso   1.000  C
  H192     1.0000 0.70370  0.42570  0.37770  Biso   1.000  H
  C273     1.0000 0.70160  0.43196  0.28930  Biso   1.000  C
  C274     1.0000 0.70490  0.47070  0.24310  Biso   1.000  C
  C275     1.0000 0.71250  0.52970  0.25363  Biso   1.000  C
  C276     1.0000 0.70630  0.44980  0.18644  Biso   1.000  C
  H193     1.0000 0.70560  0.40910  0.17950  Biso   1.000  H
  C277     1.0000 0.70880  0.48830  0.14000  Biso   1.000  C
  H194     1.0000 0.70790  0.47420  0.10120  Biso   1.000  H
  C278     1.0000 0.71260  0.54770  0.15052  Biso   1.000  C
  H195     1.0000 0.71490  0.57410  0.11890  Biso   1.000  H
  C279     1.0000 0.71320  0.56860  0.20740  Biso   1.000  C
  H196     1.0000 0.71400  0.60920  0.21450  Biso   1.000  H
  C280     1.0000 0.69420  0.37100  0.28380  Biso   1.000  C
  N56      1.0000 0.68730  0.32100  0.27800  Biso   1.000  N
  N57      1.0000 0.38780  0.86810  0.52769  Biso   1.000  N
  C281     1.0000 0.33470  0.86240  0.49940  Biso   1.000  C
  C282     1.0000 0.33320  0.85010  0.44030  Biso   1.000  C
  H197     1.0000 0.29690  0.84620  0.42090  Biso   1.000  H
  C283     1.0000 0.38470  0.84340  0.40944  Biso   1.000  C
  H198     1.0000 0.38370  0.83500  0.36900  Biso   1.000  H
  C284     1.0000 0.43780  0.84910  0.43770  Biso   1.000  C
  H199     1.0000 0.47300  0.84450  0.41670  Biso   1.000  H
  C285     1.0000 0.43930  0.86140  0.49690  Biso   1.000  C
  H200     1.0000 0.47560  0.86530  0.51620  Biso   1.000  H
  N58      1.0000 0.23760  0.87220  0.61985  Biso   1.000  N
  N59      1.0000 0.29378  0.87180  0.59432  Biso   1.000  N
  C286     1.0000 0.28700  0.86530  0.53333  Biso   1.000  C
  C287     1.0000 0.22660  0.86160  0.52120  Biso   1.000  C
  H201     1.0000 0.20960  0.85700  0.48380  Biso   1.000  H
  C288     1.0000 0.19605  0.86580  0.57460  Biso   1.000  C
  H202     1.0000 0.15500  0.86470  0.57930  Biso   1.000  H
  C289     1.0000 0.22640  0.88650  0.67670  Biso   1.000  C
  H203     1.0000 0.25930  0.87270  0.70080  Biso   1.000  H
  H204     1.0000 0.19130  0.86490  0.68930  Biso   1.000  H
  C290     1.0000 0.21690  0.95004  0.68960  Biso   1.000  C
  C291     1.0000 0.21360  0.98880  0.64338  Biso   1.000  C
  H205     1.0000 0.21650  0.97500  0.60460  Biso   1.000  H
  C292     1.0000 0.20590  0.04780  0.65390  Biso   1.000  C
  H206     1.0000 0.20370  0.07430  0.62230  Biso   1.000  H
  C293     1.0000 0.20160  0.06804  0.71070  Biso   1.000  C
  C294     1.0000 0.20490  0.02930  0.75690  Biso   1.000  C
  C295     1.0000 0.21250  0.97030  0.74637  Biso   1.000  C
  C296     1.0000 0.20630  0.05020  0.81356  Biso   1.000  C
  H207     1.0000 0.20560  0.09090  0.82050  Biso   1.000  H
  C297     1.0000 0.20880  0.01170  0.86000  Biso   1.000  C
  H208     1.0000 0.20790  0.02580  0.89880  Biso   1.000  H
  C298     1.0000 0.21260  0.95230  0.84948  Biso   1.000  C
  H209     1.0000 0.21490  0.92590  0.88110  Biso   1.000  H
  C299     1.0000 0.21320  0.93140  0.79260  Biso   1.000  C
  H210     1.0000 0.21400  0.89080  0.78550  Biso   1.000  H
  C300     1.0000 0.19420  0.12900  0.71620  Biso   1.000  C
  N60      1.0000 0.18730  0.17900  0.72200  Biso   1.000  N
  N61      1.0000 0.11220  0.13190  0.02769  Biso   1.000  N
  C301     1.0000 0.16530  0.13760  0.99940  Biso   1.000  C
  C302     1.0000 0.16680  0.14990  0.94030  Biso   1.000  C
  H211     1.0000 0.20310  0.15380  0.92090  Biso   1.000  H
  C303     1.0000 0.11530  0.15660  0.90944  Biso   1.000  C
  H212     1.0000 0.11630  0.16500  0.86900  Biso   1.000  H
  C304     1.0000 0.06220  0.15090  0.93770  Biso   1.000  C
  H213     1.0000 0.02700  0.15550  0.91670  Biso   1.000  H
  C305     1.0000 0.06070  0.13860  0.99690  Biso   1.000  C
  H214     1.0000 0.02440  0.13470  0.01620  Biso   1.000  H
  N62      1.0000 0.26240  0.12780  0.11985  Biso   1.000  N
  N63      1.0000 0.20622  0.12820  0.09432  Biso   1.000  N
  C306     1.0000 0.21300  0.13470  0.03333  Biso   1.000  C
  C307     1.0000 0.27340  0.13840  0.02120  Biso   1.000  C
  H215     1.0000 0.29040  0.14300  0.98380  Biso   1.000  H
  C308     1.0000 0.30395  0.13420  0.07460  Biso   1.000  C
  H216     1.0000 0.34500  0.13530  0.07930  Biso   1.000  H
  C309     1.0000 0.27360  0.11350  0.17670  Biso   1.000  C
  H217     1.0000 0.24070  0.12730  0.20080  Biso   1.000  H
  H218     1.0000 0.30870  0.13510  0.18930  Biso   1.000  H
  C310     1.0000 0.28310  0.04996  0.18960  Biso   1.000  C
  C311     1.0000 0.28640  0.01120  0.14338  Biso   1.000  C
  H219     1.0000 0.28350  0.02500  0.10460  Biso   1.000  H
  C312     1.0000 0.29410  0.95220  0.15390  Biso   1.000  C
  H220     1.0000 0.29630  0.92570  0.12230  Biso   1.000  H
  C313     1.0000 0.29840  0.93196  0.21070  Biso   1.000  C
  C314     1.0000 0.29510  0.97070  0.25690  Biso   1.000  C
  C315     1.0000 0.28750  0.02970  0.24637  Biso   1.000  C
  C316     1.0000 0.29370  0.94980  0.31356  Biso   1.000  C
  H221     1.0000 0.29440  0.90910  0.32050  Biso   1.000  H
  C317     1.0000 0.29120  0.98830  0.36000  Biso   1.000  C
  H222     1.0000 0.29210  0.97420  0.39880  Biso   1.000  H
  C318     1.0000 0.28740  0.04770  0.34948  Biso   1.000  C
  H223     1.0000 0.28510  0.07410  0.38110  Biso   1.000  H
  C319     1.0000 0.28680  0.06860  0.29260  Biso   1.000  C
  H224     1.0000 0.28600  0.10920  0.28550  Biso   1.000  H
  C320     1.0000 0.30580  0.87100  0.21620  Biso   1.000  C
  N64      1.0000 0.31270  0.82100  0.22200  Biso   1.000  N
  N65      1.0000 0.97231  0.61220  0.36810  Biso   1.000  N
  C321     1.0000 0.00060  0.66530  0.36240  Biso   1.000  C
  C322     1.0000 0.05970  0.66680  0.35010  Biso   1.000  C
  H225     1.0000 0.07910  0.70310  0.34620  Biso   1.000  H
  C323     1.0000 0.09056  0.61530  0.34340  Biso   1.000  C
  H226     1.0000 0.13100  0.61630  0.33500  Biso   1.000  H
  C324     1.0000 0.06230  0.56220  0.34910  Biso   1.000  C
  H227     1.0000 0.08330  0.52700  0.34450  Biso   1.000  H
  C325     1.0000 0.00310  0.56070  0.36140  Biso   1.000  C
  H228     1.0000 0.98380  0.52440  0.36530  Biso   1.000  H
  N66      1.0000 0.88015  0.76240  0.37220  Biso   1.000  N
  N67      1.0000 0.90568  0.70622  0.37180  Biso   1.000  N
  C326     1.0000 0.96667  0.71300  0.36530  Biso   1.000  C
  C327     1.0000 0.97880  0.77340  0.36160  Biso   1.000  C
  H229     1.0000 0.01620  0.79040  0.35700  Biso   1.000  H
  C328     1.0000 0.92540  0.80395  0.36580  Biso   1.000  C
  H230     1.0000 0.92070  0.84500  0.36470  Biso   1.000  H
  C329     1.0000 0.82330  0.77360  0.38650  Biso   1.000  C
  H231     1.0000 0.79920  0.74070  0.37270  Biso   1.000  H
  H232     1.0000 0.81070  0.80870  0.36490  Biso   1.000  H
  C330     1.0000 0.81040  0.78310  0.45004  Biso   1.000  C
  C331     1.0000 0.85662  0.78640  0.48880  Biso   1.000  C
  H233     1.0000 0.89540  0.78350  0.47500  Biso   1.000  H
  C332     1.0000 0.84610  0.79410  0.54780  Biso   1.000  C
  H234     1.0000 0.87770  0.79630  0.57430  Biso   1.000  H
  C333     1.0000 0.78930  0.79840  0.56804  Biso   1.000  C
  C334     1.0000 0.74310  0.79510  0.52930  Biso   1.000  C
  C335     1.0000 0.75363  0.78750  0.47030  Biso   1.000  C
  C336     1.0000 0.68644  0.79370  0.55020  Biso   1.000  C
  H235     1.0000 0.67950  0.79440  0.59090  Biso   1.000  H
  C337     1.0000 0.64000  0.79120  0.51170  Biso   1.000  C
  H236     1.0000 0.60120  0.79210  0.52580  Biso   1.000  H
  C338     1.0000 0.65052  0.78740  0.45230  Biso   1.000  C
  H237     1.0000 0.61890  0.78510  0.42590  Biso   1.000  H
  C339     1.0000 0.70740  0.78680  0.43140  Biso   1.000  C
  H238     1.0000 0.71450  0.78600  0.39080  Biso   1.000  H
  C340     1.0000 0.78380  0.80580  0.62900  Biso   1.000  C
  N68      1.0000 0.77800  0.81270  0.67900  Biso   1.000  N
  N69      1.0000 0.47231  0.88780  0.63190  Biso   1.000  N
  C341     1.0000 0.50060  0.83470  0.63760  Biso   1.000  C
  C342     1.0000 0.55970  0.83320  0.64990  Biso   1.000  C
  H239     1.0000 0.57910  0.79690  0.65380  Biso   1.000  H
  C343     1.0000 0.59056  0.88470  0.65660  Biso   1.000  C
  H240     1.0000 0.63100  0.88370  0.66500  Biso   1.000  H
  C344     1.0000 0.56230  0.93780  0.65090  Biso   1.000  C
  H241     1.0000 0.58330  0.97300  0.65550  Biso   1.000  H
  C345     1.0000 0.50310  0.93930  0.63860  Biso   1.000  C
  H242     1.0000 0.48380  0.97560  0.63470  Biso   1.000  H
  N70      1.0000 0.38015  0.73760  0.62780  Biso   1.000  N
  N71      1.0000 0.40568  0.79378  0.62820  Biso   1.000  N
  C346     1.0000 0.46667  0.78700  0.63470  Biso   1.000  C
  C347     1.0000 0.47880  0.72660  0.63840  Biso   1.000  C
  H243     1.0000 0.51620  0.70960  0.64300  Biso   1.000  H
  C348     1.0000 0.42540  0.69605  0.63420  Biso   1.000  C
  H244     1.0000 0.42070  0.65500  0.63530  Biso   1.000  H
  C349     1.0000 0.32330  0.72640  0.61350  Biso   1.000  C
  H245     1.0000 0.29920  0.75930  0.62730  Biso   1.000  H
  H246     1.0000 0.31070  0.69130  0.63510  Biso   1.000  H
  C350     1.0000 0.31040  0.71690  0.54996  Biso   1.000  C
  C351     1.0000 0.35662  0.71360  0.51120  Biso   1.000  C
  H247     1.0000 0.39540  0.71650  0.52500  Biso   1.000  H
  C352     1.0000 0.34610  0.70590  0.45220  Biso   1.000  C
  H248     1.0000 0.37770  0.70370  0.42570  Biso   1.000  H
  C353     1.0000 0.28930  0.70160  0.43196  Biso   1.000  C
  C354     1.0000 0.24310  0.70490  0.47070  Biso   1.000  C
  C355     1.0000 0.25363  0.71250  0.52970  Biso   1.000  C
  C356     1.0000 0.18644  0.70630  0.44980  Biso   1.000  C
  H249     1.0000 0.17950  0.70560  0.40910  Biso   1.000  H
  C357     1.0000 0.14000  0.70880  0.48830  Biso   1.000  C
  H250     1.0000 0.10120  0.70790  0.47420  Biso   1.000  H
  C358     1.0000 0.15052  0.71260  0.54770  Biso   1.000  C
  H251     1.0000 0.11890  0.71490  0.57410  Biso   1.000  H
  C359     1.0000 0.20740  0.71320  0.56860  Biso   1.000  C
  H252     1.0000 0.21450  0.71400  0.60920  Biso   1.000  H
  C360     1.0000 0.28380  0.69420  0.37100  Biso   1.000  C
  N72      1.0000 0.27800  0.68730  0.32100  Biso   1.000  N
  N73      1.0000 0.52769  0.38780  0.86810  Biso   1.000  N
  C361     1.0000 0.49940  0.33470  0.86240  Biso   1.000  C
  C362     1.0000 0.44030  0.33320  0.85010  Biso   1.000  C
  H253     1.0000 0.42090  0.29690  0.84620  Biso   1.000  H
  C363     1.0000 0.40944  0.38470  0.84340  Biso   1.000  C
  H254     1.0000 0.36900  0.38370  0.83500  Biso   1.000  H
  C364     1.0000 0.43770  0.43780  0.84910  Biso   1.000  C
  H255     1.0000 0.41670  0.47300  0.84450  Biso   1.000  H
  C365     1.0000 0.49690  0.43930  0.86140  Biso   1.000  C
  H256     1.0000 0.51620  0.47560  0.86530  Biso   1.000  H
  N74      1.0000 0.61985  0.23760  0.87220  Biso   1.000  N
  N75      1.0000 0.59432  0.29378  0.87180  Biso   1.000  N
  C366     1.0000 0.53333  0.28700  0.86530  Biso   1.000  C
  C367     1.0000 0.52120  0.22660  0.86160  Biso   1.000  C
  H257     1.0000 0.48380  0.20960  0.85700  Biso   1.000  H
  C368     1.0000 0.57460  0.19605  0.86580  Biso   1.000  C
  H258     1.0000 0.57930  0.15500  0.86470  Biso   1.000  H
  C369     1.0000 0.67670  0.22640  0.88650  Biso   1.000  C
  H259     1.0000 0.70080  0.25930  0.87270  Biso   1.000  H
  H260     1.0000 0.68930  0.19130  0.86490  Biso   1.000  H
  C370     1.0000 0.68960  0.21690  0.95004  Biso   1.000  C
  C371     1.0000 0.64338  0.21360  0.98880  Biso   1.000  C
  H261     1.0000 0.60460  0.21650  0.97500  Biso   1.000  H
  C372     1.0000 0.65390  0.20590  0.04780  Biso   1.000  C
  H262     1.0000 0.62230  0.20370  0.07430  Biso   1.000  H
  C373     1.0000 0.71070  0.20160  0.06804  Biso   1.000  C
  C374     1.0000 0.75690  0.20490  0.02930  Biso   1.000  C
  C375     1.0000 0.74637  0.21250  0.97030  Biso   1.000  C
  C376     1.0000 0.81356  0.20630  0.05020  Biso   1.000  C
  H263     1.0000 0.82050  0.20560  0.09090  Biso   1.000  H
  C377     1.0000 0.86000  0.20880  0.01170  Biso   1.000  C
  H264     1.0000 0.89880  0.20790  0.02580  Biso   1.000  H
  C378     1.0000 0.84948  0.21260  0.95230  Biso   1.000  C
  H265     1.0000 0.88110  0.21490  0.92590  Biso   1.000  H
  C379     1.0000 0.79260  0.21320  0.93140  Biso   1.000  C
  H266     1.0000 0.78550  0.21400  0.89080  Biso   1.000  H
  C380     1.0000 0.71620  0.19420  0.12900  Biso   1.000  C
  N76      1.0000 0.72200  0.18730  0.17900  Biso   1.000  N
  N77      1.0000 0.02769  0.11220  0.13190  Biso   1.000  N
  C381     1.0000 0.99940  0.16530  0.13760  Biso   1.000  C
  C382     1.0000 0.94030  0.16680  0.14990  Biso   1.000  C
  H267     1.0000 0.92090  0.20310  0.15380  Biso   1.000  H
  C383     1.0000 0.90944  0.11530  0.15660  Biso   1.000  C
  H268     1.0000 0.86900  0.11630  0.16500  Biso   1.000  H
  C384     1.0000 0.93770  0.06220  0.15090  Biso   1.000  C
  H269     1.0000 0.91670  0.02700  0.15550  Biso   1.000  H
  C385     1.0000 0.99690  0.06070  0.13860  Biso   1.000  C
  H270     1.0000 0.01620  0.02440  0.13470  Biso   1.000  H
  N78      1.0000 0.11985  0.26240  0.12780  Biso   1.000  N
  N79      1.0000 0.09432  0.20622  0.12820  Biso   1.000  N
  C386     1.0000 0.03333  0.21300  0.13470  Biso   1.000  C
  C387     1.0000 0.02120  0.27340  0.13840  Biso   1.000  C
  H271     1.0000 0.98380  0.29040  0.14300  Biso   1.000  H
  C388     1.0000 0.07460  0.30395  0.13420  Biso   1.000  C
  H272     1.0000 0.07930  0.34500  0.13530  Biso   1.000  H
  C389     1.0000 0.17670  0.27360  0.11350  Biso   1.000  C
  H273     1.0000 0.20080  0.24070  0.12730  Biso   1.000  H
  H274     1.0000 0.18930  0.30870  0.13510  Biso   1.000  H
  C390     1.0000 0.18960  0.28310  0.04996  Biso   1.000  C
  C391     1.0000 0.14338  0.28640  0.01120  Biso   1.000  C
  H275     1.0000 0.10460  0.28350  0.02500  Biso   1.000  H
  C392     1.0000 0.15390  0.29410  0.95220  Biso   1.000  C
  H276     1.0000 0.12230  0.29630  0.92570  Biso   1.000  H
  C393     1.0000 0.21070  0.29840  0.93196  Biso   1.000  C
  C394     1.0000 0.25690  0.29510  0.97070  Biso   1.000  C
  C395     1.0000 0.24637  0.28750  0.02970  Biso   1.000  C
  C396     1.0000 0.31356  0.29370  0.94980  Biso   1.000  C
  H277     1.0000 0.32050  0.29440  0.90910  Biso   1.000  H
  C397     1.0000 0.36000  0.29120  0.98830  Biso   1.000  C
  H278     1.0000 0.39880  0.29210  0.97420  Biso   1.000  H
  C398     1.0000 0.34948  0.28740  0.04770  Biso   1.000  C
  H279     1.0000 0.38110  0.28510  0.07410  Biso   1.000  H
  C399     1.0000 0.29260  0.28680  0.06860  Biso   1.000  C
  H280     1.0000 0.28550  0.28600  0.10920  Biso   1.000  H
  C400     1.0000 0.21620  0.30580  0.87100  Biso   1.000  C
  N80      1.0000 0.22200  0.31270  0.82100  Biso   1.000  N
  N81      1.0000 0.36810  0.97231  0.61220  Biso   1.000  N
  C401     1.0000 0.36240  0.00060  0.66530  Biso   1.000  C
  C402     1.0000 0.35010  0.05970  0.66680  Biso   1.000  C
  H281     1.0000 0.34620  0.07910  0.70310  Biso   1.000  H
  C403     1.0000 0.34340  0.09056  0.61530  Biso   1.000  C
  H282     1.0000 0.33500  0.13100  0.61630  Biso   1.000  H
  C404     1.0000 0.34910  0.06230  0.56220  Biso   1.000  C
  H283     1.0000 0.34450  0.08330  0.52700  Biso   1.000  H
  C405     1.0000 0.36140  0.00310  0.56070  Biso   1.000  C
  H284     1.0000 0.36530  0.98380  0.52440  Biso   1.000  H
  N82      1.0000 0.37220  0.88015  0.76240  Biso   1.000  N
  N83      1.0000 0.37180  0.90568  0.70622  Biso   1.000  N
  C406     1.0000 0.36530  0.96667  0.71300  Biso   1.000  C
  C407     1.0000 0.36160  0.97880  0.77340  Biso   1.000  C
  H285     1.0000 0.35700  0.01620  0.79040  Biso   1.000  H
  C408     1.0000 0.36580  0.92540  0.80395  Biso   1.000  C
  H286     1.0000 0.36470  0.92070  0.84500  Biso   1.000  H
  C409     1.0000 0.38650  0.82330  0.77360  Biso   1.000  C
  H287     1.0000 0.37270  0.79920  0.74070  Biso   1.000  H
  H288     1.0000 0.36490  0.81070  0.80870  Biso   1.000  H
  C410     1.0000 0.45004  0.81040  0.78310  Biso   1.000  C
  C411     1.0000 0.48880  0.85662  0.78640  Biso   1.000  C
  H289     1.0000 0.47500  0.89540  0.78350  Biso   1.000  H
  C412     1.0000 0.54780  0.84610  0.79410  Biso   1.000  C
  H290     1.0000 0.57430  0.87770  0.79630  Biso   1.000  H
  C413     1.0000 0.56804  0.78930  0.79840  Biso   1.000  C
  C414     1.0000 0.52930  0.74310  0.79510  Biso   1.000  C
  C415     1.0000 0.47030  0.75363  0.78750  Biso   1.000  C
  C416     1.0000 0.55020  0.68644  0.79370  Biso   1.000  C
  H291     1.0000 0.59090  0.67950  0.79440  Biso   1.000  H
  C417     1.0000 0.51170  0.64000  0.79120  Biso   1.000  C
  H292     1.0000 0.52580  0.60120  0.79210  Biso   1.000  H
  C418     1.0000 0.45230  0.65052  0.78740  Biso   1.000  C
  H293     1.0000 0.42590  0.61890  0.78510  Biso   1.000  H
  C419     1.0000 0.43140  0.70740  0.78680  Biso   1.000  C
  H294     1.0000 0.39080  0.71450  0.78600  Biso   1.000  H
  C420     1.0000 0.62900  0.78380  0.80580  Biso   1.000  C
  N84      1.0000 0.67900  0.77800  0.81270  Biso   1.000  N
  N85      1.0000 0.63190  0.47231  0.88780  Biso   1.000  N
  C421     1.0000 0.63760  0.50060  0.83470  Biso   1.000  C
  C422     1.0000 0.64990  0.55970  0.83320  Biso   1.000  C
  H295     1.0000 0.65380  0.57910  0.79690  Biso   1.000  H
  C423     1.0000 0.65660  0.59056  0.88470  Biso   1.000  C
  H296     1.0000 0.66500  0.63100  0.88370  Biso   1.000  H
  C424     1.0000 0.65090  0.56230  0.93780  Biso   1.000  C
  H297     1.0000 0.65550  0.58330  0.97300  Biso   1.000  H
  C425     1.0000 0.63860  0.50310  0.93930  Biso   1.000  C
  H298     1.0000 0.63470  0.48380  0.97560  Biso   1.000  H
  N86      1.0000 0.62780  0.38015  0.73760  Biso   1.000  N
  N87      1.0000 0.62820  0.40568  0.79378  Biso   1.000  N
  C426     1.0000 0.63470  0.46667  0.78700  Biso   1.000  C
  C427     1.0000 0.63840  0.47880  0.72660  Biso   1.000  C
  H299     1.0000 0.64300  0.51620  0.70960  Biso   1.000  H
  C428     1.0000 0.63420  0.42540  0.69605  Biso   1.000  C
  H300     1.0000 0.63530  0.42070  0.65500  Biso   1.000  H
  C429     1.0000 0.61350  0.32330  0.72640  Biso   1.000  C
  H301     1.0000 0.62730  0.29920  0.75930  Biso   1.000  H
  H302     1.0000 0.63510  0.31070  0.69130  Biso   1.000  H
  C430     1.0000 0.54996  0.31040  0.71690  Biso   1.000  C
  C431     1.0000 0.51120  0.35662  0.71360  Biso   1.000  C
  H303     1.0000 0.52500  0.39540  0.71650  Biso   1.000  H
  C432     1.0000 0.45220  0.34610  0.70590  Biso   1.000  C
  H304     1.0000 0.42570  0.37770  0.70370  Biso   1.000  H
  C433     1.0000 0.43196  0.28930  0.70160  Biso   1.000  C
  C434     1.0000 0.47070  0.24310  0.70490  Biso   1.000  C
  C435     1.0000 0.52970  0.25363  0.71250  Biso   1.000  C
  C436     1.0000 0.44980  0.18644  0.70630  Biso   1.000  C
  H305     1.0000 0.40910  0.17950  0.70560  Biso   1.000  H
  C437     1.0000 0.48830  0.14000  0.70880  Biso   1.000  C
  H306     1.0000 0.47420  0.10120  0.70790  Biso   1.000  H
  C438     1.0000 0.54770  0.15052  0.71260  Biso   1.000  C
  H307     1.0000 0.57410  0.11890  0.71490  Biso   1.000  H
  C439     1.0000 0.56860  0.20740  0.71320  Biso   1.000  C
  H308     1.0000 0.60920  0.21450  0.71400  Biso   1.000  H
  C440     1.0000 0.37100  0.28380  0.69420  Biso   1.000  C
  N88      1.0000 0.32100  0.27800  0.68730  Biso   1.000  N
  N89      1.0000 0.86810  0.52769  0.38780  Biso   1.000  N
  C441     1.0000 0.86240  0.49940  0.33470  Biso   1.000  C
  C442     1.0000 0.85010  0.44030  0.33320  Biso   1.000  C
  H309     1.0000 0.84620  0.42090  0.29690  Biso   1.000  H
  C443     1.0000 0.84340  0.40944  0.38470  Biso   1.000  C
  H310     1.0000 0.83500  0.36900  0.38370  Biso   1.000  H
  C444     1.0000 0.84910  0.43770  0.43780  Biso   1.000  C
  H311     1.0000 0.84450  0.41670  0.47300  Biso   1.000  H
  C445     1.0000 0.86140  0.49690  0.43930  Biso   1.000  C
  H312     1.0000 0.86530  0.51620  0.47560  Biso   1.000  H
  N90      1.0000 0.87220  0.61985  0.23760  Biso   1.000  N
  N91      1.0000 0.87180  0.59432  0.29378  Biso   1.000  N
  C446     1.0000 0.86530  0.53333  0.28700  Biso   1.000  C
  C447     1.0000 0.86160  0.52120  0.22660  Biso   1.000  C
  H313     1.0000 0.85700  0.48380  0.20960  Biso   1.000  H
  C448     1.0000 0.86580  0.57460  0.19605  Biso   1.000  C
  H314     1.0000 0.86470  0.57930  0.15500  Biso   1.000  H
  C449     1.0000 0.88650  0.67670  0.22640  Biso   1.000  C
  H315     1.0000 0.87270  0.70080  0.25930  Biso   1.000  H
  H316     1.0000 0.86490  0.68930  0.19130  Biso   1.000  H
  C450     1.0000 0.95004  0.68960  0.21690  Biso   1.000  C
  C451     1.0000 0.98880  0.64338  0.21360  Biso   1.000  C
  H317     1.0000 0.97500  0.60460  0.21650  Biso   1.000  H
  C452     1.0000 0.04780  0.65390  0.20590  Biso   1.000  C
  H318     1.0000 0.07430  0.62230  0.20370  Biso   1.000  H
  C453     1.0000 0.06804  0.71070  0.20160  Biso   1.000  C
  C454     1.0000 0.02930  0.75690  0.20490  Biso   1.000  C
  C455     1.0000 0.97030  0.74637  0.21250  Biso   1.000  C
  C456     1.0000 0.05020  0.81356  0.20630  Biso   1.000  C
  H319     1.0000 0.09090  0.82050  0.20560  Biso   1.000  H
  C457     1.0000 0.01170  0.86000  0.20880  Biso   1.000  C
  H320     1.0000 0.02580  0.89880  0.20790  Biso   1.000  H
  C458     1.0000 0.95230  0.84948  0.21260  Biso   1.000  C
  H321     1.0000 0.92590  0.88110  0.21490  Biso   1.000  H
  C459     1.0000 0.93140  0.79260  0.21320  Biso   1.000  C
  H322     1.0000 0.89080  0.78550  0.21400  Biso   1.000  H
  C460     1.0000 0.12900  0.71620  0.19420  Biso   1.000  C
  N92      1.0000 0.17900  0.72200  0.18730  Biso   1.000  N
  N93      1.0000 0.13190  0.02769  0.11220  Biso   1.000  N
  C461     1.0000 0.13760  0.99940  0.16530  Biso   1.000  C
  C462     1.0000 0.14990  0.94030  0.16680  Biso   1.000  C
  H323     1.0000 0.15380  0.92090  0.20310  Biso   1.000  H
  C463     1.0000 0.15660  0.90944  0.11530  Biso   1.000  C
  H324     1.0000 0.16500  0.86900  0.11630  Biso   1.000  H
  C464     1.0000 0.15090  0.93770  0.06220  Biso   1.000  C
  H325     1.0000 0.15550  0.91670  0.02700  Biso   1.000  H
  C465     1.0000 0.13860  0.99690  0.06070  Biso   1.000  C
  H326     1.0000 0.13470  0.01620  0.02440  Biso   1.000  H
  N94      1.0000 0.12780  0.11985  0.26240  Biso   1.000  N
  N95      1.0000 0.12820  0.09432  0.20622  Biso   1.000  N
  C466     1.0000 0.13470  0.03333  0.21300  Biso   1.000  C
  C467     1.0000 0.13840  0.02120  0.27340  Biso   1.000  C
  H327     1.0000 0.14300  0.98380  0.29040  Biso   1.000  H
  C468     1.0000 0.13420  0.07460  0.30395  Biso   1.000  C
  H328     1.0000 0.13530  0.07930  0.34500  Biso   1.000  H
  C469     1.0000 0.11350  0.17670  0.27360  Biso   1.000  C
  H329     1.0000 0.12730  0.20080  0.24070  Biso   1.000  H
  H330     1.0000 0.13510  0.18930  0.30870  Biso   1.000  H
  C470     1.0000 0.04996  0.18960  0.28310  Biso   1.000  C
  C471     1.0000 0.01120  0.14338  0.28640  Biso   1.000  C
  H331     1.0000 0.02500  0.10460  0.28350  Biso   1.000  H
  C472     1.0000 0.95220  0.15390  0.29410  Biso   1.000  C
  H332     1.0000 0.92570  0.12230  0.29630  Biso   1.000  H
  C473     1.0000 0.93196  0.21070  0.29840  Biso   1.000  C
  C474     1.0000 0.97070  0.25690  0.29510  Biso   1.000  C
  C475     1.0000 0.02970  0.24637  0.28750  Biso   1.000  C
  C476     1.0000 0.94980  0.31356  0.29370  Biso   1.000  C
  H333     1.0000 0.90910  0.32050  0.29440  Biso   1.000  H
  C477     1.0000 0.98830  0.36000  0.29120  Biso   1.000  C
  H334     1.0000 0.97420  0.39880  0.29210  Biso   1.000  H
  C478     1.0000 0.04770  0.34948  0.28740  Biso   1.000  C
  H335     1.0000 0.07410  0.38110  0.28510  Biso   1.000  H
  C479     1.0000 0.06860  0.29260  0.28680  Biso   1.000  C
  H336     1.0000 0.10920  0.28550  0.28600  Biso   1.000  H
  C480     1.0000 0.87100  0.21620  0.30580  Biso   1.000  C
  N96      1.0000 0.82100  0.22200  0.31270  Biso   1.000  N
  Ni5      1.0000 0.61829  0.38171  0.88171  Biso   1.000  Ni
  Ni6      1.0000 0.88171  0.61829  0.38171  Biso   1.000  Ni
  Ni7      1.0000 0.38171  0.88171  0.61829  Biso   1.000  Ni
  Ni8      1.0000 0.11829  0.11829  0.11829  Biso   1.000  Ni
  Ag5      1.0000 0.75736  0.75736  0.75736  Biso   1.000  Ag
  Ag6      1.0000 0.74264  0.24264  0.25736  Biso   1.000  Ag
  Ag7      1.0000 0.24264  0.25736  0.74264  Biso   1.000  Ag
  Ag8      1.0000 0.25736  0.74264  0.24264  Biso   1.000  Ag
