data_image0
_cell_length_a       23.0538
_cell_length_b       23.0538
_cell_length_c       23.0538
_cell_angle_alpha    90
_cell_angle_beta     90
_cell_angle_gamma    90

_symmetry_space_group_name_H-M    "P 1"
_symmetry_int_tables_number       1

loop_
  _symmetry_equiv_pos_as_xyz
  'x, y, z'

loop_
  _atom_site_label
  _atom_site_occupancy
  _atom_site_fract_x
  _atom_site_fract_y
  _atom_site_fract_z
  _atom_site_thermal_displace_type
  _atom_site_B_iso_or_equiv
  _atom_site_type_symbol
  N1       1.0000 0.22300  0.88350  0.36580  Biso   1.000  N
  C1       1.0000 0.25150  0.88920  0.41860  Biso   1.000  C
  C2       1.0000 0.31040  0.90200  0.41980  Biso   1.000  C
  H1       1.0000 0.32990  0.90590  0.45590  Biso   1.000  H
  C3       1.0000 0.34080  0.90920  0.36830  Biso   1.000  C
  H2       1.0000 0.38100  0.91790  0.36910  Biso   1.000  H
  C4       1.0000 0.31230  0.90350  0.31540  Biso   1.000  C
  H3       1.0000 0.33300  0.90840  0.28020  Biso   1.000  H
  C5       1.0000 0.25340  0.89060  0.31420  Biso   1.000  C
  H4       1.0000 0.23390  0.88670  0.27810  Biso   1.000  H
  N2       1.0000 0.13460  0.87660  0.51450  Biso   1.000  N
  N3       1.0000 0.15620  0.87910  0.45980  Biso   1.000  N
  C6       1.0000 0.21440  0.88640  0.46900  Biso   1.000  C
  C7       1.0000 0.22710  0.88960  0.52850  Biso   1.000  C
  H5       1.0000 0.26390  0.89360  0.54660  Biso   1.000  H
  C8       1.0000 0.17410  0.88580  0.55390  Biso   1.000  C
  H6       1.0000 0.16690  0.88920  0.59440  Biso   1.000  H
  C9       1.0000 0.07410  0.86340  0.52490  Biso   1.000  C
  H7       1.0000 0.05120  0.87710  0.49120  Biso   1.000  H
  H8       1.0000 0.06110  0.88570  0.55920  Biso   1.000  H
  C10      1.0000 0.06060  0.80110  0.53470  Biso   1.000  C
  C11      1.0000 0.10630  0.76200  0.53780  Biso   1.000  C
  H9       1.0000 0.14520  0.77550  0.53590  Biso   1.000  H
  C12      1.0000 0.09520  0.70300  0.54380  Biso   1.000  C
  H10      1.0000 0.12650  0.67630  0.54590  Biso   1.000  H
  C13      1.0000 0.03830  0.68320  0.54660  Biso   1.000  C
  C14      1.0000 0.99260  0.72230  0.54350  Biso   1.000  C
  C15      1.0000 0.00370  0.78130  0.53750  Biso   1.000  C
  C16      1.0000 0.93600  0.70160  0.54620  Biso   1.000  C
  H11      1.0000 0.92910  0.66150  0.55230  Biso   1.000  H
  C17      1.0000 0.88960  0.73960  0.53990  Biso   1.000  C
  H12      1.0000 0.85100  0.72540  0.53770  Biso   1.000  H
  C18      1.0000 0.90070  0.79880  0.53690  Biso   1.000  C
  H13      1.0000 0.86930  0.82520  0.53320  Biso   1.000  H
  C19      1.0000 0.95760  0.82010  0.53920  Biso   1.000  C
  H14      1.0000 0.96450  0.86060  0.54190  Biso   1.000  H
  C20      1.0000 0.03260  0.62020  0.55290  Biso   1.000  C
  N4       1.0000 0.02830  0.57090  0.55780  Biso   1.000  N
  N5       1.0000 0.27700  0.11650  0.86580  Biso   1.000  N
  C21      1.0000 0.24850  0.11080  0.91860  Biso   1.000  C
  C22      1.0000 0.18960  0.09800  0.91980  Biso   1.000  C
  H15      1.0000 0.17010  0.09410  0.95590  Biso   1.000  H
  C23      1.0000 0.15920  0.09080  0.86830  Biso   1.000  C
  H16      1.0000 0.11900  0.08210  0.86910  Biso   1.000  H
  C24      1.0000 0.18770  0.09650  0.81540  Biso   1.000  C
  H17      1.0000 0.16700  0.09160  0.78020  Biso   1.000  H
  C25      1.0000 0.24660  0.10940  0.81420  Biso   1.000  C
  H18      1.0000 0.26610  0.11330  0.77810  Biso   1.000  H
  N6       1.0000 0.36540  0.12340  0.01450  Biso   1.000  N
  N7       1.0000 0.34380  0.12090  0.95980  Biso   1.000  N
  C26      1.0000 0.28560  0.11360  0.96900  Biso   1.000  C
  C27      1.0000 0.27290  0.11040  0.02850  Biso   1.000  C
  H19      1.0000 0.23610  0.10640  0.04660  Biso   1.000  H
  C28      1.0000 0.32590  0.11420  0.05390  Biso   1.000  C
  H20      1.0000 0.33310  0.11080  0.09440  Biso   1.000  H
  C29      1.0000 0.42590  0.13660  0.02490  Biso   1.000  C
  H21      1.0000 0.44880  0.12290  0.99120  Biso   1.000  H
  H22      1.0000 0.43890  0.11430  0.05920  Biso   1.000  H
  C30      1.0000 0.43940  0.19890  0.03470  Biso   1.000  C
  C31      1.0000 0.39370  0.23800  0.03780  Biso   1.000  C
  H23      1.0000 0.35480  0.22450  0.03590  Biso   1.000  H
  C32      1.0000 0.40480  0.29700  0.04380  Biso   1.000  C
  H24      1.0000 0.37350  0.32370  0.04590  Biso   1.000  H
  C33      1.0000 0.46170  0.31680  0.04660  Biso   1.000  C
  C34      1.0000 0.50740  0.27770  0.04350  Biso   1.000  C
  C35      1.0000 0.49630  0.21870  0.03750  Biso   1.000  C
  C36      1.0000 0.56400  0.29840  0.04620  Biso   1.000  C
  H25      1.0000 0.57090  0.33850  0.05230  Biso   1.000  H
  C37      1.0000 0.61040  0.26040  0.03990  Biso   1.000  C
  H26      1.0000 0.64900  0.27460  0.03770  Biso   1.000  H
  C38      1.0000 0.59930  0.20120  0.03690  Biso   1.000  C
  H27      1.0000 0.63070  0.17480  0.03320  Biso   1.000  H
  C39      1.0000 0.54240  0.17990  0.03920  Biso   1.000  C
  H28      1.0000 0.53550  0.13940  0.04190  Biso   1.000  H
  C40      1.0000 0.46740  0.37980  0.05290  Biso   1.000  C
  N8       1.0000 0.47170  0.42910  0.05780  Biso   1.000  N
  N9       1.0000 0.77700  0.38350  0.13420  Biso   1.000  N
  C41      1.0000 0.74850  0.38920  0.08140  Biso   1.000  C
  C42      1.0000 0.68960  0.40200  0.08020  Biso   1.000  C
  H29      1.0000 0.67010  0.40590  0.04410  Biso   1.000  H
  C43      1.0000 0.65920  0.40920  0.13170  Biso   1.000  C
  H30      1.0000 0.61900  0.41790  0.13090  Biso   1.000  H
  C44      1.0000 0.68770  0.40350  0.18460  Biso   1.000  C
  H31      1.0000 0.66700  0.40840  0.21980  Biso   1.000  H
  C45      1.0000 0.74660  0.39060  0.18580  Biso   1.000  C
  H32      1.0000 0.76610  0.38670  0.22190  Biso   1.000  H
  N10      1.0000 0.86540  0.37660  0.98550  Biso   1.000  N
  N11      1.0000 0.84380  0.37910  0.04020  Biso   1.000  N
  C46      1.0000 0.78560  0.38640  0.03100  Biso   1.000  C
  C47      1.0000 0.77290  0.38960  0.97150  Biso   1.000  C
  H33      1.0000 0.73610  0.39360  0.95340  Biso   1.000  H
  C48      1.0000 0.82590  0.38580  0.94610  Biso   1.000  C
  H34      1.0000 0.83310  0.38920  0.90560  Biso   1.000  H
  C49      1.0000 0.92590  0.36340  0.97510  Biso   1.000  C
  H35      1.0000 0.94880  0.37710  0.00880  Biso   1.000  H
  H36      1.0000 0.93890  0.38570  0.94080  Biso   1.000  H
  C50      1.0000 0.93940  0.30110  0.96530  Biso   1.000  C
  C51      1.0000 0.89370  0.26200  0.96220  Biso   1.000  C
  H37      1.0000 0.85480  0.27550  0.96410  Biso   1.000  H
  C52      1.0000 0.90480  0.20300  0.95620  Biso   1.000  C
  H38      1.0000 0.87350  0.17630  0.95410  Biso   1.000  H
  C53      1.0000 0.96170  0.18320  0.95340  Biso   1.000  C
  C54      1.0000 0.00740  0.22230  0.95650  Biso   1.000  C
  C55      1.0000 0.99630  0.28130  0.96250  Biso   1.000  C
  C56      1.0000 0.06400  0.20160  0.95380  Biso   1.000  C
  H39      1.0000 0.07090  0.16150  0.94770  Biso   1.000  H
  C57      1.0000 0.11040  0.23960  0.96010  Biso   1.000  C
  H40      1.0000 0.14900  0.22540  0.96230  Biso   1.000  H
  C58      1.0000 0.09930  0.29880  0.96310  Biso   1.000  C
  H41      1.0000 0.13070  0.32520  0.96680  Biso   1.000  H
  C59      1.0000 0.04240  0.32010  0.96080  Biso   1.000  C
  H42      1.0000 0.03550  0.36060  0.95810  Biso   1.000  H
  C60      1.0000 0.96740  0.12020  0.94710  Biso   1.000  C
  N12      1.0000 0.97170  0.07090  0.94220  Biso   1.000  N
  N13      1.0000 0.72300  0.61650  0.63420  Biso   1.000  N
  C61      1.0000 0.75150  0.61080  0.58140  Biso   1.000  C
  C62      1.0000 0.81040  0.59800  0.58020  Biso   1.000  C
  H43      1.0000 0.82990  0.59410  0.54410  Biso   1.000  H
  C63      1.0000 0.84080  0.59080  0.63170  Biso   1.000  C
  H44      1.0000 0.88100  0.58210  0.63090  Biso   1.000  H
  C64      1.0000 0.81230  0.59650  0.68460  Biso   1.000  C
  H45      1.0000 0.83300  0.59160  0.71980  Biso   1.000  H
  C65      1.0000 0.75340  0.60940  0.68580  Biso   1.000  C
  H46      1.0000 0.73390  0.61330  0.72190  Biso   1.000  H
  N14      1.0000 0.63460  0.62340  0.48550  Biso   1.000  N
  N15      1.0000 0.65620  0.62090  0.54020  Biso   1.000  N
  C66      1.0000 0.71440  0.61360  0.53100  Biso   1.000  C
  C67      1.0000 0.72710  0.61040  0.47150  Biso   1.000  C
  H47      1.0000 0.76390  0.60640  0.45340  Biso   1.000  H
  C68      1.0000 0.67410  0.61420  0.44610  Biso   1.000  C
  H48      1.0000 0.66690  0.61080  0.40560  Biso   1.000  H
  C69      1.0000 0.57410  0.63660  0.47510  Biso   1.000  C
  H49      1.0000 0.55120  0.62290  0.50880  Biso   1.000  H
  H50      1.0000 0.56110  0.61430  0.44080  Biso   1.000  H
  C70      1.0000 0.56060  0.69890  0.46530  Biso   1.000  C
  C71      1.0000 0.60630  0.73800  0.46220  Biso   1.000  C
  H51      1.0000 0.64520  0.72450  0.46410  Biso   1.000  H
  C72      1.0000 0.59520  0.79700  0.45620  Biso   1.000  C
  H52      1.0000 0.62650  0.82370  0.45410  Biso   1.000  H
  C73      1.0000 0.53830  0.81680  0.45340  Biso   1.000  C
  C74      1.0000 0.49260  0.77770  0.45650  Biso   1.000  C
  C75      1.0000 0.50370  0.71870  0.46250  Biso   1.000  C
  C76      1.0000 0.43600  0.79840  0.45380  Biso   1.000  C
  H53      1.0000 0.42910  0.83850  0.44770  Biso   1.000  H
  C77      1.0000 0.38960  0.76040  0.46010  Biso   1.000  C
  H54      1.0000 0.35100  0.77460  0.46230  Biso   1.000  H
  C78      1.0000 0.40070  0.70120  0.46310  Biso   1.000  C
  H55      1.0000 0.36930  0.67480  0.46680  Biso   1.000  H
  C79      1.0000 0.45760  0.67990  0.46080  Biso   1.000  C
  H56      1.0000 0.46450  0.63940  0.45810  Biso   1.000  H
  C80      1.0000 0.53260  0.87980  0.44710  Biso   1.000  C
  N16      1.0000 0.52830  0.92910  0.44220  Biso   1.000  N
  N17      1.0000 0.36580  0.22300  0.88350  Biso   1.000  N
  C81      1.0000 0.41860  0.25150  0.88920  Biso   1.000  C
  C82      1.0000 0.41980  0.31040  0.90200  Biso   1.000  C
  H57      1.0000 0.45590  0.32990  0.90590  Biso   1.000  H
  C83      1.0000 0.36830  0.34080  0.90920  Biso   1.000  C
  H58      1.0000 0.36910  0.38100  0.91790  Biso   1.000  H
  C84      1.0000 0.31540  0.31230  0.90350  Biso   1.000  C
  H59      1.0000 0.28020  0.33300  0.90840  Biso   1.000  H
  C85      1.0000 0.31420  0.25340  0.89060  Biso   1.000  C
  H60      1.0000 0.27810  0.23390  0.88670  Biso   1.000  H
  N18      1.0000 0.51450  0.13460  0.87660  Biso   1.000  N
  N19      1.0000 0.45980  0.15620  0.87910  Biso   1.000  N
  C86      1.0000 0.46900  0.21440  0.88640  Biso   1.000  C
  C87      1.0000 0.52850  0.22710  0.88960  Biso   1.000  C
  H61      1.0000 0.54660  0.26390  0.89360  Biso   1.000  H
  C88      1.0000 0.55390  0.17410  0.88580  Biso   1.000  C
  H62      1.0000 0.59440  0.16690  0.88920  Biso   1.000  H
  C89      1.0000 0.52490  0.07410  0.86340  Biso   1.000  C
  H63      1.0000 0.49120  0.05120  0.87710  Biso   1.000  H
  H64      1.0000 0.55920  0.06110  0.88570  Biso   1.000  H
  C90      1.0000 0.53470  0.06060  0.80110  Biso   1.000  C
  C91      1.0000 0.53780  0.10630  0.76200  Biso   1.000  C
  H65      1.0000 0.53590  0.14520  0.77550  Biso   1.000  H
  C92      1.0000 0.54380  0.09520  0.70300  Biso   1.000  C
  H66      1.0000 0.54590  0.12650  0.67630  Biso   1.000  H
  C93      1.0000 0.54660  0.03830  0.68320  Biso   1.000  C
  C94      1.0000 0.54350  0.99260  0.72230  Biso   1.000  C
  C95      1.0000 0.53750  0.00370  0.78130  Biso   1.000  C
  C96      1.0000 0.54620  0.93600  0.70160  Biso   1.000  C
  H67      1.0000 0.55230  0.92910  0.66150  Biso   1.000  H
  C97      1.0000 0.53990  0.88960  0.73960  Biso   1.000  C
  H68      1.0000 0.53770  0.85100  0.72540  Biso   1.000  H
  C98      1.0000 0.53690  0.90070  0.79880  Biso   1.000  C
  H69      1.0000 0.53320  0.86930  0.82520  Biso   1.000  H
  C99      1.0000 0.53920  0.95760  0.82010  Biso   1.000  C
  H70      1.0000 0.54190  0.96450  0.86060  Biso   1.000  H
  C100     1.0000 0.55290  0.03260  0.62020  Biso   1.000  C
  N20      1.0000 0.55780  0.02830  0.57090  Biso   1.000  N
  N21      1.0000 0.86580  0.27700  0.11650  Biso   1.000  N
  C101     1.0000 0.91860  0.24850  0.11080  Biso   1.000  C
  C102     1.0000 0.91980  0.18960  0.09800  Biso   1.000  C
  H71      1.0000 0.95590  0.17010  0.09410  Biso   1.000  H
  C103     1.0000 0.86830  0.15920  0.09080  Biso   1.000  C
  H72      1.0000 0.86910  0.11900  0.08210  Biso   1.000  H
  C104     1.0000 0.81540  0.18770  0.09650  Biso   1.000  C
  H73      1.0000 0.78020  0.16700  0.09160  Biso   1.000  H
  C105     1.0000 0.81420  0.24660  0.10940  Biso   1.000  C
  H74      1.0000 0.77810  0.26610  0.11330  Biso   1.000  H
  N22      1.0000 0.01450  0.36540  0.12340  Biso   1.000  N
  N23      1.0000 0.95980  0.34380  0.12090  Biso   1.000  N
  C106     1.0000 0.96900  0.28560  0.11360  Biso   1.000  C
  C107     1.0000 0.02850  0.27290  0.11040  Biso   1.000  C
  H75      1.0000 0.04660  0.23610  0.10640  Biso   1.000  H
  C108     1.0000 0.05390  0.32590  0.11420  Biso   1.000  C
  H76      1.0000 0.09440  0.33310  0.11080  Biso   1.000  H
  C109     1.0000 0.02490  0.42590  0.13660  Biso   1.000  C
  H77      1.0000 0.99120  0.44880  0.12290  Biso   1.000  H
  H78      1.0000 0.05920  0.43890  0.11430  Biso   1.000  H
  C110     1.0000 0.03470  0.43940  0.19890  Biso   1.000  C
  C111     1.0000 0.03780  0.39370  0.23800  Biso   1.000  C
  H79      1.0000 0.03590  0.35480  0.22450  Biso   1.000  H
  C112     1.0000 0.04380  0.40480  0.29700  Biso   1.000  C
  H80      1.0000 0.04590  0.37350  0.32370  Biso   1.000  H
  C113     1.0000 0.04660  0.46170  0.31680  Biso   1.000  C
  C114     1.0000 0.04350  0.50740  0.27770  Biso   1.000  C
  C115     1.0000 0.03750  0.49630  0.21870  Biso   1.000  C
  C116     1.0000 0.04620  0.56400  0.29840  Biso   1.000  C
  H81      1.0000 0.05230  0.57090  0.33850  Biso   1.000  H
  C117     1.0000 0.03990  0.61040  0.26040  Biso   1.000  C
  H82      1.0000 0.03770  0.64900  0.27460  Biso   1.000  H
  C118     1.0000 0.03690  0.59930  0.20120  Biso   1.000  C
  H83      1.0000 0.03320  0.63070  0.17480  Biso   1.000  H
  C119     1.0000 0.03920  0.54240  0.17990  Biso   1.000  C
  H84      1.0000 0.04190  0.53550  0.13940  Biso   1.000  H
  C120     1.0000 0.05290  0.46740  0.37980  Biso   1.000  C
  N24      1.0000 0.05780  0.47170  0.42910  Biso   1.000  N
  N25      1.0000 0.13420  0.77700  0.38350  Biso   1.000  N
  C121     1.0000 0.08140  0.74850  0.38920  Biso   1.000  C
  C122     1.0000 0.08020  0.68960  0.40200  Biso   1.000  C
  H85      1.0000 0.04410  0.67010  0.40590  Biso   1.000  H
  C123     1.0000 0.13170  0.65920  0.40920  Biso   1.000  C
  H86      1.0000 0.13090  0.61900  0.41790  Biso   1.000  H
  C124     1.0000 0.18460  0.68770  0.40350  Biso   1.000  C
  H87      1.0000 0.21980  0.66700  0.40840  Biso   1.000  H
  C125     1.0000 0.18580  0.74660  0.39060  Biso   1.000  C
  H88      1.0000 0.22190  0.76610  0.38670  Biso   1.000  H
  N26      1.0000 0.98550  0.86540  0.37660  Biso   1.000  N
  N27      1.0000 0.04020  0.84380  0.37910  Biso   1.000  N
  C126     1.0000 0.03100  0.78560  0.38640  Biso   1.000  C
  C127     1.0000 0.97150  0.77290  0.38960  Biso   1.000  C
  H89      1.0000 0.95340  0.73610  0.39360  Biso   1.000  H
  C128     1.0000 0.94610  0.82590  0.38580  Biso   1.000  C
  H90      1.0000 0.90560  0.83310  0.38920  Biso   1.000  H
  C129     1.0000 0.97510  0.92590  0.36340  Biso   1.000  C
  H91      1.0000 0.00880  0.94880  0.37710  Biso   1.000  H
  H92      1.0000 0.94080  0.93890  0.38570  Biso   1.000  H
  C130     1.0000 0.96530  0.93940  0.30110  Biso   1.000  C
  C131     1.0000 0.96220  0.89370  0.26200  Biso   1.000  C
  H93      1.0000 0.96410  0.85480  0.27550  Biso   1.000  H
  C132     1.0000 0.95620  0.90480  0.20300  Biso   1.000  C
  H94      1.0000 0.95410  0.87350  0.17630  Biso   1.000  H
  C133     1.0000 0.95340  0.96170  0.18320  Biso   1.000  C
  C134     1.0000 0.95650  0.00740  0.22230  Biso   1.000  C
  C135     1.0000 0.96250  0.99630  0.28130  Biso   1.000  C
  C136     1.0000 0.95380  0.06400  0.20160  Biso   1.000  C
  H95      1.0000 0.94770  0.07090  0.16150  Biso   1.000  H
  C137     1.0000 0.96010  0.11040  0.23960  Biso   1.000  C
  H96      1.0000 0.96230  0.14900  0.22540  Biso   1.000  H
  C138     1.0000 0.96310  0.09930  0.29880  Biso   1.000  C
  H97      1.0000 0.96680  0.13070  0.32520  Biso   1.000  H
  C139     1.0000 0.96080  0.04240  0.32010  Biso   1.000  C
  H98      1.0000 0.95810  0.03550  0.36060  Biso   1.000  H
  C140     1.0000 0.94710  0.96740  0.12020  Biso   1.000  C
  N28      1.0000 0.94220  0.97170  0.07090  Biso   1.000  N
  N29      1.0000 0.63420  0.72300  0.61650  Biso   1.000  N
  C141     1.0000 0.58140  0.75150  0.61080  Biso   1.000  C
  C142     1.0000 0.58020  0.81040  0.59800  Biso   1.000  C
  H99      1.0000 0.54410  0.82990  0.59410  Biso   1.000  H
  C143     1.0000 0.63170  0.84080  0.59080  Biso   1.000  C
  H100     1.0000 0.63090  0.88100  0.58210  Biso   1.000  H
  C144     1.0000 0.68460  0.81230  0.59650  Biso   1.000  C
  H101     1.0000 0.71980  0.83300  0.59160  Biso   1.000  H
  C145     1.0000 0.68580  0.75340  0.60940  Biso   1.000  C
  H102     1.0000 0.72190  0.73390  0.61330  Biso   1.000  H
  N30      1.0000 0.48550  0.63460  0.62340  Biso   1.000  N
  N31      1.0000 0.54020  0.65620  0.62090  Biso   1.000  N
  C146     1.0000 0.53100  0.71440  0.61360  Biso   1.000  C
  C147     1.0000 0.47150  0.72710  0.61040  Biso   1.000  C
  H103     1.0000 0.45340  0.76390  0.60640  Biso   1.000  H
  C148     1.0000 0.44610  0.67410  0.61420  Biso   1.000  C
  H104     1.0000 0.40560  0.66690  0.61080  Biso   1.000  H
  C149     1.0000 0.47510  0.57410  0.63660  Biso   1.000  C
  H105     1.0000 0.50880  0.55120  0.62290  Biso   1.000  H
  H106     1.0000 0.44080  0.56110  0.61430  Biso   1.000  H
  C150     1.0000 0.46530  0.56060  0.69890  Biso   1.000  C
  C151     1.0000 0.46220  0.60630  0.73800  Biso   1.000  C
  H107     1.0000 0.46410  0.64520  0.72450  Biso   1.000  H
  C152     1.0000 0.45620  0.59520  0.79700  Biso   1.000  C
  H108     1.0000 0.45410  0.62650  0.82370  Biso   1.000  H
  C153     1.0000 0.45340  0.53830  0.81680  Biso   1.000  C
  C154     1.0000 0.45650  0.49260  0.77770  Biso   1.000  C
  C155     1.0000 0.46250  0.50370  0.71870  Biso   1.000  C
  C156     1.0000 0.45380  0.43600  0.79840  Biso   1.000  C
  H109     1.0000 0.44770  0.42910  0.83850  Biso   1.000  H
  C157     1.0000 0.46010  0.38960  0.76040  Biso   1.000  C
  H110     1.0000 0.46230  0.35100  0.77460  Biso   1.000  H
  C158     1.0000 0.46310  0.40070  0.70120  Biso   1.000  C
  H111     1.0000 0.46680  0.36930  0.67480  Biso   1.000  H
  C159     1.0000 0.46080  0.45760  0.67990  Biso   1.000  C
  H112     1.0000 0.45810  0.46450  0.63940  Biso   1.000  H
  C160     1.0000 0.44710  0.53260  0.87980  Biso   1.000  C
  N32      1.0000 0.44220  0.52830  0.92910  Biso   1.000  N
  N33      1.0000 0.88350  0.36580  0.22300  Biso   1.000  N
  C161     1.0000 0.88920  0.41860  0.25150  Biso   1.000  C
  C162     1.0000 0.90200  0.41980  0.31040  Biso   1.000  C
  H113     1.0000 0.90590  0.45590  0.32990  Biso   1.000  H
  C163     1.0000 0.90920  0.36830  0.34080  Biso   1.000  C
  H114     1.0000 0.91790  0.36910  0.38100  Biso   1.000  H
  C164     1.0000 0.90350  0.31540  0.31230  Biso   1.000  C
  H115     1.0000 0.90840  0.28020  0.33300  Biso   1.000  H
  C165     1.0000 0.89060  0.31420  0.25340  Biso   1.000  C
  H116     1.0000 0.88670  0.27810  0.23390  Biso   1.000  H
  N34      1.0000 0.87660  0.51450  0.13460  Biso   1.000  N
  N35      1.0000 0.87910  0.45980  0.15620  Biso   1.000  N
  C166     1.0000 0.88640  0.46900  0.21440  Biso   1.000  C
  C167     1.0000 0.88960  0.52850  0.22710  Biso   1.000  C
  H117     1.0000 0.89360  0.54660  0.26390  Biso   1.000  H
  C168     1.0000 0.88580  0.55390  0.17410  Biso   1.000  C
  H118     1.0000 0.88920  0.59440  0.16690  Biso   1.000  H
  C169     1.0000 0.86340  0.52490  0.07410  Biso   1.000  C
  H119     1.0000 0.87710  0.49120  0.05120  Biso   1.000  H
  H120     1.0000 0.88570  0.55920  0.06110  Biso   1.000  H
  C170     1.0000 0.80110  0.53470  0.06060  Biso   1.000  C
  C171     1.0000 0.76200  0.53780  0.10630  Biso   1.000  C
  H121     1.0000 0.77550  0.53590  0.14520  Biso   1.000  H
  C172     1.0000 0.70300  0.54380  0.09520  Biso   1.000  C
  H122     1.0000 0.67630  0.54590  0.12650  Biso   1.000  H
  C173     1.0000 0.68320  0.54660  0.03830  Biso   1.000  C
  C174     1.0000 0.72230  0.54350  0.99260  Biso   1.000  C
  C175     1.0000 0.78130  0.53750  0.00370  Biso   1.000  C
  C176     1.0000 0.70160  0.54620  0.93600  Biso   1.000  C
  H123     1.0000 0.66150  0.55230  0.92910  Biso   1.000  H
  C177     1.0000 0.73960  0.53990  0.88960  Biso   1.000  C
  H124     1.0000 0.72540  0.53770  0.85100  Biso   1.000  H
  C178     1.0000 0.79880  0.53690  0.90070  Biso   1.000  C
  H125     1.0000 0.82520  0.53320  0.86930  Biso   1.000  H
  C179     1.0000 0.82010  0.53920  0.95760  Biso   1.000  C
  H126     1.0000 0.86060  0.54190  0.96450  Biso   1.000  H
  C180     1.0000 0.62020  0.55290  0.03260  Biso   1.000  C
  N36      1.0000 0.57090  0.55780  0.02830  Biso   1.000  N
  N37      1.0000 0.11650  0.86580  0.27700  Biso   1.000  N
  C181     1.0000 0.11080  0.91860  0.24850  Biso   1.000  C
  C182     1.0000 0.09800  0.91980  0.18960  Biso   1.000  C
  H127     1.0000 0.09410  0.95590  0.17010  Biso   1.000  H
  C183     1.0000 0.09080  0.86830  0.15920  Biso   1.000  C
  H128     1.0000 0.08210  0.86910  0.11900  Biso   1.000  H
  C184     1.0000 0.09650  0.81540  0.18770  Biso   1.000  C
  H129     1.0000 0.09160  0.78020  0.16700  Biso   1.000  H
  C185     1.0000 0.10940  0.81420  0.24660  Biso   1.000  C
  H130     1.0000 0.11330  0.77810  0.26610  Biso   1.000  H
  N38      1.0000 0.12340  0.01450  0.36540  Biso   1.000  N
  N39      1.0000 0.12090  0.95980  0.34380  Biso   1.000  N
  C186     1.0000 0.11360  0.96900  0.28560  Biso   1.000  C
  C187     1.0000 0.11040  0.02850  0.27290  Biso   1.000  C
  H131     1.0000 0.10640  0.04660  0.23610  Biso   1.000  H
  C188     1.0000 0.11420  0.05390  0.32590  Biso   1.000  C
  H132     1.0000 0.11080  0.09440  0.33310  Biso   1.000  H
  C189     1.0000 0.13660  0.02490  0.42590  Biso   1.000  C
  H133     1.0000 0.12290  0.99120  0.44880  Biso   1.000  H
  H134     1.0000 0.11430  0.05920  0.43890  Biso   1.000  H
  C190     1.0000 0.19890  0.03470  0.43940  Biso   1.000  C
  C191     1.0000 0.23800  0.03780  0.39370  Biso   1.000  C
  H135     1.0000 0.22450  0.03590  0.35480  Biso   1.000  H
  C192     1.0000 0.29700  0.04380  0.40480  Biso   1.000  C
  H136     1.0000 0.32370  0.04590  0.37350  Biso   1.000  H
  C193     1.0000 0.31680  0.04660  0.46170  Biso   1.000  C
  C194     1.0000 0.27770  0.04350  0.50740  Biso   1.000  C
  C195     1.0000 0.21870  0.03750  0.49630  Biso   1.000  C
  C196     1.0000 0.29840  0.04620  0.56400  Biso   1.000  C
  H137     1.0000 0.33850  0.05230  0.57090  Biso   1.000  H
  C197     1.0000 0.26040  0.03990  0.61040  Biso   1.000  C
  H138     1.0000 0.27460  0.03770  0.64900  Biso   1.000  H
  C198     1.0000 0.20120  0.03690  0.59930  Biso   1.000  C
  H139     1.0000 0.17480  0.03320  0.63070  Biso   1.000  H
  C199     1.0000 0.17990  0.03920  0.54240  Biso   1.000  C
  H140     1.0000 0.13940  0.04190  0.53550  Biso   1.000  H
  C200     1.0000 0.37980  0.05290  0.46740  Biso   1.000  C
  N40      1.0000 0.42910  0.05780  0.47170  Biso   1.000  N
  N41      1.0000 0.38350  0.13420  0.77700  Biso   1.000  N
  C201     1.0000 0.38920  0.08140  0.74850  Biso   1.000  C
  C202     1.0000 0.40200  0.08020  0.68960  Biso   1.000  C
  H141     1.0000 0.40590  0.04410  0.67010  Biso   1.000  H
  C203     1.0000 0.40920  0.13170  0.65920  Biso   1.000  C
  H142     1.0000 0.41790  0.13090  0.61900  Biso   1.000  H
  C204     1.0000 0.40350  0.18460  0.68770  Biso   1.000  C
  H143     1.0000 0.40840  0.21980  0.66700  Biso   1.000  H
  C205     1.0000 0.39060  0.18580  0.74660  Biso   1.000  C
  H144     1.0000 0.38670  0.22190  0.76610  Biso   1.000  H
  N42      1.0000 0.37660  0.98550  0.86540  Biso   1.000  N
  N43      1.0000 0.37910  0.04020  0.84380  Biso   1.000  N
  C206     1.0000 0.38640  0.03100  0.78560  Biso   1.000  C
  C207     1.0000 0.38960  0.97150  0.77290  Biso   1.000  C
  H145     1.0000 0.39360  0.95340  0.73610  Biso   1.000  H
  C208     1.0000 0.38580  0.94610  0.82590  Biso   1.000  C
  H146     1.0000 0.38920  0.90560  0.83310  Biso   1.000  H
  C209     1.0000 0.36340  0.97510  0.92590  Biso   1.000  C
  H147     1.0000 0.37710  0.00880  0.94880  Biso   1.000  H
  H148     1.0000 0.38570  0.94080  0.93890  Biso   1.000  H
  C210     1.0000 0.30110  0.96530  0.93940  Biso   1.000  C
  C211     1.0000 0.26200  0.96220  0.89370  Biso   1.000  C
  H149     1.0000 0.27550  0.96410  0.85480  Biso   1.000  H
  C212     1.0000 0.20300  0.95620  0.90480  Biso   1.000  C
  H150     1.0000 0.17630  0.95410  0.87350  Biso   1.000  H
  C213     1.0000 0.18320  0.95340  0.96170  Biso   1.000  C
  C214     1.0000 0.22230  0.95650  0.00740  Biso   1.000  C
  C215     1.0000 0.28130  0.96250  0.99630  Biso   1.000  C
  C216     1.0000 0.20160  0.95380  0.06400  Biso   1.000  C
  H151     1.0000 0.16150  0.94770  0.07090  Biso   1.000  H
  C217     1.0000 0.23960  0.96010  0.11040  Biso   1.000  C
  H152     1.0000 0.22540  0.96230  0.14900  Biso   1.000  H
  C218     1.0000 0.29880  0.96310  0.09930  Biso   1.000  C
  H153     1.0000 0.32520  0.96680  0.13070  Biso   1.000  H
  C219     1.0000 0.32010  0.96080  0.04240  Biso   1.000  C
  H154     1.0000 0.36060  0.95810  0.03550  Biso   1.000  H
  C220     1.0000 0.12020  0.94710  0.96740  Biso   1.000  C
  N44      1.0000 0.07090  0.94220  0.97170  Biso   1.000  N
  N45      1.0000 0.61650  0.63420  0.72300  Biso   1.000  N
  C221     1.0000 0.61080  0.58140  0.75150  Biso   1.000  C
  C222     1.0000 0.59800  0.58020  0.81040  Biso   1.000  C
  H155     1.0000 0.59410  0.54410  0.82990  Biso   1.000  H
  C223     1.0000 0.59080  0.63170  0.84080  Biso   1.000  C
  H156     1.0000 0.58210  0.63090  0.88100  Biso   1.000  H
  C224     1.0000 0.59650  0.68460  0.81230  Biso   1.000  C
  H157     1.0000 0.59160  0.71980  0.83300  Biso   1.000  H
  C225     1.0000 0.60940  0.68580  0.75340  Biso   1.000  C
  H158     1.0000 0.61330  0.72190  0.73390  Biso   1.000  H
  N46      1.0000 0.62340  0.48550  0.63460  Biso   1.000  N
  N47      1.0000 0.62090  0.54020  0.65620  Biso   1.000  N
  C226     1.0000 0.61360  0.53100  0.71440  Biso   1.000  C
  C227     1.0000 0.61040  0.47150  0.72710  Biso   1.000  C
  H159     1.0000 0.60640  0.45340  0.76390  Biso   1.000  H
  C228     1.0000 0.61420  0.44610  0.67410  Biso   1.000  C
  H160     1.0000 0.61080  0.40560  0.66690  Biso   1.000  H
  C229     1.0000 0.63660  0.47510  0.57410  Biso   1.000  C
  H161     1.0000 0.62290  0.50880  0.55120  Biso   1.000  H
  H162     1.0000 0.61430  0.44080  0.56110  Biso   1.000  H
  C230     1.0000 0.69890  0.46530  0.56060  Biso   1.000  C
  C231     1.0000 0.73800  0.46220  0.60630  Biso   1.000  C
  H163     1.0000 0.72450  0.46410  0.64520  Biso   1.000  H
  C232     1.0000 0.79700  0.45620  0.59520  Biso   1.000  C
  H164     1.0000 0.82370  0.45410  0.62650  Biso   1.000  H
  C233     1.0000 0.81680  0.45340  0.53830  Biso   1.000  C
  C234     1.0000 0.77770  0.45650  0.49260  Biso   1.000  C
  C235     1.0000 0.71870  0.46250  0.50370  Biso   1.000  C
  C236     1.0000 0.79840  0.45380  0.43600  Biso   1.000  C
  H165     1.0000 0.83850  0.44770  0.42910  Biso   1.000  H
  C237     1.0000 0.76040  0.46010  0.38960  Biso   1.000  C
  H166     1.0000 0.77460  0.46230  0.35100  Biso   1.000  H
  C238     1.0000 0.70120  0.46310  0.40070  Biso   1.000  C
  H167     1.0000 0.67480  0.46680  0.36930  Biso   1.000  H
  C239     1.0000 0.67990  0.46080  0.45760  Biso   1.000  C
  H168     1.0000 0.63940  0.45810  0.46450  Biso   1.000  H
  C240     1.0000 0.87980  0.44710  0.53260  Biso   1.000  C
  N48      1.0000 0.92910  0.44220  0.52830  Biso   1.000  N
  Ag1      1.0000 0.00679  0.49321  0.50679  Biso   1.000  Ag
  Ag2      1.0000 0.49321  0.50679  0.00679  Biso   1.000  Ag
  Ag3      1.0000 0.99321  0.99321  0.99321  Biso   1.000  Ag
  Ag4      1.0000 0.50679  0.00679  0.49321  Biso   1.000  Ag
  Co1      1.0000 0.12978  0.87022  0.37022  Biso   1.000  Co
  Co2      1.0000 0.37022  0.12978  0.87022  Biso   1.000  Co
  Co3      1.0000 0.87022  0.37022  0.12978  Biso   1.000  Co
  Co4      1.0000 0.62978  0.62978  0.62978  Biso   1.000  Co
  N49      1.0000 0.85260  0.04650  0.63680  Biso   1.000  N
  C241     1.0000 0.85050  0.01930  0.69060  Biso   1.000  C
  C242     1.0000 0.84390  0.95950  0.69400  Biso   1.000  C
  H169     1.0000 0.84250  0.94100  0.73070  Biso   1.000  H
  C243     1.0000 0.83930  0.92680  0.64350  Biso   1.000  C
  H170     1.0000 0.83470  0.88590  0.64580  Biso   1.000  H
  C244     1.0000 0.84140  0.95400  0.58970  Biso   1.000  C
  H171     1.0000 0.83830  0.93170  0.55520  Biso   1.000  H
  C245     1.0000 0.84800  0.01380  0.58640  Biso   1.000  C
  H172     1.0000 0.84950  0.03240  0.54960  Biso   1.000  H
  N50      1.0000 0.85270  0.14010  0.78330  Biso   1.000  N
  N51      1.0000 0.85480  0.11500  0.72880  Biso   1.000  N
  C246     1.0000 0.84760  0.05860  0.73910  Biso   1.000  C
  C247     1.0000 0.84290  0.04660  0.79780  Biso   1.000  C
  H173     1.0000 0.83950  0.00940  0.81520  Biso   1.000  H
  C248     1.0000 0.84400  0.09660  0.82440  Biso   1.000  C
  H174     1.0000 0.83960  0.10230  0.86500  Biso   1.000  H
  C249     1.0000 0.86770  0.20230  0.78970  Biso   1.000  C
  H175     1.0000 0.84660  0.21840  0.82340  Biso   1.000  H
  H176     1.0000 0.85460  0.22340  0.75470  Biso   1.000  H
  C250     1.0000 0.93410  0.21280  0.79820  Biso   1.000  C
  C251     1.0000 0.97190  0.16590  0.79590  Biso   1.000  C
  H177     1.0000 0.95700  0.12770  0.79210  Biso   1.000  H
  C252     1.0000 0.03140  0.17500  0.79920  Biso   1.000  C
  H178     1.0000 0.05720  0.14290  0.79760  Biso   1.000  H
  C253     1.0000 0.05310  0.23100  0.80470  Biso   1.000  C
  C254     1.0000 0.01530  0.27790  0.80700  Biso   1.000  C
  C255     1.0000 0.95580  0.26880  0.80380  Biso   1.000  C
  C256     1.0000 0.03810  0.33340  0.81250  Biso   1.000  C
  H179     1.0000 0.07890  0.33880  0.81540  Biso   1.000  H
  C257     1.0000 0.00130  0.38120  0.81390  Biso   1.000  C
  H180     1.0000 0.01640  0.41950  0.81290  Biso   1.000  H
  C258     1.0000 0.94190  0.37150  0.81680  Biso   1.000  C
  H181     1.0000 0.91650  0.40290  0.82510  Biso   1.000  H
  C259     1.0000 0.91880  0.31630  0.80780  Biso   1.000  C
  H182     1.0000 0.87810  0.31120  0.80440  Biso   1.000  H
  C260     1.0000 0.11380  0.23770  0.80070  Biso   1.000  C
  N52      1.0000 0.16610  0.24260  0.79990  Biso   1.000  N
  N53      1.0000 0.64740  0.95350  0.13680  Biso   1.000  N
  C261     1.0000 0.64950  0.98070  0.19060  Biso   1.000  C
  C262     1.0000 0.65610  0.04050  0.19400  Biso   1.000  C
  H183     1.0000 0.65750  0.05900  0.23070  Biso   1.000  H
  C263     1.0000 0.66070  0.07320  0.14350  Biso   1.000  C
  H184     1.0000 0.66530  0.11410  0.14580  Biso   1.000  H
  C264     1.0000 0.65860  0.04600  0.08970  Biso   1.000  C
  H185     1.0000 0.66170  0.06830  0.05520  Biso   1.000  H
  C265     1.0000 0.65200  0.98620  0.08640  Biso   1.000  C
  H186     1.0000 0.65050  0.96760  0.04960  Biso   1.000  H
  N54      1.0000 0.64730  0.85990  0.28330  Biso   1.000  N
  N55      1.0000 0.64520  0.88500  0.22880  Biso   1.000  N
  C266     1.0000 0.65240  0.94140  0.23910  Biso   1.000  C
  C267     1.0000 0.65710  0.95340  0.29780  Biso   1.000  C
  H187     1.0000 0.66050  0.99060  0.31520  Biso   1.000  H
  C268     1.0000 0.65600  0.90340  0.32440  Biso   1.000  C
  H188     1.0000 0.66040  0.89770  0.36500  Biso   1.000  H
  C269     1.0000 0.63230  0.79770  0.28970  Biso   1.000  C
  H189     1.0000 0.65340  0.78160  0.32340  Biso   1.000  H
  H190     1.0000 0.64540  0.77660  0.25470  Biso   1.000  H
  C270     1.0000 0.56590  0.78720  0.29820  Biso   1.000  C
  C271     1.0000 0.52810  0.83410  0.29590  Biso   1.000  C
  H191     1.0000 0.54300  0.87230  0.29210  Biso   1.000  H
  C272     1.0000 0.46860  0.82500  0.29920  Biso   1.000  C
  H192     1.0000 0.44280  0.85710  0.29760  Biso   1.000  H
  C273     1.0000 0.44690  0.76900  0.30470  Biso   1.000  C
  C274     1.0000 0.48470  0.72210  0.30700  Biso   1.000  C
  C275     1.0000 0.54420  0.73120  0.30380  Biso   1.000  C
  C276     1.0000 0.46190  0.66660  0.31250  Biso   1.000  C
  H193     1.0000 0.42110  0.66120  0.31540  Biso   1.000  H
  C277     1.0000 0.49870  0.61880  0.31390  Biso   1.000  C
  H194     1.0000 0.48360  0.58050  0.31290  Biso   1.000  H
  C278     1.0000 0.55810  0.62850  0.31680  Biso   1.000  C
  H195     1.0000 0.58350  0.59710  0.32510  Biso   1.000  H
  C279     1.0000 0.58120  0.68370  0.30780  Biso   1.000  C
  H196     1.0000 0.62190  0.68880  0.30440  Biso   1.000  H
  C280     1.0000 0.38620  0.76230  0.30070  Biso   1.000  C
  N56      1.0000 0.33390  0.75740  0.29990  Biso   1.000  N
  N57      1.0000 0.14740  0.54650  0.86320  Biso   1.000  N
  C281     1.0000 0.14950  0.51930  0.80940  Biso   1.000  C
  C282     1.0000 0.15610  0.45950  0.80600  Biso   1.000  C
  H197     1.0000 0.15750  0.44100  0.76930  Biso   1.000  H
  C283     1.0000 0.16070  0.42680  0.85650  Biso   1.000  C
  H198     1.0000 0.16530  0.38590  0.85420  Biso   1.000  H
  C284     1.0000 0.15860  0.45400  0.91030  Biso   1.000  C
  H199     1.0000 0.16170  0.43170  0.94480  Biso   1.000  H
  C285     1.0000 0.15200  0.51380  0.91360  Biso   1.000  C
  H200     1.0000 0.15050  0.53240  0.95040  Biso   1.000  H
  N58      1.0000 0.14730  0.64010  0.71670  Biso   1.000  N
  N59      1.0000 0.14520  0.61500  0.77120  Biso   1.000  N
  C286     1.0000 0.15240  0.55860  0.76090  Biso   1.000  C
  C287     1.0000 0.15710  0.54660  0.70220  Biso   1.000  C
  H201     1.0000 0.16050  0.50940  0.68480  Biso   1.000  H
  C288     1.0000 0.15600  0.59660  0.67560  Biso   1.000  C
  H202     1.0000 0.16040  0.60230  0.63500  Biso   1.000  H
  C289     1.0000 0.13230  0.70230  0.71030  Biso   1.000  C
  H203     1.0000 0.15340  0.71840  0.67660  Biso   1.000  H
  H204     1.0000 0.14540  0.72340  0.74530  Biso   1.000  H
  C290     1.0000 0.06590  0.71280  0.70180  Biso   1.000  C
  C291     1.0000 0.02810  0.66590  0.70410  Biso   1.000  C
  H205     1.0000 0.04300  0.62770  0.70790  Biso   1.000  H
  C292     1.0000 0.96860  0.67500  0.70080  Biso   1.000  C
  H206     1.0000 0.94280  0.64290  0.70240  Biso   1.000  H
  C293     1.0000 0.94690  0.73100  0.69530  Biso   1.000  C
  C294     1.0000 0.98470  0.77790  0.69300  Biso   1.000  C
  C295     1.0000 0.04420  0.76880  0.69620  Biso   1.000  C
  C296     1.0000 0.96190  0.83340  0.68750  Biso   1.000  C
  H207     1.0000 0.92110  0.83880  0.68460  Biso   1.000  H
  C297     1.0000 0.99870  0.88120  0.68610  Biso   1.000  C
  H208     1.0000 0.98360  0.91950  0.68710  Biso   1.000  H
  C298     1.0000 0.05810  0.87150  0.68320  Biso   1.000  C
  H209     1.0000 0.08350  0.90290  0.67490  Biso   1.000  H
  C299     1.0000 0.08120  0.81630  0.69220  Biso   1.000  C
  H210     1.0000 0.12190  0.81120  0.69560  Biso   1.000  H
  C300     1.0000 0.88620  0.73770  0.69930  Biso   1.000  C
  N60      1.0000 0.83390  0.74260  0.70010  Biso   1.000  N
  N61      1.0000 0.35260  0.45350  0.36320  Biso   1.000  N
  C301     1.0000 0.35050  0.48070  0.30940  Biso   1.000  C
  C302     1.0000 0.34390  0.54050  0.30600  Biso   1.000  C
  H211     1.0000 0.34250  0.55900  0.26930  Biso   1.000  H
  C303     1.0000 0.33930  0.57320  0.35650  Biso   1.000  C
  H212     1.0000 0.33470  0.61410  0.35420  Biso   1.000  H
  C304     1.0000 0.34140  0.54600  0.41030  Biso   1.000  C
  H213     1.0000 0.33830  0.56830  0.44480  Biso   1.000  H
  C305     1.0000 0.34800  0.48620  0.41360  Biso   1.000  C
  H214     1.0000 0.34950  0.46760  0.45040  Biso   1.000  H
  N62      1.0000 0.35270  0.35990  0.21670  Biso   1.000  N
  N63      1.0000 0.35480  0.38500  0.27120  Biso   1.000  N
  C306     1.0000 0.34760  0.44140  0.26090  Biso   1.000  C
  C307     1.0000 0.34290  0.45340  0.20220  Biso   1.000  C
  H215     1.0000 0.33950  0.49060  0.18480  Biso   1.000  H
  C308     1.0000 0.34400  0.40340  0.17560  Biso   1.000  C
  H216     1.0000 0.33960  0.39770  0.13500  Biso   1.000  H
  C309     1.0000 0.36770  0.29770  0.21030  Biso   1.000  C
  H217     1.0000 0.34660  0.28160  0.17660  Biso   1.000  H
  H218     1.0000 0.35460  0.27660  0.24530  Biso   1.000  H
  C310     1.0000 0.43410  0.28720  0.20180  Biso   1.000  C
  C311     1.0000 0.47190  0.33410  0.20410  Biso   1.000  C
  H219     1.0000 0.45700  0.37230  0.20790  Biso   1.000  H
  C312     1.0000 0.53140  0.32500  0.20080  Biso   1.000  C
  H220     1.0000 0.55720  0.35710  0.20240  Biso   1.000  H
  C313     1.0000 0.55310  0.26900  0.19530  Biso   1.000  C
  C314     1.0000 0.51530  0.22210  0.19300  Biso   1.000  C
  C315     1.0000 0.45580  0.23120  0.19620  Biso   1.000  C
  C316     1.0000 0.53810  0.16660  0.18750  Biso   1.000  C
  H221     1.0000 0.57890  0.16120  0.18460  Biso   1.000  H
  C317     1.0000 0.50130  0.11880  0.18610  Biso   1.000  C
  H222     1.0000 0.51640  0.08050  0.18710  Biso   1.000  H
  C318     1.0000 0.44190  0.12850  0.18320  Biso   1.000  C
  H223     1.0000 0.41650  0.09710  0.17490  Biso   1.000  H
  C319     1.0000 0.41880  0.18370  0.19220  Biso   1.000  C
  H224     1.0000 0.37810  0.18880  0.19560  Biso   1.000  H
  C320     1.0000 0.61380  0.26230  0.19930  Biso   1.000  C
  N64      1.0000 0.66610  0.25740  0.20010  Biso   1.000  N
  N65      1.0000 0.63680  0.85260  0.04650  Biso   1.000  N
  C321     1.0000 0.69060  0.85050  0.01930  Biso   1.000  C
  C322     1.0000 0.69400  0.84390  0.95950  Biso   1.000  C
  H225     1.0000 0.73070  0.84250  0.94100  Biso   1.000  H
  C323     1.0000 0.64350  0.83930  0.92680  Biso   1.000  C
  H226     1.0000 0.64580  0.83470  0.88590  Biso   1.000  H
  C324     1.0000 0.58970  0.84140  0.95400  Biso   1.000  C
  H227     1.0000 0.55520  0.83830  0.93170  Biso   1.000  H
  C325     1.0000 0.58640  0.84800  0.01380  Biso   1.000  C
  H228     1.0000 0.54960  0.84950  0.03240  Biso   1.000  H
  N66      1.0000 0.78330  0.85270  0.14010  Biso   1.000  N
  N67      1.0000 0.72880  0.85480  0.11500  Biso   1.000  N
  C326     1.0000 0.73910  0.84760  0.05860  Biso   1.000  C
  C327     1.0000 0.79780  0.84290  0.04660  Biso   1.000  C
  H229     1.0000 0.81520  0.83950  0.00940  Biso   1.000  H
  C328     1.0000 0.82440  0.84400  0.09660  Biso   1.000  C
  H230     1.0000 0.86500  0.83960  0.10230  Biso   1.000  H
  C329     1.0000 0.78970  0.86770  0.20230  Biso   1.000  C
  H231     1.0000 0.82340  0.84660  0.21840  Biso   1.000  H
  H232     1.0000 0.75470  0.85460  0.22340  Biso   1.000  H
  C330     1.0000 0.79820  0.93410  0.21280  Biso   1.000  C
  C331     1.0000 0.79590  0.97190  0.16590  Biso   1.000  C
  H233     1.0000 0.79210  0.95700  0.12770  Biso   1.000  H
  C332     1.0000 0.79920  0.03140  0.17500  Biso   1.000  C
  H234     1.0000 0.79760  0.05720  0.14290  Biso   1.000  H
  C333     1.0000 0.80470  0.05310  0.23100  Biso   1.000  C
  C334     1.0000 0.80700  0.01530  0.27790  Biso   1.000  C
  C335     1.0000 0.80380  0.95580  0.26880  Biso   1.000  C
  C336     1.0000 0.81250  0.03810  0.33340  Biso   1.000  C
  H235     1.0000 0.81540  0.07890  0.33880  Biso   1.000  H
  C337     1.0000 0.81390  0.00130  0.38120  Biso   1.000  C
  H236     1.0000 0.81290  0.01640  0.41950  Biso   1.000  H
  C338     1.0000 0.81680  0.94190  0.37150  Biso   1.000  C
  H237     1.0000 0.82510  0.91650  0.40290  Biso   1.000  H
  C339     1.0000 0.80780  0.91880  0.31630  Biso   1.000  C
  H238     1.0000 0.80440  0.87810  0.31120  Biso   1.000  H
  C340     1.0000 0.80070  0.11380  0.23770  Biso   1.000  C
  N68      1.0000 0.79990  0.16610  0.24260  Biso   1.000  N
  N69      1.0000 0.13680  0.64740  0.95350  Biso   1.000  N
  C341     1.0000 0.19060  0.64950  0.98070  Biso   1.000  C
  C342     1.0000 0.19400  0.65610  0.04050  Biso   1.000  C
  H239     1.0000 0.23070  0.65750  0.05900  Biso   1.000  H
  C343     1.0000 0.14350  0.66070  0.07320  Biso   1.000  C
  H240     1.0000 0.14580  0.66530  0.11410  Biso   1.000  H
  C344     1.0000 0.08970  0.65860  0.04600  Biso   1.000  C
  H241     1.0000 0.05520  0.66170  0.06830  Biso   1.000  H
  C345     1.0000 0.08640  0.65200  0.98620  Biso   1.000  C
  H242     1.0000 0.04960  0.65050  0.96760  Biso   1.000  H
  N70      1.0000 0.28330  0.64730  0.85990  Biso   1.000  N
  N71      1.0000 0.22880  0.64520  0.88500  Biso   1.000  N
  C346     1.0000 0.23910  0.65240  0.94140  Biso   1.000  C
  C347     1.0000 0.29780  0.65710  0.95340  Biso   1.000  C
  H243     1.0000 0.31520  0.66050  0.99060  Biso   1.000  H
  C348     1.0000 0.32440  0.65600  0.90340  Biso   1.000  C
  H244     1.0000 0.36500  0.66040  0.89770  Biso   1.000  H
  C349     1.0000 0.28970  0.63230  0.79770  Biso   1.000  C
  H245     1.0000 0.32340  0.65340  0.78160  Biso   1.000  H
  H246     1.0000 0.25470  0.64540  0.77660  Biso   1.000  H
  C350     1.0000 0.29820  0.56590  0.78720  Biso   1.000  C
  C351     1.0000 0.29590  0.52810  0.83410  Biso   1.000  C
  H247     1.0000 0.29210  0.54300  0.87230  Biso   1.000  H
  C352     1.0000 0.29920  0.46860  0.82500  Biso   1.000  C
  H248     1.0000 0.29760  0.44280  0.85710  Biso   1.000  H
  C353     1.0000 0.30470  0.44690  0.76900  Biso   1.000  C
  C354     1.0000 0.30700  0.48470  0.72210  Biso   1.000  C
  C355     1.0000 0.30380  0.54420  0.73120  Biso   1.000  C
  C356     1.0000 0.31250  0.46190  0.66660  Biso   1.000  C
  H249     1.0000 0.31540  0.42110  0.66120  Biso   1.000  H
  C357     1.0000 0.31390  0.49870  0.61880  Biso   1.000  C
  H250     1.0000 0.31290  0.48360  0.58050  Biso   1.000  H
  C358     1.0000 0.31680  0.55810  0.62850  Biso   1.000  C
  H251     1.0000 0.32510  0.58350  0.59710  Biso   1.000  H
  C359     1.0000 0.30780  0.58120  0.68370  Biso   1.000  C
  H252     1.0000 0.30440  0.62190  0.68880  Biso   1.000  H
  C360     1.0000 0.30070  0.38620  0.76230  Biso   1.000  C
  N72      1.0000 0.29990  0.33390  0.75740  Biso   1.000  N
  N73      1.0000 0.86320  0.14740  0.54650  Biso   1.000  N
  C361     1.0000 0.80940  0.14950  0.51930  Biso   1.000  C
  C362     1.0000 0.80600  0.15610  0.45950  Biso   1.000  C
  H253     1.0000 0.76930  0.15750  0.44100  Biso   1.000  H
  C363     1.0000 0.85650  0.16070  0.42680  Biso   1.000  C
  H254     1.0000 0.85420  0.16530  0.38590  Biso   1.000  H
  C364     1.0000 0.91030  0.15860  0.45400  Biso   1.000  C
  H255     1.0000 0.94480  0.16170  0.43170  Biso   1.000  H
  C365     1.0000 0.91360  0.15200  0.51380  Biso   1.000  C
  H256     1.0000 0.95040  0.15050  0.53240  Biso   1.000  H
  N74      1.0000 0.71670  0.14730  0.64010  Biso   1.000  N
  N75      1.0000 0.77120  0.14520  0.61500  Biso   1.000  N
  C366     1.0000 0.76090  0.15240  0.55860  Biso   1.000  C
  C367     1.0000 0.70220  0.15710  0.54660  Biso   1.000  C
  H257     1.0000 0.68480  0.16050  0.50940  Biso   1.000  H
  C368     1.0000 0.67560  0.15600  0.59660  Biso   1.000  C
  H258     1.0000 0.63500  0.16040  0.60230  Biso   1.000  H
  C369     1.0000 0.71030  0.13230  0.70230  Biso   1.000  C
  H259     1.0000 0.67660  0.15340  0.71840  Biso   1.000  H
  H260     1.0000 0.74530  0.14540  0.72340  Biso   1.000  H
  C370     1.0000 0.70180  0.06590  0.71280  Biso   1.000  C
  C371     1.0000 0.70410  0.02810  0.66590  Biso   1.000  C
  H261     1.0000 0.70790  0.04300  0.62770  Biso   1.000  H
  C372     1.0000 0.70080  0.96860  0.67500  Biso   1.000  C
  H262     1.0000 0.70240  0.94280  0.64290  Biso   1.000  H
  C373     1.0000 0.69530  0.94690  0.73100  Biso   1.000  C
  C374     1.0000 0.69300  0.98470  0.77790  Biso   1.000  C
  C375     1.0000 0.69620  0.04420  0.76880  Biso   1.000  C
  C376     1.0000 0.68750  0.96190  0.83340  Biso   1.000  C
  H263     1.0000 0.68460  0.92110  0.83880  Biso   1.000  H
  C377     1.0000 0.68610  0.99870  0.88120  Biso   1.000  C
  H264     1.0000 0.68710  0.98360  0.91950  Biso   1.000  H
  C378     1.0000 0.68320  0.05810  0.87150  Biso   1.000  C
  H265     1.0000 0.67490  0.08350  0.90290  Biso   1.000  H
  C379     1.0000 0.69220  0.08120  0.81630  Biso   1.000  C
  H266     1.0000 0.69560  0.12190  0.81120  Biso   1.000  H
  C380     1.0000 0.69930  0.88620  0.73770  Biso   1.000  C
  N76      1.0000 0.70010  0.83390  0.74260  Biso   1.000  N
  N77      1.0000 0.36320  0.35260  0.45350  Biso   1.000  N
  C381     1.0000 0.30940  0.35050  0.48070  Biso   1.000  C
  C382     1.0000 0.30600  0.34390  0.54050  Biso   1.000  C
  H267     1.0000 0.26930  0.34250  0.55900  Biso   1.000  H
  C383     1.0000 0.35650  0.33930  0.57320  Biso   1.000  C
  H268     1.0000 0.35420  0.33470  0.61410  Biso   1.000  H
  C384     1.0000 0.41030  0.34140  0.54600  Biso   1.000  C
  H269     1.0000 0.44480  0.33830  0.56830  Biso   1.000  H
  C385     1.0000 0.41360  0.34800  0.48620  Biso   1.000  C
  H270     1.0000 0.45040  0.34950  0.46760  Biso   1.000  H
  N78      1.0000 0.21670  0.35270  0.35990  Biso   1.000  N
  N79      1.0000 0.27120  0.35480  0.38500  Biso   1.000  N
  C386     1.0000 0.26090  0.34760  0.44140  Biso   1.000  C
  C387     1.0000 0.20220  0.34290  0.45340  Biso   1.000  C
  H271     1.0000 0.18480  0.33950  0.49060  Biso   1.000  H
  C388     1.0000 0.17560  0.34400  0.40340  Biso   1.000  C
  H272     1.0000 0.13500  0.33960  0.39770  Biso   1.000  H
  C389     1.0000 0.21030  0.36770  0.29770  Biso   1.000  C
  H273     1.0000 0.17660  0.34660  0.28160  Biso   1.000  H
  H274     1.0000 0.24530  0.35460  0.27660  Biso   1.000  H
  C390     1.0000 0.20180  0.43410  0.28720  Biso   1.000  C
  C391     1.0000 0.20410  0.47190  0.33410  Biso   1.000  C
  H275     1.0000 0.20790  0.45700  0.37230  Biso   1.000  H
  C392     1.0000 0.20080  0.53140  0.32500  Biso   1.000  C
  H276     1.0000 0.20240  0.55720  0.35710  Biso   1.000  H
  C393     1.0000 0.19530  0.55310  0.26900  Biso   1.000  C
  C394     1.0000 0.19300  0.51530  0.22210  Biso   1.000  C
  C395     1.0000 0.19620  0.45580  0.23120  Biso   1.000  C
  C396     1.0000 0.18750  0.53810  0.16660  Biso   1.000  C
  H277     1.0000 0.18460  0.57890  0.16120  Biso   1.000  H
  C397     1.0000 0.18610  0.50130  0.11880  Biso   1.000  C
  H278     1.0000 0.18710  0.51640  0.08050  Biso   1.000  H
  C398     1.0000 0.18320  0.44190  0.12850  Biso   1.000  C
  H279     1.0000 0.17490  0.41650  0.09710  Biso   1.000  H
  C399     1.0000 0.19220  0.41880  0.18370  Biso   1.000  C
  H280     1.0000 0.19560  0.37810  0.18880  Biso   1.000  H
  C400     1.0000 0.19930  0.61380  0.26230  Biso   1.000  C
  N80      1.0000 0.20010  0.66610  0.25740  Biso   1.000  N
  N81      1.0000 0.04650  0.63680  0.85260  Biso   1.000  N
  C401     1.0000 0.01930  0.69060  0.85050  Biso   1.000  C
  C402     1.0000 0.95950  0.69400  0.84390  Biso   1.000  C
  H281     1.0000 0.94100  0.73070  0.84250  Biso   1.000  H
  C403     1.0000 0.92680  0.64350  0.83930  Biso   1.000  C
  H282     1.0000 0.88590  0.64580  0.83470  Biso   1.000  H
  C404     1.0000 0.95400  0.58970  0.84140  Biso   1.000  C
  H283     1.0000 0.93170  0.55520  0.83830  Biso   1.000  H
  C405     1.0000 0.01380  0.58640  0.84800  Biso   1.000  C
  H284     1.0000 0.03240  0.54960  0.84950  Biso   1.000  H
  N82      1.0000 0.14010  0.78330  0.85270  Biso   1.000  N
  N83      1.0000 0.11500  0.72880  0.85480  Biso   1.000  N
  C406     1.0000 0.05860  0.73910  0.84760  Biso   1.000  C
  C407     1.0000 0.04660  0.79780  0.84290  Biso   1.000  C
  H285     1.0000 0.00940  0.81520  0.83950  Biso   1.000  H
  C408     1.0000 0.09660  0.82440  0.84400  Biso   1.000  C
  H286     1.0000 0.10230  0.86500  0.83960  Biso   1.000  H
  C409     1.0000 0.20230  0.78970  0.86770  Biso   1.000  C
  H287     1.0000 0.21840  0.82340  0.84660  Biso   1.000  H
  H288     1.0000 0.22340  0.75470  0.85460  Biso   1.000  H
  C410     1.0000 0.21280  0.79820  0.93410  Biso   1.000  C
  C411     1.0000 0.16590  0.79590  0.97190  Biso   1.000  C
  H289     1.0000 0.12770  0.79210  0.95700  Biso   1.000  H
  C412     1.0000 0.17500  0.79920  0.03140  Biso   1.000  C
  H290     1.0000 0.14290  0.79760  0.05720  Biso   1.000  H
  C413     1.0000 0.23100  0.80470  0.05310  Biso   1.000  C
  C414     1.0000 0.27790  0.80700  0.01530  Biso   1.000  C
  C415     1.0000 0.26880  0.80380  0.95580  Biso   1.000  C
  C416     1.0000 0.33340  0.81250  0.03810  Biso   1.000  C
  H291     1.0000 0.33880  0.81540  0.07890  Biso   1.000  H
  C417     1.0000 0.38120  0.81390  0.00130  Biso   1.000  C
  H292     1.0000 0.41950  0.81290  0.01640  Biso   1.000  H
  C418     1.0000 0.37150  0.81680  0.94190  Biso   1.000  C
  H293     1.0000 0.40290  0.82510  0.91650  Biso   1.000  H
  C419     1.0000 0.31630  0.80780  0.91880  Biso   1.000  C
  H294     1.0000 0.31120  0.80440  0.87810  Biso   1.000  H
  C420     1.0000 0.23770  0.80070  0.11380  Biso   1.000  C
  N84      1.0000 0.24260  0.79990  0.16610  Biso   1.000  N
  N85      1.0000 0.95350  0.13680  0.64740  Biso   1.000  N
  C421     1.0000 0.98070  0.19060  0.64950  Biso   1.000  C
  C422     1.0000 0.04050  0.19400  0.65610  Biso   1.000  C
  H295     1.0000 0.05900  0.23070  0.65750  Biso   1.000  H
  C423     1.0000 0.07320  0.14350  0.66070  Biso   1.000  C
  H296     1.0000 0.11410  0.14580  0.66530  Biso   1.000  H
  C424     1.0000 0.04600  0.08970  0.65860  Biso   1.000  C
  H297     1.0000 0.06830  0.05520  0.66170  Biso   1.000  H
  C425     1.0000 0.98620  0.08640  0.65200  Biso   1.000  C
  H298     1.0000 0.96760  0.04960  0.65050  Biso   1.000  H
  N86      1.0000 0.85990  0.28330  0.64730  Biso   1.000  N
  N87      1.0000 0.88500  0.22880  0.64520  Biso   1.000  N
  C426     1.0000 0.94140  0.23910  0.65240  Biso   1.000  C
  C427     1.0000 0.95340  0.29780  0.65710  Biso   1.000  C
  H299     1.0000 0.99060  0.31520  0.66050  Biso   1.000  H
  C428     1.0000 0.90340  0.32440  0.65600  Biso   1.000  C
  H300     1.0000 0.89770  0.36500  0.66040  Biso   1.000  H
  C429     1.0000 0.79770  0.28970  0.63230  Biso   1.000  C
  H301     1.0000 0.78160  0.32340  0.65340  Biso   1.000  H
  H302     1.0000 0.77660  0.25470  0.64540  Biso   1.000  H
  C430     1.0000 0.78720  0.29820  0.56590  Biso   1.000  C
  C431     1.0000 0.83410  0.29590  0.52810  Biso   1.000  C
  H303     1.0000 0.87230  0.29210  0.54300  Biso   1.000  H
  C432     1.0000 0.82500  0.29920  0.46860  Biso   1.000  C
  H304     1.0000 0.85710  0.29760  0.44280  Biso   1.000  H
  C433     1.0000 0.76900  0.30470  0.44690  Biso   1.000  C
  C434     1.0000 0.72210  0.30700  0.48470  Biso   1.000  C
  C435     1.0000 0.73120  0.30380  0.54420  Biso   1.000  C
  C436     1.0000 0.66660  0.31250  0.46190  Biso   1.000  C
  H305     1.0000 0.66120  0.31540  0.42110  Biso   1.000  H
  C437     1.0000 0.61880  0.31390  0.49870  Biso   1.000  C
  H306     1.0000 0.58050  0.31290  0.48360  Biso   1.000  H
  C438     1.0000 0.62850  0.31680  0.55810  Biso   1.000  C
  H307     1.0000 0.59710  0.32510  0.58350  Biso   1.000  H
  C439     1.0000 0.68370  0.30780  0.58120  Biso   1.000  C
  H308     1.0000 0.68880  0.30440  0.62190  Biso   1.000  H
  C440     1.0000 0.76230  0.30070  0.38620  Biso   1.000  C
  N88      1.0000 0.75740  0.29990  0.33390  Biso   1.000  N
  N89      1.0000 0.54650  0.86320  0.14740  Biso   1.000  N
  C441     1.0000 0.51930  0.80940  0.14950  Biso   1.000  C
  C442     1.0000 0.45950  0.80600  0.15610  Biso   1.000  C
  H309     1.0000 0.44100  0.76930  0.15750  Biso   1.000  H
  C443     1.0000 0.42680  0.85650  0.16070  Biso   1.000  C
  H310     1.0000 0.38590  0.85420  0.16530  Biso   1.000  H
  C444     1.0000 0.45400  0.91030  0.15860  Biso   1.000  C
  H311     1.0000 0.43170  0.94480  0.16170  Biso   1.000  H
  C445     1.0000 0.51380  0.91360  0.15200  Biso   1.000  C
  H312     1.0000 0.53240  0.95040  0.15050  Biso   1.000  H
  N90      1.0000 0.64010  0.71670  0.14730  Biso   1.000  N
  N91      1.0000 0.61500  0.77120  0.14520  Biso   1.000  N
  C446     1.0000 0.55860  0.76090  0.15240  Biso   1.000  C
  C447     1.0000 0.54660  0.70220  0.15710  Biso   1.000  C
  H313     1.0000 0.50940  0.68480  0.16050  Biso   1.000  H
  C448     1.0000 0.59660  0.67560  0.15600  Biso   1.000  C
  H314     1.0000 0.60230  0.63500  0.16040  Biso   1.000  H
  C449     1.0000 0.70230  0.71030  0.13230  Biso   1.000  C
  H315     1.0000 0.71840  0.67660  0.15340  Biso   1.000  H
  H316     1.0000 0.72340  0.74530  0.14540  Biso   1.000  H
  C450     1.0000 0.71280  0.70180  0.06590  Biso   1.000  C
  C451     1.0000 0.66590  0.70410  0.02810  Biso   1.000  C
  H317     1.0000 0.62770  0.70790  0.04300  Biso   1.000  H
  C452     1.0000 0.67500  0.70080  0.96860  Biso   1.000  C
  H318     1.0000 0.64290  0.70240  0.94280  Biso   1.000  H
  C453     1.0000 0.73100  0.69530  0.94690  Biso   1.000  C
  C454     1.0000 0.77790  0.69300  0.98470  Biso   1.000  C
  C455     1.0000 0.76880  0.69620  0.04420  Biso   1.000  C
  C456     1.0000 0.83340  0.68750  0.96190  Biso   1.000  C
  H319     1.0000 0.83880  0.68460  0.92110  Biso   1.000  H
  C457     1.0000 0.88120  0.68610  0.99870  Biso   1.000  C
  H320     1.0000 0.91950  0.68710  0.98360  Biso   1.000  H
  C458     1.0000 0.87150  0.68320  0.05810  Biso   1.000  C
  H321     1.0000 0.90290  0.67490  0.08350  Biso   1.000  H
  C459     1.0000 0.81630  0.69220  0.08120  Biso   1.000  C
  H322     1.0000 0.81120  0.69560  0.12190  Biso   1.000  H
  C460     1.0000 0.73770  0.69930  0.88620  Biso   1.000  C
  N92      1.0000 0.74260  0.70010  0.83390  Biso   1.000  N
  N93      1.0000 0.45350  0.36320  0.35260  Biso   1.000  N
  C461     1.0000 0.48070  0.30940  0.35050  Biso   1.000  C
  C462     1.0000 0.54050  0.30600  0.34390  Biso   1.000  C
  H323     1.0000 0.55900  0.26930  0.34250  Biso   1.000  H
  C463     1.0000 0.57320  0.35650  0.33930  Biso   1.000  C
  H324     1.0000 0.61410  0.35420  0.33470  Biso   1.000  H
  C464     1.0000 0.54600  0.41030  0.34140  Biso   1.000  C
  H325     1.0000 0.56830  0.44480  0.33830  Biso   1.000  H
  C465     1.0000 0.48620  0.41360  0.34800  Biso   1.000  C
  H326     1.0000 0.46760  0.45040  0.34950  Biso   1.000  H
  N94      1.0000 0.35990  0.21670  0.35270  Biso   1.000  N
  N95      1.0000 0.38500  0.27120  0.35480  Biso   1.000  N
  C466     1.0000 0.44140  0.26090  0.34760  Biso   1.000  C
  C467     1.0000 0.45340  0.20220  0.34290  Biso   1.000  C
  H327     1.0000 0.49060  0.18480  0.33950  Biso   1.000  H
  C468     1.0000 0.40340  0.17560  0.34400  Biso   1.000  C
  H328     1.0000 0.39770  0.13500  0.33960  Biso   1.000  H
  C469     1.0000 0.29770  0.21030  0.36770  Biso   1.000  C
  H329     1.0000 0.28160  0.17660  0.34660  Biso   1.000  H
  H330     1.0000 0.27660  0.24530  0.35460  Biso   1.000  H
  C470     1.0000 0.28720  0.20180  0.43410  Biso   1.000  C
  C471     1.0000 0.33410  0.20410  0.47190  Biso   1.000  C
  H331     1.0000 0.37230  0.20790  0.45700  Biso   1.000  H
  C472     1.0000 0.32500  0.20080  0.53140  Biso   1.000  C
  H332     1.0000 0.35710  0.20240  0.55720  Biso   1.000  H
  C473     1.0000 0.26900  0.19530  0.55310  Biso   1.000  C
  C474     1.0000 0.22210  0.19300  0.51530  Biso   1.000  C
  C475     1.0000 0.23120  0.19620  0.45580  Biso   1.000  C
  C476     1.0000 0.16660  0.18750  0.53810  Biso   1.000  C
  H333     1.0000 0.16120  0.18460  0.57890  Biso   1.000  H
  C477     1.0000 0.11880  0.18610  0.50130  Biso   1.000  C
  H334     1.0000 0.08050  0.18710  0.51640  Biso   1.000  H
  C478     1.0000 0.12850  0.18320  0.44190  Biso   1.000  C
  H335     1.0000 0.09710  0.17490  0.41650  Biso   1.000  H
  C479     1.0000 0.18370  0.19220  0.41880  Biso   1.000  C
  H336     1.0000 0.18880  0.19560  0.37810  Biso   1.000  H
  C480     1.0000 0.26230  0.19930  0.61380  Biso   1.000  C
  N96      1.0000 0.25740  0.20010  0.66610  Biso   1.000  N
  Ag5      1.0000 0.24084  0.25916  0.74084  Biso   1.000  Ag
  Ag6      1.0000 0.25916  0.74084  0.24084  Biso   1.000  Ag
  Ag7      1.0000 0.75916  0.75916  0.75916  Biso   1.000  Ag
  Ag8      1.0000 0.74084  0.24084  0.25916  Biso   1.000  Ag
  Co5      1.0000 0.86161  0.13839  0.63839  Biso   1.000  Co
  Co6      1.0000 0.63839  0.86161  0.13839  Biso   1.000  Co
  Co7      1.0000 0.13839  0.63839  0.86161  Biso   1.000  Co
  Co8      1.0000 0.36161  0.36161  0.36161  Biso   1.000  Co
