data_image0
_cell_length_a       34.967
_cell_length_b       21.6125
_cell_length_c       41.296
_cell_angle_alpha    90
_cell_angle_beta     90
_cell_angle_gamma    90

_symmetry_space_group_name_H-M    "P 1"
_symmetry_int_tables_number       1

loop_
  _symmetry_equiv_pos_as_xyz
  'x, y, z'

loop_
  _atom_site_label
  _atom_site_occupancy
  _atom_site_fract_x
  _atom_site_fract_y
  _atom_site_fract_z
  _atom_site_thermal_displace_type
  _atom_site_B_iso_or_equiv
  _atom_site_type_symbol
  Gd1      1.0000 0.27660  0.06248  0.04341  Biso   1.000  Gd
  Gd2      1.0000 0.52233  0.27573  0.89407  Biso   1.000  Gd
  Gd3      1.0000 0.44891  0.14542  0.83986  Biso   1.000  Gd
  Gd4      1.0000 0.59304  0.35301  0.14623  Biso   1.000  Gd
  Gd5      1.0000 0.35367  0.78027  0.92994  Biso   1.000  Gd
  Gd6      1.0000 0.34570  0.94007  0.98324  Biso   1.000  Gd
  C1       1.0000 0.27420  0.25680  0.06170  Biso   1.000  C
  C2       1.0000 0.27300  0.18810  0.05700  Biso   1.000  C
  O1       1.0000 0.24940  0.16710  0.03740  Biso   1.000  O
  O2       1.0000 0.29270  0.15530  0.07500  Biso   1.000  O
  C3       1.0000 0.24950  0.29490  0.04510  Biso   1.000  C
  H1       1.0000 0.23120  0.27750  0.03150  Biso   1.000  H
  C4       1.0000 0.25120  0.35930  0.04830  Biso   1.000  C
  C5       1.0000 0.22340  0.39980  0.03040  Biso   1.000  C
  O3       1.0000 0.22540  0.45790  0.03610  Biso   1.000  O
  O4       1.0000 0.19980  0.37480  0.01060  Biso   1.000  O
  C6       1.0000 0.27900  0.38610  0.06640  Biso   1.000  C
  H2       1.0000 0.28120  0.42900  0.06750  Biso   1.000  H
  C7       1.0000 0.30460  0.34730  0.08360  Biso   1.000  C
  C8       1.0000 0.33160  0.37390  0.10290  Biso   1.000  C
  N1       1.0000 0.35750  0.39330  0.11940  Biso   1.000  N
  C9       1.0000 0.38600  0.33080  0.81840  Biso   1.000  C
  H3       1.0000 0.38210  0.28840  0.81620  Biso   1.000  H
  C10      1.0000 0.30120  0.28430  0.08090  Biso   1.000  C
  H4       1.0000 0.31790  0.25930  0.09260  Biso   1.000  H
  C11      1.0000 0.37710  0.14960  0.98610  Biso   1.000  C
  C12      1.0000 0.34880  0.10000  0.99720  Biso   1.000  C
  O5       1.0000 0.32210  0.11520  0.01460  Biso   1.000  O
  O6       1.0000 0.35570  0.04590  0.98770  Biso   1.000  O
  C13      1.0000 0.39790  0.14290  0.95870  Biso   1.000  C
  H5       1.0000 0.39620  0.10680  0.94650  Biso   1.000  H
  C14      1.0000 0.42240  0.19130  0.94890  Biso   1.000  C
  C15      1.0000 0.44190  0.19040  0.91730  Biso   1.000  C
  O7       1.0000 0.46960  0.22890  0.91350  Biso   1.000  O
  O8       1.0000 0.43100  0.15400  0.89600  Biso   1.000  O
  C16      1.0000 0.42650  0.24130  0.96950  Biso   1.000  C
  H6       1.0000 0.44210  0.27400  0.96320  Biso   1.000  H
  C17      1.0000 0.40800  0.24460  0.99920  Biso   1.000  C
  C18      1.0000 0.40930  0.30020  0.01860  Biso   1.000  C
  N2       1.0000 0.41310  0.34320  0.03450  Biso   1.000  N
  C19      1.0000 0.38190  0.19850  0.00820  Biso   1.000  C
  H7       1.0000 0.36860  0.20010  0.02760  Biso   1.000  H
  C20      1.0000 0.55490  0.06640  0.88940  Biso   1.000  C
  C21      1.0000 0.53030  0.12380  0.88680  Biso   1.000  C
  O9       1.0000 0.54090  0.17030  0.90170  Biso   1.000  O
  O10      1.0000 0.50350  0.11850  0.86740  Biso   1.000  O
  C22      1.0000 0.58420  0.06320  0.91240  Biso   1.000  C
  H8       1.0000 0.58830  0.09720  0.92570  Biso   1.000  H
  C23      1.0000 0.60800  0.01060  0.91620  Biso   1.000  C
  C24      1.0000 0.63930  0.00960  0.93980  Biso   1.000  C
  O11      1.0000 0.63710  0.04930  0.96290  Biso   1.000  O
  O12      1.0000 0.66400  0.96930  0.93670  Biso   1.000  O
  C25      1.0000 0.60200  0.96060  0.89870  Biso   1.000  C
  H9       1.0000 0.61690  0.92550  0.90180  Biso   1.000  H
  C26      1.0000 0.57190  0.96070  0.87440  Biso   1.000  C
  C27      1.0000 0.56200  0.90200  0.86620  Biso   1.000  C
  N3       1.0000 0.55800  0.87100  0.84380  Biso   1.000  N
  C28      1.0000 0.54860  0.01670  0.87020  Biso   1.000  C
  H10      1.0000 0.52950  0.01790  0.85450  Biso   1.000  H
  C29      1.0000 0.52200  0.35280  0.99000  Biso   1.000  C
  C30      1.0000 0.52200  0.32830  0.95710  Biso   1.000  C
  O13      1.0000 0.49900  0.35080  0.93560  Biso   1.000  O
  O14      1.0000 0.54350  0.28390  0.94960  Biso   1.000  O
  C31      1.0000 0.54700  0.33200  0.01320  Biso   1.000  C
  H11      1.0000 0.56330  0.29960  0.00800  Biso   1.000  H
  C32      1.0000 0.54890  0.35650  0.04370  Biso   1.000  C
  C33      1.0000 0.57720  0.33270  0.06580  Biso   1.000  C
  O15      1.0000 0.58490  0.36670  0.09040  Biso   1.000  O
  O16      1.0000 0.59280  0.28060  0.06160  Biso   1.000  O
  C34      1.0000 0.52330  0.40200  0.05220  Biso   1.000  C
  H12      1.0000 0.52420  0.41870  0.07300  Biso   1.000  H
  C35      1.0000 0.49580  0.42350  0.03020  Biso   1.000  C
  C36      1.0000 0.46850  0.47230  0.04020  Biso   1.000  C
  N4       1.0000 0.44780  0.50870  0.04800  Biso   1.000  N
  C37      1.0000 0.49540  0.40010  0.99940  Biso   1.000  C
  H13      1.0000 0.47780  0.41510  0.98440  Biso   1.000  H
  C38      1.0000 0.55780  0.23260  0.79290  Biso   1.000  C
  C39      1.0000 0.52600  0.21530  0.81370  Biso   1.000  C
  O17      1.0000 0.52630  0.24350  0.84190  Biso   1.000  O
  O18      1.0000 0.50110  0.17950  0.80520  Biso   1.000  O
  C40      1.0000 0.56080  0.20430  0.76190  Biso   1.000  C
  H14      1.0000 0.54240  0.17630  0.75480  Biso   1.000  H
  C41      1.0000 0.59180  0.21970  0.74260  Biso   1.000  C
  C42      1.0000 0.59440  0.19090  0.70920  Biso   1.000  C
  O19      1.0000 0.56460  0.16320  0.69870  Biso   1.000  O
  O20      1.0000 0.62450  0.19840  0.69270  Biso   1.000  O
  C43      1.0000 0.61960  0.25840  0.75220  Biso   1.000  C
  H15      1.0000 0.64150  0.26650  0.74010  Biso   1.000  H
  C44      1.0000 0.61260  0.28500  0.78200  Biso   1.000  C
  C45      1.0000 0.64180  0.32100  0.79200  Biso   1.000  C
  N5       1.0000 0.66270  0.35900  0.80020  Biso   1.000  N
  C46      1.0000 0.58520  0.27260  0.80320  Biso   1.000  C
  H16      1.0000 0.58470  0.29010  0.82380  Biso   1.000  H
  C47      1.0000 0.45190  0.94740  0.82900  Biso   1.000  C
  C48      1.0000 0.44950  0.01540  0.83150  Biso   1.000  C
  O21      1.0000 0.46640  0.04940  0.81150  Biso   1.000  O
  O22      1.0000 0.43040  0.03790  0.85440  Biso   1.000  O
  C49      1.0000 0.43510  0.91110  0.85070  Biso   1.000  C
  H17      1.0000 0.42160  0.92900  0.86770  Biso   1.000  H
  C50      1.0000 0.43720  0.84490  0.84850  Biso   1.000  C
  C51      1.0000 0.41530  0.80660  0.87260  Biso   1.000  C
  O23      1.0000 0.40110  0.82960  0.89770  Biso   1.000  O
  O24      1.0000 0.41390  0.75000  0.86600  Biso   1.000  O
  C52      1.0000 0.45530  0.82150  0.82300  Biso   1.000  C
  H18      1.0000 0.45540  0.77880  0.82020  Biso   1.000  H
  C53      1.0000 0.47400  0.85870  0.80020  Biso   1.000  C
  C54      1.0000 0.49500  0.83230  0.77370  Biso   1.000  C
  N6       1.0000 0.51250  0.81390  0.75170  Biso   1.000  N
  C55      1.0000 0.47120  0.92060  0.80340  Biso   1.000  C
  H19      1.0000 0.48250  0.94600  0.78790  Biso   1.000  H
  C56      1.0000 0.24180  0.02940  0.93400  Biso   1.000  C
  C57      1.0000 0.26430  0.02140  0.96480  Biso   1.000  C
  O25      1.0000 0.25660  0.05490  0.98850  Biso   1.000  O
  O26      1.0000 0.28840  0.97450  0.96580  Biso   1.000  O
  C58      1.0000 0.21880  0.07860  0.93130  Biso   1.000  C
  H20      1.0000 0.21540  0.10520  0.94880  Biso   1.000  H
  C59      1.0000 0.20040  0.08960  0.90300  Biso   1.000  C
  C60      1.0000 0.17360  0.14530  0.89830  Biso   1.000  C
  O27      1.0000 0.17270  0.18180  0.92110  Biso   1.000  O
  O28      1.0000 0.15430  0.15160  0.87260  Biso   1.000  O
  C61      1.0000 0.20480  0.05040  0.87520  Biso   1.000  C
  H21      1.0000 0.19280  0.05940  0.85570  Biso   1.000  H
  C62      1.0000 0.22780  0.99900  0.87860  Biso   1.000  C
  C63      1.0000 0.23470  0.95940  0.85140  Biso   1.000  C
  N7       1.0000 0.23950  0.92780  0.83090  Biso   1.000  N
  C64      1.0000 0.24760  0.99250  0.90720  Biso   1.000  C
  H22      1.0000 0.26600  0.96150  0.90860  Biso   1.000  H
  C65      1.0000 0.41730  0.35070  0.83510  Biso   1.000  C
  C66      1.0000 0.44640  0.30710  0.85110  Biso   1.000  C
  O29      1.0000 0.47180  0.32800  0.86820  Biso   1.000  O
  O30      1.0000 0.44040  0.25050  0.84290  Biso   1.000  O
  C67      1.0000 0.41980  0.41400  0.84130  Biso   1.000  C
  H23      1.0000 0.43970  0.42840  0.85420  Biso   1.000  H
  C68      1.0000 0.39470  0.45490  0.82930  Biso   1.000  C
  C69      1.0000 0.39920  0.52200  0.83600  Biso   1.000  C
  O31      1.0000 0.42510  0.54000  0.85430  Biso   1.000  O
  O32      1.0000 0.37540  0.56140  0.82370  Biso   1.000  O
  C70      1.0000 0.36520  0.43480  0.81030  Biso   1.000  C
  H24      1.0000 0.34860  0.46350  0.80100  Biso   1.000  H
  C71      1.0000 0.35950  0.37130  0.80450  Biso   1.000  C
  C72      1.0000 0.32720  0.34700  0.78400  Biso   1.000  C
  N8       1.0000 0.30380  0.32930  0.76740  Biso   1.000  N
  O33      1.0000 0.28970  0.79470  0.94630  Biso   1.000  O
  C73      1.0000 0.26220  0.76610  0.96010  Biso   1.000  C
  H25      1.0000 0.26600  0.72640  0.96810  Biso   1.000  H
  N9       1.0000 0.22990  0.79110  0.96280  Biso   1.000  N
  C74      1.0000 0.21980  0.85550  0.95630  Biso   1.000  C
  H26      1.0000 0.20140  0.86930  0.97190  Biso   1.000  H
  H27      1.0000 0.20920  0.85880  0.93500  Biso   1.000  H
  H28      1.0000 0.24240  0.88080  0.95780  Biso   1.000  H
  C75      1.0000 0.19840  0.75260  0.97800  Biso   1.000  C
  H29      1.0000 0.20950  0.72250  0.99230  Biso   1.000  H
  H30      1.0000 0.18430  0.73190  0.96130  Biso   1.000  H
  H31      1.0000 0.18150  0.77900  0.99000  Biso   1.000  H
  O34      1.0000 0.41030  0.94510  0.97330  Biso   1.000  O
  C76      1.0000 0.43420  0.98500  0.97410  Biso   1.000  C
  H32      1.0000 0.43510  0.00360  0.99430  Biso   1.000  H
  N10      1.0000 0.45880  0.00890  0.95490  Biso   1.000  N
  C77      1.0000 0.48700  0.05720  0.96080  Biso   1.000  C
  H33      1.0000 0.48800  0.08460  0.94260  Biso   1.000  H
  H34      1.0000 0.51170  0.03860  0.96400  Biso   1.000  H
  H35      1.0000 0.48010  0.08010  0.97990  Biso   1.000  H
  C78      1.0000 0.46120  0.98170  0.92310  Biso   1.000  C
  H36      1.0000 0.44120  0.95160  0.92060  Biso   1.000  H
  H37      1.0000 0.48560  0.96200  0.92060  Biso   1.000  H
  H38      1.0000 0.45830  0.01340  0.90700  Biso   1.000  H
  O35      1.0000 0.20950  0.04570  0.04350  Biso   1.000  O
  C79      1.0000 0.18610  0.07120  0.02520  Biso   1.000  C
  H39      1.0000 0.18800  0.11390  0.02310  Biso   1.000  H
  N11      1.0000 0.15760  0.04260  0.00760  Biso   1.000  N
  C80      1.0000 0.12900  0.07880  0.98870  Biso   1.000  C
  H40      1.0000 0.10640  0.08460  0.00150  Biso   1.000  H
  H41      1.0000 0.12270  0.05670  0.96920  Biso   1.000  H
  H42      1.0000 0.13970  0.11830  0.98310  Biso   1.000  H
  C81      1.0000 0.14780  0.97210  0.01160  Biso   1.000  C
  H43      1.0000 0.17090  0.94820  0.01040  Biso   1.000  H
  H44      1.0000 0.13070  0.95950  0.99460  Biso   1.000  H
  H45      1.0000 0.13580  0.96550  0.03220  Biso   1.000  H
  O36      1.0000 0.54950  0.37000  0.87700  Biso   1.000  O
  C82      1.0000 0.53300  0.42020  0.87520  Biso   1.000  C
  H46      1.0000 0.50810  0.42330  0.88290  Biso   1.000  H
  N12      1.0000 0.54940  0.46940  0.86290  Biso   1.000  N
  C83      1.0000 0.52870  0.52760  0.86370  Biso   1.000  C
  H47      1.0000 0.51370  0.53160  0.84430  Biso   1.000  H
  H48      1.0000 0.54650  0.56120  0.86500  Biso   1.000  H
  H49      1.0000 0.51210  0.52830  0.88220  Biso   1.000  H
  C84      1.0000 0.58900  0.46400  0.85210  Biso   1.000  C
  H50      1.0000 0.58970  0.46350  0.82890  Biso   1.000  H
  H51      1.0000 0.59990  0.42680  0.86050  Biso   1.000  H
  H52      1.0000 0.60330  0.49910  0.85990  Biso   1.000  H
  O37      1.0000 0.42260  0.15980  0.78630  Biso   1.000  O
  C85      1.0000 0.41990  0.20180  0.76730  Biso   1.000  C
  H53      1.0000 0.44210  0.22550  0.76690  Biso   1.000  H
  N13      1.0000 0.39510  0.22290  0.74740  Biso   1.000  N
  C86      1.0000 0.39430  0.28170  0.73030  Biso   1.000  C
  H54      1.0000 0.41490  0.30730  0.73780  Biso   1.000  H
  H55      1.0000 0.37040  0.30220  0.73440  Biso   1.000  H
  H56      1.0000 0.39710  0.27460  0.70750  Biso   1.000  H
  C87      1.0000 0.36030  0.18600  0.74520  Biso   1.000  C
  H57      1.0000 0.33870  0.21310  0.74290  Biso   1.000  H
  H58      1.0000 0.35750  0.16180  0.76450  Biso   1.000  H
  H59      1.0000 0.36190  0.15930  0.72670  Biso   1.000  H
  O38      1.0000 0.38130  0.15010  0.84270  Biso   1.000  O
  C88      1.0000 0.36200  0.12320  0.86360  Biso   1.000  C
  H60      1.0000 0.36630  0.08120  0.86690  Biso   1.000  H
  N14      1.0000 0.33560  0.15110  0.88150  Biso   1.000  N
  C89      1.0000 0.31130  0.12920  0.90510  Biso   1.000  C
  H61      1.0000 0.28920  0.11110  0.89510  Biso   1.000  H
  H62      1.0000 0.30350  0.16280  0.91880  Biso   1.000  H
  H63      1.0000 0.32430  0.09860  0.91780  Biso   1.000  H
  C90      1.0000 0.33980  0.21700  0.87520  Biso   1.000  C
  H64      1.0000 0.36580  0.22900  0.87910  Biso   1.000  H
  H65      1.0000 0.32310  0.23970  0.88930  Biso   1.000  H
  H66      1.0000 0.33320  0.22540  0.85310  Biso   1.000  H
  O39      1.0000 0.52670  0.34360  0.13610  Biso   1.000  O
  C91      1.0000 0.49910  0.33310  0.15210  Biso   1.000  C
  H67      1.0000 0.50260  0.33770  0.17430  Biso   1.000  H
  N15      1.0000 0.46580  0.31670  0.14370  Biso   1.000  N
  C92      1.0000 0.45740  0.30900  0.10970  Biso   1.000  C
  H68      1.0000 0.43520  0.28360  0.10720  Biso   1.000  H
  H69      1.0000 0.47880  0.29040  0.09900  Biso   1.000  H
  H70      1.0000 0.45250  0.34920  0.10020  Biso   1.000  H
  C93      1.0000 0.43440  0.31100  0.16660  Biso   1.000  C
  H71      1.0000 0.43820  0.33980  0.18410  Biso   1.000  H
  H72      1.0000 0.43350  0.26990  0.17490  Biso   1.000  H
  H73      1.0000 0.41070  0.32050  0.15580  Biso   1.000  H
  O40      1.0000 0.59210  0.26720  0.89050  Biso   1.000  O
  C94      1.0000 0.62600  0.26100  0.89410  Biso   1.000  C
  H74      1.0000 0.63780  0.22370  0.88920  Biso   1.000  H
  N16      1.0000 0.64620  0.30800  0.90500  Biso   1.000  N
  C95      1.0000 0.68850  0.30700  0.90900  Biso   1.000  C
  H75      1.0000 0.70050  0.31440  0.88850  Biso   1.000  H
  H76      1.0000 0.69610  0.26670  0.91690  Biso   1.000  H
  H77      1.0000 0.69610  0.33790  0.92420  Biso   1.000  H
  C96      1.0000 0.62900  0.36900  0.91400  Biso   1.000  C
  H78      1.0000 0.62350  0.36860  0.93710  Biso   1.000  H
  H79      1.0000 0.60630  0.37580  0.90220  Biso   1.000  H
  H80      1.0000 0.64730  0.40130  0.90980  Biso   1.000  H
  O41      1.0000 0.32310  0.79450  0.88070  Biso   1.000  O
  C97      1.0000 0.31650  0.78530  0.85250  Biso   1.000  C
  H81      1.0000 0.33780  0.78440  0.83900  Biso   1.000  H
  N17      1.0000 0.28470  0.77670  0.83860  Biso   1.000  N
  C98      1.0000 0.28330  0.77900  0.80360  Biso   1.000  C
  H82      1.0000 0.30790  0.79070  0.79540  Biso   1.000  H
  H83      1.0000 0.26450  0.80830  0.79690  Biso   1.000  H
  H84      1.0000 0.27670  0.73860  0.79540  Biso   1.000  H
  C99      1.0000 0.25060  0.77800  0.85870  Biso   1.000  C
  H85      1.0000 0.23760  0.73930  0.85750  Biso   1.000  H
  H86      1.0000 0.23380  0.81050  0.85120  Biso   1.000  H
  H87      1.0000 0.25770  0.78650  0.88080  Biso   1.000  H
  O42      1.0000 0.26100  0.03460  0.09870  Biso   1.000  O
  O43      1.0000 0.34170  0.89000  0.93010  Biso   1.000  O
  C100     1.0000 0.34990  0.93900  0.91170  Biso   1.000  C
  H88      1.0000 0.35120  0.93520  0.88930  Biso   1.000  H
  O44      1.0000 0.35540  0.98610  0.92380  Biso   1.000  O
  O45      1.0000 0.36790  0.83350  0.98140  Biso   1.000  O
  C101     1.0000 0.35840  0.78540  0.99950  Biso   1.000  C
  H89      1.0000 0.35940  0.78920  0.02190  Biso   1.000  H
  O46      1.0000 0.34830  0.73600  0.98770  Biso   1.000  O
  Gd7      1.0000 0.22340  0.93752  0.54341  Biso   1.000  Gd
  Gd8      1.0000 0.97767  0.72427  0.39407  Biso   1.000  Gd
  Gd9      1.0000 0.05109  0.85458  0.33986  Biso   1.000  Gd
  Gd10     1.0000 0.90696  0.64699  0.64623  Biso   1.000  Gd
  Gd11     1.0000 0.14633  0.21973  0.42994  Biso   1.000  Gd
  Gd12     1.0000 0.15430  0.05993  0.48324  Biso   1.000  Gd
  C102     1.0000 0.22580  0.74320  0.56170  Biso   1.000  C
  C103     1.0000 0.22700  0.81190  0.55700  Biso   1.000  C
  O47      1.0000 0.25060  0.83290  0.53740  Biso   1.000  O
  O48      1.0000 0.20730  0.84470  0.57500  Biso   1.000  O
  C104     1.0000 0.25050  0.70510  0.54510  Biso   1.000  C
  H90      1.0000 0.26880  0.72250  0.53150  Biso   1.000  H
  C105     1.0000 0.24880  0.64070  0.54830  Biso   1.000  C
  C106     1.0000 0.27660  0.60020  0.53040  Biso   1.000  C
  O49      1.0000 0.27460  0.54210  0.53610  Biso   1.000  O
  O50      1.0000 0.30020  0.62520  0.51060  Biso   1.000  O
  C107     1.0000 0.22100  0.61390  0.56640  Biso   1.000  C
  H91      1.0000 0.21880  0.57100  0.56750  Biso   1.000  H
  C108     1.0000 0.19540  0.65270  0.58360  Biso   1.000  C
  C109     1.0000 0.16840  0.62610  0.60290  Biso   1.000  C
  N18      1.0000 0.14250  0.60670  0.61940  Biso   1.000  N
  C110     1.0000 0.11400  0.66920  0.31840  Biso   1.000  C
  H92      1.0000 0.11790  0.71160  0.31620  Biso   1.000  H
  C111     1.0000 0.19880  0.71570  0.58090  Biso   1.000  C
  H93      1.0000 0.18210  0.74070  0.59260  Biso   1.000  H
  C112     1.0000 0.12290  0.85040  0.48610  Biso   1.000  C
  C113     1.0000 0.15120  0.90000  0.49720  Biso   1.000  C
  O51      1.0000 0.17790  0.88480  0.51460  Biso   1.000  O
  O52      1.0000 0.14430  0.95410  0.48770  Biso   1.000  O
  C114     1.0000 0.10210  0.85710  0.45870  Biso   1.000  C
  H94      1.0000 0.10380  0.89320  0.44650  Biso   1.000  H
  C115     1.0000 0.07760  0.80870  0.44890  Biso   1.000  C
  C116     1.0000 0.05810  0.80960  0.41730  Biso   1.000  C
  O53      1.0000 0.03040  0.77110  0.41350  Biso   1.000  O
  O54      1.0000 0.06900  0.84600  0.39600  Biso   1.000  O
  C117     1.0000 0.07350  0.75870  0.46950  Biso   1.000  C
  H95      1.0000 0.05790  0.72600  0.46320  Biso   1.000  H
  C118     1.0000 0.09200  0.75540  0.49920  Biso   1.000  C
  C119     1.0000 0.09070  0.69980  0.51860  Biso   1.000  C
  N19      1.0000 0.08690  0.65680  0.53450  Biso   1.000  N
  C120     1.0000 0.11810  0.80150  0.50820  Biso   1.000  C
  H96      1.0000 0.13140  0.79990  0.52760  Biso   1.000  H
  C121     1.0000 0.94510  0.93360  0.38940  Biso   1.000  C
  C122     1.0000 0.96970  0.87620  0.38680  Biso   1.000  C
  O55      1.0000 0.95910  0.82970  0.40170  Biso   1.000  O
  O56      1.0000 0.99650  0.88150  0.36740  Biso   1.000  O
  C123     1.0000 0.91580  0.93680  0.41240  Biso   1.000  C
  H97      1.0000 0.91170  0.90280  0.42570  Biso   1.000  H
  C124     1.0000 0.89200  0.98940  0.41620  Biso   1.000  C
  C125     1.0000 0.86070  0.99040  0.43980  Biso   1.000  C
  O57      1.0000 0.86290  0.95070  0.46290  Biso   1.000  O
  O58      1.0000 0.83600  0.03070  0.43670  Biso   1.000  O
  C126     1.0000 0.89800  0.03940  0.39870  Biso   1.000  C
  H98      1.0000 0.88310  0.07450  0.40180  Biso   1.000  H
  C127     1.0000 0.92810  0.03930  0.37440  Biso   1.000  C
  C128     1.0000 0.93800  0.09800  0.36620  Biso   1.000  C
  N20      1.0000 0.94200  0.12900  0.34380  Biso   1.000  N
  C129     1.0000 0.95140  0.98330  0.37020  Biso   1.000  C
  H99      1.0000 0.97050  0.98210  0.35450  Biso   1.000  H
  C130     1.0000 0.97800  0.64720  0.49000  Biso   1.000  C
  C131     1.0000 0.97800  0.67170  0.45710  Biso   1.000  C
  O59      1.0000 0.00100  0.64920  0.43560  Biso   1.000  O
  O60      1.0000 0.95650  0.71610  0.44960  Biso   1.000  O
  C132     1.0000 0.95300  0.66800  0.51320  Biso   1.000  C
  H100     1.0000 0.93670  0.70040  0.50800  Biso   1.000  H
  C133     1.0000 0.95110  0.64350  0.54370  Biso   1.000  C
  C134     1.0000 0.92280  0.66730  0.56580  Biso   1.000  C
  O61      1.0000 0.91510  0.63330  0.59040  Biso   1.000  O
  O62      1.0000 0.90720  0.71940  0.56160  Biso   1.000  O
  C135     1.0000 0.97670  0.59800  0.55220  Biso   1.000  C
  H101     1.0000 0.97580  0.58130  0.57300  Biso   1.000  H
  C136     1.0000 0.00420  0.57650  0.53020  Biso   1.000  C
  C137     1.0000 0.03150  0.52770  0.54020  Biso   1.000  C
  N21      1.0000 0.05220  0.49130  0.54800  Biso   1.000  N
  C138     1.0000 0.00460  0.59990  0.49940  Biso   1.000  C
  H102     1.0000 0.02220  0.58490  0.48440  Biso   1.000  H
  C139     1.0000 0.94220  0.76740  0.29290  Biso   1.000  C
  C140     1.0000 0.97400  0.78470  0.31370  Biso   1.000  C
  O63      1.0000 0.97370  0.75650  0.34190  Biso   1.000  O
  O64      1.0000 0.99890  0.82050  0.30520  Biso   1.000  O
  C141     1.0000 0.93920  0.79570  0.26190  Biso   1.000  C
  H103     1.0000 0.95760  0.82370  0.25480  Biso   1.000  H
  C142     1.0000 0.90820  0.78030  0.24260  Biso   1.000  C
  C143     1.0000 0.90560  0.80910  0.20920  Biso   1.000  C
  O65      1.0000 0.93540  0.83680  0.19870  Biso   1.000  O
  O66      1.0000 0.87550  0.80160  0.19270  Biso   1.000  O
  C144     1.0000 0.88040  0.74160  0.25220  Biso   1.000  C
  H104     1.0000 0.85850  0.73350  0.24010  Biso   1.000  H
  C145     1.0000 0.88740  0.71500  0.28200  Biso   1.000  C
  C146     1.0000 0.85820  0.67900  0.29200  Biso   1.000  C
  N22      1.0000 0.83730  0.64100  0.30020  Biso   1.000  N
  C147     1.0000 0.91480  0.72740  0.30320  Biso   1.000  C
  H105     1.0000 0.91530  0.70990  0.32380  Biso   1.000  H
  C148     1.0000 0.04810  0.05260  0.32900  Biso   1.000  C
  C149     1.0000 0.05050  0.98460  0.33150  Biso   1.000  C
  O67      1.0000 0.03360  0.95060  0.31150  Biso   1.000  O
  O68      1.0000 0.06960  0.96210  0.35440  Biso   1.000  O
  C150     1.0000 0.06490  0.08890  0.35070  Biso   1.000  C
  H106     1.0000 0.07840  0.07100  0.36770  Biso   1.000  H
  C151     1.0000 0.06280  0.15510  0.34850  Biso   1.000  C
  C152     1.0000 0.08470  0.19340  0.37260  Biso   1.000  C
  O69      1.0000 0.09890  0.17040  0.39770  Biso   1.000  O
  O70      1.0000 0.08610  0.25000  0.36600  Biso   1.000  O
  C153     1.0000 0.04470  0.17850  0.32300  Biso   1.000  C
  H107     1.0000 0.04460  0.22120  0.32020  Biso   1.000  H
  C154     1.0000 0.02600  0.14130  0.30020  Biso   1.000  C
  C155     1.0000 0.00500  0.16770  0.27370  Biso   1.000  C
  N23      1.0000 0.98750  0.18610  0.25170  Biso   1.000  N
  C156     1.0000 0.02880  0.07940  0.30340  Biso   1.000  C
  H108     1.0000 0.01750  0.05400  0.28790  Biso   1.000  H
  C157     1.0000 0.25820  0.97060  0.43400  Biso   1.000  C
  C158     1.0000 0.23570  0.97860  0.46480  Biso   1.000  C
  O71      1.0000 0.24340  0.94510  0.48850  Biso   1.000  O
  O72      1.0000 0.21160  0.02550  0.46580  Biso   1.000  O
  C159     1.0000 0.28120  0.92140  0.43130  Biso   1.000  C
  H109     1.0000 0.28460  0.89480  0.44880  Biso   1.000  H
  C160     1.0000 0.29960  0.91040  0.40300  Biso   1.000  C
  C161     1.0000 0.32640  0.85470  0.39830  Biso   1.000  C
  O73      1.0000 0.32730  0.81820  0.42110  Biso   1.000  O
  O74      1.0000 0.34570  0.84840  0.37260  Biso   1.000  O
  C162     1.0000 0.29520  0.94960  0.37520  Biso   1.000  C
  H110     1.0000 0.30720  0.94060  0.35570  Biso   1.000  H
  C163     1.0000 0.27220  0.00100  0.37860  Biso   1.000  C
  C164     1.0000 0.26530  0.04060  0.35140  Biso   1.000  C
  N24      1.0000 0.26050  0.07220  0.33090  Biso   1.000  N
  C165     1.0000 0.25240  0.00750  0.40720  Biso   1.000  C
  H111     1.0000 0.23400  0.03850  0.40860  Biso   1.000  H
  C166     1.0000 0.08270  0.64930  0.33510  Biso   1.000  C
  C167     1.0000 0.05360  0.69290  0.35110  Biso   1.000  C
  O75      1.0000 0.02820  0.67200  0.36820  Biso   1.000  O
  O76      1.0000 0.05960  0.74950  0.34290  Biso   1.000  O
  C168     1.0000 0.08020  0.58600  0.34130  Biso   1.000  C
  H112     1.0000 0.06030  0.57160  0.35420  Biso   1.000  H
  C169     1.0000 0.10530  0.54510  0.32930  Biso   1.000  C
  C170     1.0000 0.10080  0.47800  0.33600  Biso   1.000  C
  O77      1.0000 0.07490  0.46000  0.35430  Biso   1.000  O
  O78      1.0000 0.12460  0.43860  0.32370  Biso   1.000  O
  C171     1.0000 0.13480  0.56520  0.31030  Biso   1.000  C
  H113     1.0000 0.15140  0.53650  0.30100  Biso   1.000  H
  C172     1.0000 0.14050  0.62870  0.30450  Biso   1.000  C
  C173     1.0000 0.17280  0.65300  0.28400  Biso   1.000  C
  N25      1.0000 0.19620  0.67070  0.26740  Biso   1.000  N
  O79      1.0000 0.21030  0.20530  0.44630  Biso   1.000  O
  C174     1.0000 0.23780  0.23390  0.46010  Biso   1.000  C
  H114     1.0000 0.23400  0.27360  0.46810  Biso   1.000  H
  N26      1.0000 0.27010  0.20890  0.46280  Biso   1.000  N
  C175     1.0000 0.28020  0.14450  0.45630  Biso   1.000  C
  H115     1.0000 0.29860  0.13070  0.47190  Biso   1.000  H
  H116     1.0000 0.29080  0.14120  0.43500  Biso   1.000  H
  H117     1.0000 0.25760  0.11920  0.45780  Biso   1.000  H
  C176     1.0000 0.30160  0.24740  0.47800  Biso   1.000  C
  H118     1.0000 0.29050  0.27750  0.49230  Biso   1.000  H
  H119     1.0000 0.31570  0.26810  0.46130  Biso   1.000  H
  H120     1.0000 0.31850  0.22100  0.49000  Biso   1.000  H
  O80      1.0000 0.08970  0.05490  0.47330  Biso   1.000  O
  C177     1.0000 0.06580  0.01500  0.47410  Biso   1.000  C
  H121     1.0000 0.06490  0.99640  0.49430  Biso   1.000  H
  N27      1.0000 0.04120  0.99110  0.45490  Biso   1.000  N
  C178     1.0000 0.01300  0.94280  0.46080  Biso   1.000  C
  H122     1.0000 0.01200  0.91540  0.44260  Biso   1.000  H
  H123     1.0000 0.98830  0.96140  0.46400  Biso   1.000  H
  H124     1.0000 0.01990  0.91990  0.47990  Biso   1.000  H
  C179     1.0000 0.03880  0.01830  0.42310  Biso   1.000  C
  H125     1.0000 0.05880  0.04840  0.42060  Biso   1.000  H
  H126     1.0000 0.01440  0.03800  0.42060  Biso   1.000  H
  H127     1.0000 0.04170  0.98660  0.40700  Biso   1.000  H
  O81      1.0000 0.29050  0.95430  0.54350  Biso   1.000  O
  C180     1.0000 0.31390  0.92880  0.52520  Biso   1.000  C
  H128     1.0000 0.31200  0.88610  0.52310  Biso   1.000  H
  N28      1.0000 0.34240  0.95740  0.50760  Biso   1.000  N
  C181     1.0000 0.37100  0.92120  0.48870  Biso   1.000  C
  H129     1.0000 0.39360  0.91540  0.50150  Biso   1.000  H
  H130     1.0000 0.37730  0.94330  0.46920  Biso   1.000  H
  H131     1.0000 0.36030  0.88170  0.48310  Biso   1.000  H
  C182     1.0000 0.35220  0.02790  0.51160  Biso   1.000  C
  H132     1.0000 0.32910  0.05180  0.51040  Biso   1.000  H
  H133     1.0000 0.36930  0.04050  0.49460  Biso   1.000  H
  H134     1.0000 0.36420  0.03450  0.53220  Biso   1.000  H
  O82      1.0000 0.95050  0.63000  0.37700  Biso   1.000  O
  C183     1.0000 0.96700  0.57980  0.37520  Biso   1.000  C
  H135     1.0000 0.99190  0.57670  0.38290  Biso   1.000  H
  N29      1.0000 0.95060  0.53060  0.36290  Biso   1.000  N
  C184     1.0000 0.97130  0.47240  0.36370  Biso   1.000  C
  H136     1.0000 0.98630  0.46840  0.34430  Biso   1.000  H
  H137     1.0000 0.95350  0.43880  0.36500  Biso   1.000  H
  H138     1.0000 0.98790  0.47170  0.38220  Biso   1.000  H
  C185     1.0000 0.91100  0.53600  0.35210  Biso   1.000  C
  H139     1.0000 0.91030  0.53650  0.32890  Biso   1.000  H
  H140     1.0000 0.90010  0.57320  0.36050  Biso   1.000  H
  H141     1.0000 0.89670  0.50090  0.35990  Biso   1.000  H
  O83      1.0000 0.07740  0.84020  0.28630  Biso   1.000  O
  C186     1.0000 0.08010  0.79820  0.26730  Biso   1.000  C
  H142     1.0000 0.05790  0.77450  0.26690  Biso   1.000  H
  N30      1.0000 0.10490  0.77710  0.24740  Biso   1.000  N
  C187     1.0000 0.10570  0.71830  0.23030  Biso   1.000  C
  H143     1.0000 0.08510  0.69270  0.23780  Biso   1.000  H
  H144     1.0000 0.12960  0.69780  0.23440  Biso   1.000  H
  H145     1.0000 0.10290  0.72540  0.20750  Biso   1.000  H
  C188     1.0000 0.13970  0.81400  0.24520  Biso   1.000  C
  H146     1.0000 0.16130  0.78690  0.24290  Biso   1.000  H
  H147     1.0000 0.14250  0.83820  0.26450  Biso   1.000  H
  H148     1.0000 0.13810  0.84070  0.22670  Biso   1.000  H
  O84      1.0000 0.11870  0.84990  0.34270  Biso   1.000  O
  C189     1.0000 0.13800  0.87680  0.36360  Biso   1.000  C
  H149     1.0000 0.13370  0.91880  0.36690  Biso   1.000  H
  N31      1.0000 0.16440  0.84890  0.38150  Biso   1.000  N
  C190     1.0000 0.18870  0.87080  0.40510  Biso   1.000  C
  H150     1.0000 0.21080  0.88890  0.39510  Biso   1.000  H
  H151     1.0000 0.19650  0.83720  0.41880  Biso   1.000  H
  H152     1.0000 0.17570  0.90140  0.41780  Biso   1.000  H
  C191     1.0000 0.16020  0.78300  0.37520  Biso   1.000  C
  H153     1.0000 0.13420  0.77100  0.37910  Biso   1.000  H
  H154     1.0000 0.17690  0.76030  0.38930  Biso   1.000  H
  H155     1.0000 0.16680  0.77460  0.35310  Biso   1.000  H
  O85      1.0000 0.97330  0.65640  0.63610  Biso   1.000  O
  C192     1.0000 0.00090  0.66690  0.65210  Biso   1.000  C
  H156     1.0000 0.99740  0.66230  0.67430  Biso   1.000  H
  N32      1.0000 0.03420  0.68330  0.64370  Biso   1.000  N
  C193     1.0000 0.04260  0.69100  0.60970  Biso   1.000  C
  H157     1.0000 0.06480  0.71640  0.60720  Biso   1.000  H
  H158     1.0000 0.02120  0.70960  0.59900  Biso   1.000  H
  H159     1.0000 0.04750  0.65080  0.60020  Biso   1.000  H
  C194     1.0000 0.06560  0.68900  0.66660  Biso   1.000  C
  H160     1.0000 0.06180  0.66020  0.68410  Biso   1.000  H
  H161     1.0000 0.06650  0.73010  0.67490  Biso   1.000  H
  H162     1.0000 0.08930  0.67950  0.65580  Biso   1.000  H
  O86      1.0000 0.90790  0.73280  0.39050  Biso   1.000  O
  C195     1.0000 0.87400  0.73900  0.39410  Biso   1.000  C
  H163     1.0000 0.86220  0.77630  0.38920  Biso   1.000  H
  N33      1.0000 0.85380  0.69200  0.40500  Biso   1.000  N
  C196     1.0000 0.81150  0.69300  0.40900  Biso   1.000  C
  H164     1.0000 0.79950  0.68560  0.38850  Biso   1.000  H
  H165     1.0000 0.80390  0.73330  0.41690  Biso   1.000  H
  H166     1.0000 0.80390  0.66210  0.42420  Biso   1.000  H
  C197     1.0000 0.87100  0.63100  0.41400  Biso   1.000  C
  H167     1.0000 0.87650  0.63140  0.43710  Biso   1.000  H
  H168     1.0000 0.89370  0.62420  0.40220  Biso   1.000  H
  H169     1.0000 0.85270  0.59870  0.40980  Biso   1.000  H
  O87      1.0000 0.17690  0.20550  0.38070  Biso   1.000  O
  C198     1.0000 0.18350  0.21470  0.35250  Biso   1.000  C
  H170     1.0000 0.16220  0.21560  0.33900  Biso   1.000  H
  N34      1.0000 0.21530  0.22330  0.33860  Biso   1.000  N
  C199     1.0000 0.21670  0.22100  0.30360  Biso   1.000  C
  H171     1.0000 0.19210  0.20930  0.29540  Biso   1.000  H
  H172     1.0000 0.23550  0.19170  0.29690  Biso   1.000  H
  H173     1.0000 0.22330  0.26140  0.29540  Biso   1.000  H
  C200     1.0000 0.24940  0.22200  0.35870  Biso   1.000  C
  H174     1.0000 0.26240  0.26070  0.35750  Biso   1.000  H
  H175     1.0000 0.26620  0.18950  0.35120  Biso   1.000  H
  H176     1.0000 0.24230  0.21350  0.38080  Biso   1.000  H
  O88      1.0000 0.23900  0.96540  0.59870  Biso   1.000  O
  O89      1.0000 0.15830  0.11000  0.43010  Biso   1.000  O
  C201     1.0000 0.15010  0.06100  0.41170  Biso   1.000  C
  H177     1.0000 0.14880  0.06480  0.38930  Biso   1.000  H
  O90      1.0000 0.14460  0.01390  0.42380  Biso   1.000  O
  O91      1.0000 0.13210  0.16650  0.48140  Biso   1.000  O
  C202     1.0000 0.14160  0.21460  0.49950  Biso   1.000  C
  H178     1.0000 0.14060  0.21080  0.52190  Biso   1.000  H
  O92      1.0000 0.15170  0.26400  0.48770  Biso   1.000  O
  Gd13     1.0000 0.72340  0.56248  0.45659  Biso   1.000  Gd
  Gd14     1.0000 0.47767  0.77573  0.60593  Biso   1.000  Gd
  Gd15     1.0000 0.55109  0.64542  0.66014  Biso   1.000  Gd
  Gd16     1.0000 0.40696  0.85301  0.35377  Biso   1.000  Gd
  Gd17     1.0000 0.64633  0.28027  0.57006  Biso   1.000  Gd
  Gd18     1.0000 0.65430  0.44007  0.51676  Biso   1.000  Gd
  C203     1.0000 0.72580  0.75680  0.43830  Biso   1.000  C
  C204     1.0000 0.72700  0.68810  0.44300  Biso   1.000  C
  O93      1.0000 0.75060  0.66710  0.46260  Biso   1.000  O
  O94      1.0000 0.70730  0.65530  0.42500  Biso   1.000  O
  C205     1.0000 0.75050  0.79490  0.45490  Biso   1.000  C
  H179     1.0000 0.76880  0.77750  0.46850  Biso   1.000  H
  C206     1.0000 0.74880  0.85930  0.45170  Biso   1.000  C
  C207     1.0000 0.77660  0.89980  0.46960  Biso   1.000  C
  O95      1.0000 0.77460  0.95790  0.46390  Biso   1.000  O
  O96      1.0000 0.80020  0.87480  0.48940  Biso   1.000  O
  C208     1.0000 0.72100  0.88610  0.43360  Biso   1.000  C
  H180     1.0000 0.71880  0.92900  0.43250  Biso   1.000  H
  C209     1.0000 0.69540  0.84730  0.41640  Biso   1.000  C
  C210     1.0000 0.66840  0.87390  0.39710  Biso   1.000  C
  N35      1.0000 0.64250  0.89330  0.38060  Biso   1.000  N
  C211     1.0000 0.61400  0.83080  0.68160  Biso   1.000  C
  H181     1.0000 0.61790  0.78840  0.68380  Biso   1.000  H
  C212     1.0000 0.69880  0.78430  0.41910  Biso   1.000  C
  H182     1.0000 0.68210  0.75930  0.40740  Biso   1.000  H
  C213     1.0000 0.62290  0.64960  0.51390  Biso   1.000  C
  C214     1.0000 0.65120  0.60000  0.50280  Biso   1.000  C
  O97      1.0000 0.67790  0.61520  0.48540  Biso   1.000  O
  O98      1.0000 0.64430  0.54590  0.51230  Biso   1.000  O
  C215     1.0000 0.60210  0.64290  0.54130  Biso   1.000  C
  H183     1.0000 0.60380  0.60680  0.55350  Biso   1.000  H
  C216     1.0000 0.57760  0.69130  0.55110  Biso   1.000  C
  C217     1.0000 0.55810  0.69040  0.58270  Biso   1.000  C
  O99      1.0000 0.53040  0.72890  0.58650  Biso   1.000  O
  O100     1.0000 0.56900  0.65400  0.60400  Biso   1.000  O
  C218     1.0000 0.57350  0.74130  0.53050  Biso   1.000  C
  H184     1.0000 0.55790  0.77400  0.53680  Biso   1.000  H
  C219     1.0000 0.59200  0.74460  0.50080  Biso   1.000  C
  C220     1.0000 0.59070  0.80020  0.48140  Biso   1.000  C
  N36      1.0000 0.58690  0.84320  0.46550  Biso   1.000  N
  C221     1.0000 0.61810  0.69850  0.49180  Biso   1.000  C
  H185     1.0000 0.63140  0.70010  0.47240  Biso   1.000  H
  C222     1.0000 0.44510  0.56640  0.61060  Biso   1.000  C
  C223     1.0000 0.46970  0.62380  0.61320  Biso   1.000  C
  O101     1.0000 0.45910  0.67030  0.59830  Biso   1.000  O
  O102     1.0000 0.49650  0.61850  0.63260  Biso   1.000  O
  C224     1.0000 0.41580  0.56320  0.58760  Biso   1.000  C
  H186     1.0000 0.41170  0.59720  0.57430  Biso   1.000  H
  C225     1.0000 0.39200  0.51060  0.58380  Biso   1.000  C
  C226     1.0000 0.36070  0.50960  0.56020  Biso   1.000  C
  O103     1.0000 0.36290  0.54930  0.53710  Biso   1.000  O
  O104     1.0000 0.33600  0.46930  0.56330  Biso   1.000  O
  C227     1.0000 0.39800  0.46060  0.60130  Biso   1.000  C
  H187     1.0000 0.38310  0.42550  0.59820  Biso   1.000  H
  C228     1.0000 0.42810  0.46070  0.62560  Biso   1.000  C
  C229     1.0000 0.43800  0.40200  0.63380  Biso   1.000  C
  N37      1.0000 0.44200  0.37100  0.65620  Biso   1.000  N
  C230     1.0000 0.45140  0.51670  0.62980  Biso   1.000  C
  H188     1.0000 0.47050  0.51790  0.64550  Biso   1.000  H
  C231     1.0000 0.47800  0.85280  0.51000  Biso   1.000  C
  C232     1.0000 0.47800  0.82830  0.54290  Biso   1.000  C
  O105     1.0000 0.50100  0.85080  0.56440  Biso   1.000  O
  O106     1.0000 0.45650  0.78390  0.55040  Biso   1.000  O
  C233     1.0000 0.45300  0.83200  0.48680  Biso   1.000  C
  H189     1.0000 0.43670  0.79960  0.49200  Biso   1.000  H
  C234     1.0000 0.45110  0.85650  0.45630  Biso   1.000  C
  C235     1.0000 0.42280  0.83270  0.43420  Biso   1.000  C
  O107     1.0000 0.41510  0.86670  0.40960  Biso   1.000  O
  O108     1.0000 0.40720  0.78060  0.43840  Biso   1.000  O
  C236     1.0000 0.47670  0.90200  0.44780  Biso   1.000  C
  H190     1.0000 0.47580  0.91870  0.42700  Biso   1.000  H
  C237     1.0000 0.50420  0.92350  0.46980  Biso   1.000  C
  C238     1.0000 0.53150  0.97230  0.45980  Biso   1.000  C
  N38      1.0000 0.55220  0.00870  0.45200  Biso   1.000  N
  C239     1.0000 0.50460  0.90010  0.50060  Biso   1.000  C
  H191     1.0000 0.52220  0.91510  0.51560  Biso   1.000  H
  C240     1.0000 0.44220  0.73260  0.70710  Biso   1.000  C
  C241     1.0000 0.47400  0.71530  0.68630  Biso   1.000  C
  O109     1.0000 0.47370  0.74350  0.65810  Biso   1.000  O
  O110     1.0000 0.49890  0.67950  0.69480  Biso   1.000  O
  C242     1.0000 0.43920  0.70430  0.73810  Biso   1.000  C
  H192     1.0000 0.45760  0.67630  0.74520  Biso   1.000  H
  C243     1.0000 0.40820  0.71970  0.75740  Biso   1.000  C
  C244     1.0000 0.40560  0.69090  0.79080  Biso   1.000  C
  O111     1.0000 0.43540  0.66320  0.80130  Biso   1.000  O
  O112     1.0000 0.37550  0.69840  0.80730  Biso   1.000  O
  C245     1.0000 0.38040  0.75840  0.74780  Biso   1.000  C
  H193     1.0000 0.35850  0.76650  0.75990  Biso   1.000  H
  C246     1.0000 0.38740  0.78500  0.71800  Biso   1.000  C
  C247     1.0000 0.35820  0.82100  0.70800  Biso   1.000  C
  N39      1.0000 0.33730  0.85900  0.69980  Biso   1.000  N
  C248     1.0000 0.41480  0.77260  0.69680  Biso   1.000  C
  H194     1.0000 0.41530  0.79010  0.67620  Biso   1.000  H
  C249     1.0000 0.54810  0.44740  0.67100  Biso   1.000  C
  C250     1.0000 0.55050  0.51540  0.66850  Biso   1.000  C
  O113     1.0000 0.53360  0.54940  0.68850  Biso   1.000  O
  O114     1.0000 0.56960  0.53790  0.64560  Biso   1.000  O
  C251     1.0000 0.56490  0.41110  0.64930  Biso   1.000  C
  H195     1.0000 0.57840  0.42900  0.63230  Biso   1.000  H
  C252     1.0000 0.56280  0.34490  0.65150  Biso   1.000  C
  C253     1.0000 0.58470  0.30660  0.62740  Biso   1.000  C
  O115     1.0000 0.59890  0.32960  0.60230  Biso   1.000  O
  O116     1.0000 0.58610  0.25000  0.63400  Biso   1.000  O
  C254     1.0000 0.54470  0.32150  0.67700  Biso   1.000  C
  H196     1.0000 0.54460  0.27880  0.67980  Biso   1.000  H
  C255     1.0000 0.52600  0.35870  0.69980  Biso   1.000  C
  C256     1.0000 0.50500  0.33230  0.72630  Biso   1.000  C
  N40      1.0000 0.48750  0.31390  0.74830  Biso   1.000  N
  C257     1.0000 0.52880  0.42060  0.69660  Biso   1.000  C
  H197     1.0000 0.51750  0.44600  0.71210  Biso   1.000  H
  C258     1.0000 0.75820  0.52940  0.56600  Biso   1.000  C
  C259     1.0000 0.73570  0.52140  0.53520  Biso   1.000  C
  O117     1.0000 0.74340  0.55490  0.51150  Biso   1.000  O
  O118     1.0000 0.71160  0.47450  0.53420  Biso   1.000  O
  C260     1.0000 0.78120  0.57860  0.56870  Biso   1.000  C
  H198     1.0000 0.78460  0.60520  0.55120  Biso   1.000  H
  C261     1.0000 0.79960  0.58960  0.59700  Biso   1.000  C
  C262     1.0000 0.82640  0.64530  0.60170  Biso   1.000  C
  O119     1.0000 0.82730  0.68180  0.57890  Biso   1.000  O
  O120     1.0000 0.84570  0.65160  0.62740  Biso   1.000  O
  C263     1.0000 0.79520  0.55040  0.62480  Biso   1.000  C
  H199     1.0000 0.80720  0.55940  0.64430  Biso   1.000  H
  C264     1.0000 0.77220  0.49900  0.62140  Biso   1.000  C
  C265     1.0000 0.76530  0.45940  0.64860  Biso   1.000  C
  N41      1.0000 0.76050  0.42780  0.66910  Biso   1.000  N
  C266     1.0000 0.75240  0.49250  0.59280  Biso   1.000  C
  H200     1.0000 0.73400  0.46150  0.59140  Biso   1.000  H
  C267     1.0000 0.58270  0.85070  0.66490  Biso   1.000  C
  C268     1.0000 0.55360  0.80710  0.64890  Biso   1.000  C
  O121     1.0000 0.52820  0.82800  0.63180  Biso   1.000  O
  O122     1.0000 0.55960  0.75050  0.65710  Biso   1.000  O
  C269     1.0000 0.58020  0.91400  0.65870  Biso   1.000  C
  H201     1.0000 0.56030  0.92840  0.64580  Biso   1.000  H
  C270     1.0000 0.60530  0.95490  0.67070  Biso   1.000  C
  C271     1.0000 0.60080  0.02200  0.66400  Biso   1.000  C
  O123     1.0000 0.57490  0.04000  0.64570  Biso   1.000  O
  O124     1.0000 0.62460  0.06140  0.67630  Biso   1.000  O
  C272     1.0000 0.63480  0.93480  0.68970  Biso   1.000  C
  H202     1.0000 0.65140  0.96350  0.69900  Biso   1.000  H
  C273     1.0000 0.64050  0.87130  0.69550  Biso   1.000  C
  C274     1.0000 0.67280  0.84700  0.71600  Biso   1.000  C
  N42      1.0000 0.69620  0.82930  0.73260  Biso   1.000  N
  O125     1.0000 0.71030  0.29470  0.55370  Biso   1.000  O
  C275     1.0000 0.73780  0.26610  0.53990  Biso   1.000  C
  H203     1.0000 0.73400  0.22640  0.53190  Biso   1.000  H
  N43      1.0000 0.77010  0.29110  0.53720  Biso   1.000  N
  C276     1.0000 0.78020  0.35550  0.54370  Biso   1.000  C
  H204     1.0000 0.79860  0.36930  0.52810  Biso   1.000  H
  H205     1.0000 0.79080  0.35880  0.56500  Biso   1.000  H
  H206     1.0000 0.75760  0.38080  0.54220  Biso   1.000  H
  C277     1.0000 0.80160  0.25260  0.52200  Biso   1.000  C
  H207     1.0000 0.79050  0.22250  0.50770  Biso   1.000  H
  H208     1.0000 0.81570  0.23190  0.53870  Biso   1.000  H
  H209     1.0000 0.81850  0.27900  0.51000  Biso   1.000  H
  O126     1.0000 0.58970  0.44510  0.52670  Biso   1.000  O
  C278     1.0000 0.56580  0.48500  0.52590  Biso   1.000  C
  H210     1.0000 0.56490  0.50360  0.50570  Biso   1.000  H
  N44      1.0000 0.54120  0.50890  0.54510  Biso   1.000  N
  C279     1.0000 0.51300  0.55720  0.53920  Biso   1.000  C
  H211     1.0000 0.51200  0.58460  0.55740  Biso   1.000  H
  H212     1.0000 0.48830  0.53860  0.53600  Biso   1.000  H
  H213     1.0000 0.51990  0.58010  0.52010  Biso   1.000  H
  C280     1.0000 0.53880  0.48170  0.57690  Biso   1.000  C
  H214     1.0000 0.55880  0.45160  0.57940  Biso   1.000  H
  H215     1.0000 0.51440  0.46200  0.57940  Biso   1.000  H
  H216     1.0000 0.54170  0.51340  0.59300  Biso   1.000  H
  O127     1.0000 0.79050  0.54570  0.45650  Biso   1.000  O
  C281     1.0000 0.81390  0.57120  0.47480  Biso   1.000  C
  H217     1.0000 0.81200  0.61390  0.47690  Biso   1.000  H
  N45      1.0000 0.84240  0.54260  0.49240  Biso   1.000  N
  C282     1.0000 0.87100  0.57880  0.51130  Biso   1.000  C
  H218     1.0000 0.89360  0.58460  0.49850  Biso   1.000  H
  H219     1.0000 0.87730  0.55670  0.53080  Biso   1.000  H
  H220     1.0000 0.86030  0.61830  0.51690  Biso   1.000  H
  C283     1.0000 0.85220  0.47210  0.48840  Biso   1.000  C
  H221     1.0000 0.82910  0.44820  0.48960  Biso   1.000  H
  H222     1.0000 0.86930  0.45950  0.50540  Biso   1.000  H
  H223     1.0000 0.86420  0.46550  0.46780  Biso   1.000  H
  O128     1.0000 0.45050  0.87000  0.62300  Biso   1.000  O
  C284     1.0000 0.46700  0.92020  0.62480  Biso   1.000  C
  H224     1.0000 0.49190  0.92330  0.61710  Biso   1.000  H
  N46      1.0000 0.45060  0.96940  0.63710  Biso   1.000  N
  C285     1.0000 0.47130  0.02760  0.63630  Biso   1.000  C
  H225     1.0000 0.48630  0.03160  0.65570  Biso   1.000  H
  H226     1.0000 0.45350  0.06120  0.63500  Biso   1.000  H
  H227     1.0000 0.48790  0.02830  0.61780  Biso   1.000  H
  C286     1.0000 0.41100  0.96400  0.64790  Biso   1.000  C
  H228     1.0000 0.41030  0.96350  0.67110  Biso   1.000  H
  H229     1.0000 0.40010  0.92680  0.63950  Biso   1.000  H
  H230     1.0000 0.39670  0.99910  0.64010  Biso   1.000  H
  O129     1.0000 0.57740  0.65980  0.71370  Biso   1.000  O
  C287     1.0000 0.58010  0.70180  0.73270  Biso   1.000  C
  H231     1.0000 0.55790  0.72550  0.73310  Biso   1.000  H
  N47      1.0000 0.60490  0.72290  0.75260  Biso   1.000  N
  C288     1.0000 0.60570  0.78170  0.76970  Biso   1.000  C
  H232     1.0000 0.58510  0.80730  0.76220  Biso   1.000  H
  H233     1.0000 0.62960  0.80220  0.76560  Biso   1.000  H
  H234     1.0000 0.60290  0.77460  0.79250  Biso   1.000  H
  C289     1.0000 0.63970  0.68600  0.75480  Biso   1.000  C
  H235     1.0000 0.66130  0.71310  0.75710  Biso   1.000  H
  H236     1.0000 0.64250  0.66180  0.73550  Biso   1.000  H
  H237     1.0000 0.63810  0.65930  0.77330  Biso   1.000  H
  O130     1.0000 0.61870  0.65010  0.65730  Biso   1.000  O
  C290     1.0000 0.63800  0.62320  0.63640  Biso   1.000  C
  H238     1.0000 0.63370  0.58120  0.63310  Biso   1.000  H
  N48      1.0000 0.66440  0.65110  0.61850  Biso   1.000  N
  C291     1.0000 0.68870  0.62920  0.59490  Biso   1.000  C
  H239     1.0000 0.71080  0.61110  0.60490  Biso   1.000  H
  H240     1.0000 0.69650  0.66280  0.58120  Biso   1.000  H
  H241     1.0000 0.67570  0.59860  0.58220  Biso   1.000  H
  C292     1.0000 0.66020  0.71700  0.62480  Biso   1.000  C
  H242     1.0000 0.63420  0.72900  0.62090  Biso   1.000  H
  H243     1.0000 0.67690  0.73970  0.61070  Biso   1.000  H
  H244     1.0000 0.66680  0.72540  0.64690  Biso   1.000  H
  O131     1.0000 0.47330  0.84360  0.36390  Biso   1.000  O
  C293     1.0000 0.50090  0.83310  0.34790  Biso   1.000  C
  H245     1.0000 0.49740  0.83770  0.32570  Biso   1.000  H
  N49      1.0000 0.53420  0.81670  0.35630  Biso   1.000  N
  C294     1.0000 0.54260  0.80900  0.39030  Biso   1.000  C
  H246     1.0000 0.56480  0.78360  0.39280  Biso   1.000  H
  H247     1.0000 0.52120  0.79040  0.40100  Biso   1.000  H
  H248     1.0000 0.54750  0.84920  0.39980  Biso   1.000  H
  C295     1.0000 0.56560  0.81100  0.33340  Biso   1.000  C
  H249     1.0000 0.56180  0.83980  0.31590  Biso   1.000  H
  H250     1.0000 0.56650  0.76990  0.32510  Biso   1.000  H
  H251     1.0000 0.58930  0.82050  0.34420  Biso   1.000  H
  O132     1.0000 0.40790  0.76720  0.60950  Biso   1.000  O
  C296     1.0000 0.37400  0.76100  0.60590  Biso   1.000  C
  H252     1.0000 0.36220  0.72370  0.61080  Biso   1.000  H
  N50      1.0000 0.35380  0.80800  0.59500  Biso   1.000  N
  C297     1.0000 0.31150  0.80700  0.59100  Biso   1.000  C
  H253     1.0000 0.29950  0.81440  0.61150  Biso   1.000  H
  H254     1.0000 0.30390  0.76670  0.58310  Biso   1.000  H
  H255     1.0000 0.30390  0.83790  0.57580  Biso   1.000  H
  C298     1.0000 0.37100  0.86900  0.58600  Biso   1.000  C
  H256     1.0000 0.37650  0.86860  0.56290  Biso   1.000  H
  H257     1.0000 0.39370  0.87580  0.59780  Biso   1.000  H
  H258     1.0000 0.35270  0.90130  0.59020  Biso   1.000  H
  O133     1.0000 0.67690  0.29450  0.61930  Biso   1.000  O
  C299     1.0000 0.68350  0.28530  0.64750  Biso   1.000  C
  H259     1.0000 0.66220  0.28440  0.66100  Biso   1.000  H
  N51      1.0000 0.71530  0.27670  0.66140  Biso   1.000  N
  C300     1.0000 0.71670  0.27900  0.69640  Biso   1.000  C
  H260     1.0000 0.69210  0.29070  0.70460  Biso   1.000  H
  H261     1.0000 0.73550  0.30830  0.70310  Biso   1.000  H
  H262     1.0000 0.72330  0.23860  0.70460  Biso   1.000  H
  C301     1.0000 0.74940  0.27800  0.64130  Biso   1.000  C
  H263     1.0000 0.76240  0.23930  0.64250  Biso   1.000  H
  H264     1.0000 0.76620  0.31050  0.64880  Biso   1.000  H
  H265     1.0000 0.74230  0.28650  0.61920  Biso   1.000  H
  O134     1.0000 0.73900  0.53460  0.40130  Biso   1.000  O
  O135     1.0000 0.65830  0.39000  0.56990  Biso   1.000  O
  C302     1.0000 0.65010  0.43900  0.58830  Biso   1.000  C
  H266     1.0000 0.64880  0.43520  0.61070  Biso   1.000  H
  O136     1.0000 0.64460  0.48610  0.57620  Biso   1.000  O
  O137     1.0000 0.63210  0.33350  0.51860  Biso   1.000  O
  C303     1.0000 0.64160  0.28540  0.50050  Biso   1.000  C
  H267     1.0000 0.64060  0.28920  0.47810  Biso   1.000  H
  O138     1.0000 0.65170  0.23600  0.51230  Biso   1.000  O
  Gd19     1.0000 0.77660  0.43752  0.95659  Biso   1.000  Gd
  Gd20     1.0000 0.02233  0.22427  0.10593  Biso   1.000  Gd
  Gd21     1.0000 0.94891  0.35458  0.16014  Biso   1.000  Gd
  Gd22     1.0000 0.09304  0.14699  0.85377  Biso   1.000  Gd
  Gd23     1.0000 0.85367  0.71973  0.07006  Biso   1.000  Gd
  Gd24     1.0000 0.84570  0.55993  0.01676  Biso   1.000  Gd
  C304     1.0000 0.77420  0.24320  0.93830  Biso   1.000  C
  C305     1.0000 0.77300  0.31190  0.94300  Biso   1.000  C
  O139     1.0000 0.74940  0.33290  0.96260  Biso   1.000  O
  O140     1.0000 0.79270  0.34470  0.92500  Biso   1.000  O
  C306     1.0000 0.74950  0.20510  0.95490  Biso   1.000  C
  H268     1.0000 0.73120  0.22250  0.96850  Biso   1.000  H
  C307     1.0000 0.75120  0.14070  0.95170  Biso   1.000  C
  C308     1.0000 0.72340  0.10020  0.96960  Biso   1.000  C
  O141     1.0000 0.72540  0.04210  0.96390  Biso   1.000  O
  O142     1.0000 0.69980  0.12520  0.98940  Biso   1.000  O
  C309     1.0000 0.77900  0.11390  0.93360  Biso   1.000  C
  H269     1.0000 0.78120  0.07100  0.93250  Biso   1.000  H
  C310     1.0000 0.80460  0.15270  0.91640  Biso   1.000  C
  C311     1.0000 0.83160  0.12610  0.89710  Biso   1.000  C
  N52      1.0000 0.85750  0.10670  0.88060  Biso   1.000  N
  C312     1.0000 0.88600  0.16920  0.18160  Biso   1.000  C
  H270     1.0000 0.88210  0.21160  0.18380  Biso   1.000  H
  C313     1.0000 0.80120  0.21570  0.91910  Biso   1.000  C
  H271     1.0000 0.81790  0.24070  0.90740  Biso   1.000  H
  C314     1.0000 0.87710  0.35040  0.01390  Biso   1.000  C
  C315     1.0000 0.84880  0.40000  0.00280  Biso   1.000  C
  O143     1.0000 0.82210  0.38480  0.98540  Biso   1.000  O
  O144     1.0000 0.85570  0.45410  0.01230  Biso   1.000  O
  C316     1.0000 0.89790  0.35710  0.04130  Biso   1.000  C
  H272     1.0000 0.89620  0.39320  0.05350  Biso   1.000  H
  C317     1.0000 0.92240  0.30870  0.05110  Biso   1.000  C
  C318     1.0000 0.94190  0.30960  0.08270  Biso   1.000  C
  O145     1.0000 0.96960  0.27110  0.08650  Biso   1.000  O
  O146     1.0000 0.93100  0.34600  0.10400  Biso   1.000  O
  C319     1.0000 0.92650  0.25870  0.03050  Biso   1.000  C
  H273     1.0000 0.94210  0.22600  0.03680  Biso   1.000  H
  C320     1.0000 0.90800  0.25540  0.00080  Biso   1.000  C
  C321     1.0000 0.90930  0.19980  0.98140  Biso   1.000  C
  N53      1.0000 0.91310  0.15680  0.96550  Biso   1.000  N
  C322     1.0000 0.88190  0.30150  0.99180  Biso   1.000  C
  H274     1.0000 0.86860  0.29990  0.97240  Biso   1.000  H
  C323     1.0000 0.05490  0.43360  0.11060  Biso   1.000  C
  C324     1.0000 0.03030  0.37620  0.11320  Biso   1.000  C
  O147     1.0000 0.04090  0.32970  0.09830  Biso   1.000  O
  O148     1.0000 0.00350  0.38150  0.13260  Biso   1.000  O
  C325     1.0000 0.08420  0.43680  0.08760  Biso   1.000  C
  H275     1.0000 0.08830  0.40280  0.07430  Biso   1.000  H
  C326     1.0000 0.10800  0.48940  0.08380  Biso   1.000  C
  C327     1.0000 0.13930  0.49040  0.06020  Biso   1.000  C
  O149     1.0000 0.13710  0.45070  0.03710  Biso   1.000  O
  O150     1.0000 0.16400  0.53070  0.06330  Biso   1.000  O
  C328     1.0000 0.10200  0.53940  0.10130  Biso   1.000  C
  H276     1.0000 0.11690  0.57450  0.09820  Biso   1.000  H
  C329     1.0000 0.07190  0.53930  0.12560  Biso   1.000  C
  C330     1.0000 0.06200  0.59800  0.13380  Biso   1.000  C
  N54      1.0000 0.05800  0.62900  0.15620  Biso   1.000  N
  C331     1.0000 0.04860  0.48330  0.12980  Biso   1.000  C
  H277     1.0000 0.02950  0.48210  0.14550  Biso   1.000  H
  C332     1.0000 0.02200  0.14720  0.01000  Biso   1.000  C
  C333     1.0000 0.02200  0.17170  0.04290  Biso   1.000  C
  O151     1.0000 0.99900  0.14920  0.06440  Biso   1.000  O
  O152     1.0000 0.04350  0.21610  0.05040  Biso   1.000  O
  C334     1.0000 0.04700  0.16800  0.98680  Biso   1.000  C
  H278     1.0000 0.06330  0.20040  0.99200  Biso   1.000  H
  C335     1.0000 0.04890  0.14350  0.95630  Biso   1.000  C
  C336     1.0000 0.07720  0.16730  0.93420  Biso   1.000  C
  O153     1.0000 0.08490  0.13330  0.90960  Biso   1.000  O
  O154     1.0000 0.09280  0.21940  0.93840  Biso   1.000  O
  C337     1.0000 0.02330  0.09800  0.94780  Biso   1.000  C
  H279     1.0000 0.02420  0.08130  0.92700  Biso   1.000  H
  C338     1.0000 0.99580  0.07650  0.96980  Biso   1.000  C
  C339     1.0000 0.96850  0.02770  0.95980  Biso   1.000  C
  N55      1.0000 0.94780  0.99130  0.95200  Biso   1.000  N
  C340     1.0000 0.99540  0.09990  0.00060  Biso   1.000  C
  H280     1.0000 0.97780  0.08490  0.01560  Biso   1.000  H
  C341     1.0000 0.05780  0.26740  0.20710  Biso   1.000  C
  C342     1.0000 0.02600  0.28470  0.18630  Biso   1.000  C
  O155     1.0000 0.02630  0.25650  0.15810  Biso   1.000  O
  O156     1.0000 0.00110  0.32050  0.19480  Biso   1.000  O
  C343     1.0000 0.06080  0.29570  0.23810  Biso   1.000  C
  H281     1.0000 0.04240  0.32370  0.24520  Biso   1.000  H
  C344     1.0000 0.09180  0.28030  0.25740  Biso   1.000  C
  C345     1.0000 0.09440  0.30910  0.29080  Biso   1.000  C
  O157     1.0000 0.06460  0.33680  0.30130  Biso   1.000  O
  O158     1.0000 0.12450  0.30160  0.30730  Biso   1.000  O
  C346     1.0000 0.11960  0.24160  0.24780  Biso   1.000  C
  H282     1.0000 0.14150  0.23350  0.25990  Biso   1.000  H
  C347     1.0000 0.11260  0.21500  0.21800  Biso   1.000  C
  C348     1.0000 0.14180  0.17900  0.20800  Biso   1.000  C
  N56      1.0000 0.16270  0.14100  0.19980  Biso   1.000  N
  C349     1.0000 0.08520  0.22740  0.19680  Biso   1.000  C
  H283     1.0000 0.08470  0.20990  0.17620  Biso   1.000  H
  C350     1.0000 0.95190  0.55260  0.17100  Biso   1.000  C
  C351     1.0000 0.94950  0.48460  0.16850  Biso   1.000  C
  O159     1.0000 0.96640  0.45060  0.18850  Biso   1.000  O
  O160     1.0000 0.93040  0.46210  0.14560  Biso   1.000  O
  C352     1.0000 0.93510  0.58890  0.14930  Biso   1.000  C
  H284     1.0000 0.92160  0.57100  0.13230  Biso   1.000  H
  C353     1.0000 0.93720  0.65510  0.15150  Biso   1.000  C
  C354     1.0000 0.91530  0.69340  0.12740  Biso   1.000  C
  O161     1.0000 0.90110  0.67040  0.10230  Biso   1.000  O
  O162     1.0000 0.91390  0.75000  0.13400  Biso   1.000  O
  C355     1.0000 0.95530  0.67850  0.17700  Biso   1.000  C
  H285     1.0000 0.95540  0.72120  0.17980  Biso   1.000  H
  C356     1.0000 0.97400  0.64130  0.19980  Biso   1.000  C
  C357     1.0000 0.99500  0.66770  0.22630  Biso   1.000  C
  N57      1.0000 0.01250  0.68610  0.24830  Biso   1.000  N
  C358     1.0000 0.97120  0.57940  0.19660  Biso   1.000  C
  H286     1.0000 0.98250  0.55400  0.21210  Biso   1.000  H
  C359     1.0000 0.74180  0.47060  0.06600  Biso   1.000  C
  C360     1.0000 0.76430  0.47860  0.03520  Biso   1.000  C
  O163     1.0000 0.75660  0.44510  0.01150  Biso   1.000  O
  O164     1.0000 0.78840  0.52550  0.03420  Biso   1.000  O
  C361     1.0000 0.71880  0.42140  0.06870  Biso   1.000  C
  H287     1.0000 0.71540  0.39480  0.05120  Biso   1.000  H
  C362     1.0000 0.70040  0.41040  0.09700  Biso   1.000  C
  C363     1.0000 0.67360  0.35470  0.10170  Biso   1.000  C
  O165     1.0000 0.67270  0.31820  0.07890  Biso   1.000  O
  O166     1.0000 0.65430  0.34840  0.12740  Biso   1.000  O
  C364     1.0000 0.70480  0.44960  0.12480  Biso   1.000  C
  H288     1.0000 0.69280  0.44060  0.14430  Biso   1.000  H
  C365     1.0000 0.72780  0.50100  0.12140  Biso   1.000  C
  C366     1.0000 0.73470  0.54060  0.14860  Biso   1.000  C
  N58      1.0000 0.73950  0.57220  0.16910  Biso   1.000  N
  C367     1.0000 0.74760  0.50750  0.09280  Biso   1.000  C
  H289     1.0000 0.76600  0.53850  0.09140  Biso   1.000  H
  C368     1.0000 0.91730  0.14930  0.16490  Biso   1.000  C
  C369     1.0000 0.94640  0.19290  0.14890  Biso   1.000  C
  O167     1.0000 0.97180  0.17200  0.13180  Biso   1.000  O
  O168     1.0000 0.94040  0.24950  0.15710  Biso   1.000  O
  C370     1.0000 0.91980  0.08600  0.15870  Biso   1.000  C
  H290     1.0000 0.93970  0.07160  0.14580  Biso   1.000  H
  C371     1.0000 0.89470  0.04510  0.17070  Biso   1.000  C
  C372     1.0000 0.89920  0.97800  0.16400  Biso   1.000  C
  O169     1.0000 0.92510  0.96000  0.14570  Biso   1.000  O
  O170     1.0000 0.87540  0.93860  0.17630  Biso   1.000  O
  C373     1.0000 0.86520  0.06520  0.18970  Biso   1.000  C
  H291     1.0000 0.84860  0.03650  0.19900  Biso   1.000  H
  C374     1.0000 0.85950  0.12870  0.19550  Biso   1.000  C
  C375     1.0000 0.82720  0.15300  0.21600  Biso   1.000  C
  N59      1.0000 0.80380  0.17070  0.23260  Biso   1.000  N
  O171     1.0000 0.78970  0.70530  0.05370  Biso   1.000  O
  C376     1.0000 0.76220  0.73390  0.03990  Biso   1.000  C
  H292     1.0000 0.76600  0.77360  0.03190  Biso   1.000  H
  N60      1.0000 0.72990  0.70890  0.03720  Biso   1.000  N
  C377     1.0000 0.71980  0.64450  0.04370  Biso   1.000  C
  H293     1.0000 0.70140  0.63070  0.02810  Biso   1.000  H
  H294     1.0000 0.70920  0.64120  0.06500  Biso   1.000  H
  H295     1.0000 0.74240  0.61920  0.04220  Biso   1.000  H
  C378     1.0000 0.69840  0.74740  0.02200  Biso   1.000  C
  H296     1.0000 0.70950  0.77750  0.00770  Biso   1.000  H
  H297     1.0000 0.68430  0.76810  0.03870  Biso   1.000  H
  H298     1.0000 0.68150  0.72100  0.01000  Biso   1.000  H
  O172     1.0000 0.91030  0.55490  0.02670  Biso   1.000  O
  C379     1.0000 0.93420  0.51500  0.02590  Biso   1.000  C
  H299     1.0000 0.93510  0.49640  0.00570  Biso   1.000  H
  N61      1.0000 0.95880  0.49110  0.04510  Biso   1.000  N
  C380     1.0000 0.98700  0.44280  0.03920  Biso   1.000  C
  H300     1.0000 0.98800  0.41540  0.05740  Biso   1.000  H
  H301     1.0000 0.01170  0.46140  0.03600  Biso   1.000  H
  H302     1.0000 0.98010  0.41990  0.02010  Biso   1.000  H
  C381     1.0000 0.96120  0.51830  0.07690  Biso   1.000  C
  H303     1.0000 0.94120  0.54840  0.07940  Biso   1.000  H
  H304     1.0000 0.98560  0.53800  0.07940  Biso   1.000  H
  H305     1.0000 0.95830  0.48660  0.09300  Biso   1.000  H
  O173     1.0000 0.70950  0.45430  0.95650  Biso   1.000  O
  C382     1.0000 0.68610  0.42880  0.97480  Biso   1.000  C
  H306     1.0000 0.68800  0.38610  0.97690  Biso   1.000  H
  N62      1.0000 0.65760  0.45740  0.99240  Biso   1.000  N
  C383     1.0000 0.62900  0.42120  0.01130  Biso   1.000  C
  H307     1.0000 0.60640  0.41540  0.99850  Biso   1.000  H
  H308     1.0000 0.62270  0.44330  0.03080  Biso   1.000  H
  H309     1.0000 0.63970  0.38170  0.01690  Biso   1.000  H
  C384     1.0000 0.64780  0.52790  0.98840  Biso   1.000  C
  H310     1.0000 0.67090  0.55180  0.98960  Biso   1.000  H
  H311     1.0000 0.63070  0.54050  0.00540  Biso   1.000  H
  H312     1.0000 0.63580  0.53450  0.96780  Biso   1.000  H
  O174     1.0000 0.04950  0.13000  0.12300  Biso   1.000  O
  C385     1.0000 0.03300  0.07980  0.12480  Biso   1.000  C
  H313     1.0000 0.00810  0.07670  0.11710  Biso   1.000  H
  N63      1.0000 0.04940  0.03060  0.13710  Biso   1.000  N
  C386     1.0000 0.02870  0.97240  0.13630  Biso   1.000  C
  H314     1.0000 0.01370  0.96840  0.15570  Biso   1.000  H
  H315     1.0000 0.04650  0.93880  0.13500  Biso   1.000  H
  H316     1.0000 0.01210  0.97170  0.11780  Biso   1.000  H
  C387     1.0000 0.08900  0.03600  0.14790  Biso   1.000  C
  H317     1.0000 0.08970  0.03650  0.17110  Biso   1.000  H
  H318     1.0000 0.09990  0.07320  0.13950  Biso   1.000  H
  H319     1.0000 0.10330  0.00090  0.14010  Biso   1.000  H
  O175     1.0000 0.92260  0.34020  0.21370  Biso   1.000  O
  C388     1.0000 0.91990  0.29820  0.23270  Biso   1.000  C
  H320     1.0000 0.94210  0.27450  0.23310  Biso   1.000  H
  N64      1.0000 0.89510  0.27710  0.25260  Biso   1.000  N
  C389     1.0000 0.89430  0.21830  0.26970  Biso   1.000  C
  H321     1.0000 0.91490  0.19270  0.26220  Biso   1.000  H
  H322     1.0000 0.87040  0.19780  0.26560  Biso   1.000  H
  H323     1.0000 0.89710  0.22540  0.29250  Biso   1.000  H
  C390     1.0000 0.86030  0.31400  0.25480  Biso   1.000  C
  H324     1.0000 0.83870  0.28690  0.25710  Biso   1.000  H
  H325     1.0000 0.85750  0.33820  0.23550  Biso   1.000  H
  H326     1.0000 0.86190  0.34070  0.27330  Biso   1.000  H
  O176     1.0000 0.88130  0.34990  0.15730  Biso   1.000  O
  C391     1.0000 0.86200  0.37680  0.13640  Biso   1.000  C
  H327     1.0000 0.86630  0.41880  0.13310  Biso   1.000  H
  N65      1.0000 0.83560  0.34890  0.11850  Biso   1.000  N
  C392     1.0000 0.81130  0.37080  0.09490  Biso   1.000  C
  H328     1.0000 0.78920  0.38890  0.10490  Biso   1.000  H
  H329     1.0000 0.80350  0.33720  0.08120  Biso   1.000  H
  H330     1.0000 0.82430  0.40140  0.08220  Biso   1.000  H
  C393     1.0000 0.83980  0.28300  0.12480  Biso   1.000  C
  H331     1.0000 0.86580  0.27100  0.12090  Biso   1.000  H
  H332     1.0000 0.82310  0.26030  0.11070  Biso   1.000  H
  H333     1.0000 0.83320  0.27460  0.14690  Biso   1.000  H
  O177     1.0000 0.02670  0.15640  0.86390  Biso   1.000  O
  C394     1.0000 0.99910  0.16690  0.84790  Biso   1.000  C
  H334     1.0000 0.00260  0.16230  0.82570  Biso   1.000  H
  N66      1.0000 0.96580  0.18330  0.85630  Biso   1.000  N
  C395     1.0000 0.95740  0.19100  0.89030  Biso   1.000  C
  H335     1.0000 0.93520  0.21640  0.89280  Biso   1.000  H
  H336     1.0000 0.97880  0.20960  0.90100  Biso   1.000  H
  H337     1.0000 0.95250  0.15080  0.89980  Biso   1.000  H
  C396     1.0000 0.93440  0.18900  0.83340  Biso   1.000  C
  H338     1.0000 0.93820  0.16020  0.81590  Biso   1.000  H
  H339     1.0000 0.93350  0.23010  0.82510  Biso   1.000  H
  H340     1.0000 0.91070  0.17950  0.84420  Biso   1.000  H
  O178     1.0000 0.09210  0.23280  0.10950  Biso   1.000  O
  C397     1.0000 0.12600  0.23900  0.10590  Biso   1.000  C
  H341     1.0000 0.13780  0.27630  0.11080  Biso   1.000  H
  N67      1.0000 0.14620  0.19200  0.09500  Biso   1.000  N
  C398     1.0000 0.18850  0.19300  0.09100  Biso   1.000  C
  H342     1.0000 0.20050  0.18560  0.11150  Biso   1.000  H
  H343     1.0000 0.19610  0.23330  0.08310  Biso   1.000  H
  H344     1.0000 0.19610  0.16210  0.07580  Biso   1.000  H
  C399     1.0000 0.12900  0.13100  0.08600  Biso   1.000  C
  H345     1.0000 0.12350  0.13140  0.06290  Biso   1.000  H
  H346     1.0000 0.10630  0.12420  0.09780  Biso   1.000  H
  H347     1.0000 0.14730  0.09870  0.09020  Biso   1.000  H
  O179     1.0000 0.82310  0.70550  0.11930  Biso   1.000  O
  C400     1.0000 0.81650  0.71470  0.14750  Biso   1.000  C
  H348     1.0000 0.83780  0.71560  0.16100  Biso   1.000  H
  N68      1.0000 0.78470  0.72330  0.16140  Biso   1.000  N
  C401     1.0000 0.78330  0.72100  0.19640  Biso   1.000  C
  H349     1.0000 0.80790  0.70930  0.20460  Biso   1.000  H
  H350     1.0000 0.76450  0.69170  0.20310  Biso   1.000  H
  H351     1.0000 0.77670  0.76140  0.20460  Biso   1.000  H
  C402     1.0000 0.75060  0.72200  0.14130  Biso   1.000  C
  H352     1.0000 0.73760  0.76070  0.14250  Biso   1.000  H
  H353     1.0000 0.73380  0.68950  0.14880  Biso   1.000  H
  H354     1.0000 0.75770  0.71350  0.11920  Biso   1.000  H
  O180     1.0000 0.76100  0.46540  0.90130  Biso   1.000  O
  O181     1.0000 0.84170  0.61000  0.06990  Biso   1.000  O
  C403     1.0000 0.84990  0.56100  0.08830  Biso   1.000  C
  H355     1.0000 0.85120  0.56480  0.11070  Biso   1.000  H
  O182     1.0000 0.85540  0.51390  0.07620  Biso   1.000  O
  O183     1.0000 0.86790  0.66650  0.01860  Biso   1.000  O
  C404     1.0000 0.85840  0.71460  0.00050  Biso   1.000  C
  H356     1.0000 0.85940  0.71080  0.97810  Biso   1.000  H
  O184     1.0000 0.84830  0.76400  0.01230  Biso   1.000  O
  Gd25     1.0000 0.72340  0.93752  0.95659  Biso   1.000  Gd
  Gd26     1.0000 0.47767  0.72427  0.10593  Biso   1.000  Gd
  Gd27     1.0000 0.55109  0.85458  0.16014  Biso   1.000  Gd
  Gd28     1.0000 0.40696  0.64699  0.85377  Biso   1.000  Gd
  Gd29     1.0000 0.64633  0.21973  0.07006  Biso   1.000  Gd
  Gd30     1.0000 0.65430  0.05993  0.01676  Biso   1.000  Gd
  C405     1.0000 0.72580  0.74320  0.93830  Biso   1.000  C
  C406     1.0000 0.72700  0.81190  0.94300  Biso   1.000  C
  O185     1.0000 0.75060  0.83290  0.96260  Biso   1.000  O
  O186     1.0000 0.70730  0.84470  0.92500  Biso   1.000  O
  C407     1.0000 0.75050  0.70510  0.95490  Biso   1.000  C
  H357     1.0000 0.76880  0.72250  0.96850  Biso   1.000  H
  C408     1.0000 0.74880  0.64070  0.95170  Biso   1.000  C
  C409     1.0000 0.77660  0.60020  0.96960  Biso   1.000  C
  O187     1.0000 0.77460  0.54210  0.96390  Biso   1.000  O
  O188     1.0000 0.80020  0.62520  0.98940  Biso   1.000  O
  C410     1.0000 0.72100  0.61390  0.93360  Biso   1.000  C
  H358     1.0000 0.71880  0.57100  0.93250  Biso   1.000  H
  C411     1.0000 0.69540  0.65270  0.91640  Biso   1.000  C
  C412     1.0000 0.66840  0.62610  0.89710  Biso   1.000  C
  N69      1.0000 0.64250  0.60670  0.88060  Biso   1.000  N
  C413     1.0000 0.61400  0.66920  0.18160  Biso   1.000  C
  H359     1.0000 0.61790  0.71160  0.18380  Biso   1.000  H
  C414     1.0000 0.69880  0.71570  0.91910  Biso   1.000  C
  H360     1.0000 0.68210  0.74070  0.90740  Biso   1.000  H
  C415     1.0000 0.62290  0.85040  0.01390  Biso   1.000  C
  C416     1.0000 0.65120  0.90000  0.00280  Biso   1.000  C
  O189     1.0000 0.67790  0.88480  0.98540  Biso   1.000  O
  O190     1.0000 0.64430  0.95410  0.01230  Biso   1.000  O
  C417     1.0000 0.60210  0.85710  0.04130  Biso   1.000  C
  H361     1.0000 0.60380  0.89320  0.05350  Biso   1.000  H
  C418     1.0000 0.57760  0.80870  0.05110  Biso   1.000  C
  C419     1.0000 0.55810  0.80960  0.08270  Biso   1.000  C
  O191     1.0000 0.53040  0.77110  0.08650  Biso   1.000  O
  O192     1.0000 0.56900  0.84600  0.10400  Biso   1.000  O
  C420     1.0000 0.57350  0.75870  0.03050  Biso   1.000  C
  H362     1.0000 0.55790  0.72600  0.03680  Biso   1.000  H
  C421     1.0000 0.59200  0.75540  0.00080  Biso   1.000  C
  C422     1.0000 0.59070  0.69980  0.98140  Biso   1.000  C
  N70      1.0000 0.58690  0.65680  0.96550  Biso   1.000  N
  C423     1.0000 0.61810  0.80150  0.99180  Biso   1.000  C
  H363     1.0000 0.63140  0.79990  0.97240  Biso   1.000  H
  C424     1.0000 0.44510  0.93360  0.11060  Biso   1.000  C
  C425     1.0000 0.46970  0.87620  0.11320  Biso   1.000  C
  O193     1.0000 0.45910  0.82970  0.09830  Biso   1.000  O
  O194     1.0000 0.49650  0.88150  0.13260  Biso   1.000  O
  C426     1.0000 0.41580  0.93680  0.08760  Biso   1.000  C
  H364     1.0000 0.41170  0.90280  0.07430  Biso   1.000  H
  C427     1.0000 0.39200  0.98940  0.08380  Biso   1.000  C
  C428     1.0000 0.36070  0.99040  0.06020  Biso   1.000  C
  O195     1.0000 0.36290  0.95070  0.03710  Biso   1.000  O
  O196     1.0000 0.33600  0.03070  0.06330  Biso   1.000  O
  C429     1.0000 0.39800  0.03940  0.10130  Biso   1.000  C
  H365     1.0000 0.38310  0.07450  0.09820  Biso   1.000  H
  C430     1.0000 0.42810  0.03930  0.12560  Biso   1.000  C
  C431     1.0000 0.43800  0.09800  0.13380  Biso   1.000  C
  N71      1.0000 0.44200  0.12900  0.15620  Biso   1.000  N
  C432     1.0000 0.45140  0.98330  0.12980  Biso   1.000  C
  H366     1.0000 0.47050  0.98210  0.14550  Biso   1.000  H
  C433     1.0000 0.47800  0.64720  0.01000  Biso   1.000  C
  C434     1.0000 0.47800  0.67170  0.04290  Biso   1.000  C
  O197     1.0000 0.50100  0.64920  0.06440  Biso   1.000  O
  O198     1.0000 0.45650  0.71610  0.05040  Biso   1.000  O
  C435     1.0000 0.45300  0.66800  0.98680  Biso   1.000  C
  H367     1.0000 0.43670  0.70040  0.99200  Biso   1.000  H
  C436     1.0000 0.45110  0.64350  0.95630  Biso   1.000  C
  C437     1.0000 0.42280  0.66730  0.93420  Biso   1.000  C
  O199     1.0000 0.41510  0.63330  0.90960  Biso   1.000  O
  O200     1.0000 0.40720  0.71940  0.93840  Biso   1.000  O
  C438     1.0000 0.47670  0.59800  0.94780  Biso   1.000  C
  H368     1.0000 0.47580  0.58130  0.92700  Biso   1.000  H
  C439     1.0000 0.50420  0.57650  0.96980  Biso   1.000  C
  C440     1.0000 0.53150  0.52770  0.95980  Biso   1.000  C
  N72      1.0000 0.55220  0.49130  0.95200  Biso   1.000  N
  C441     1.0000 0.50460  0.59990  0.00060  Biso   1.000  C
  H369     1.0000 0.52220  0.58490  0.01560  Biso   1.000  H
  C442     1.0000 0.44220  0.76740  0.20710  Biso   1.000  C
  C443     1.0000 0.47400  0.78470  0.18630  Biso   1.000  C
  O201     1.0000 0.47370  0.75650  0.15810  Biso   1.000  O
  O202     1.0000 0.49890  0.82050  0.19480  Biso   1.000  O
  C444     1.0000 0.43920  0.79570  0.23810  Biso   1.000  C
  H370     1.0000 0.45760  0.82370  0.24520  Biso   1.000  H
  C445     1.0000 0.40820  0.78030  0.25740  Biso   1.000  C
  C446     1.0000 0.40560  0.80910  0.29080  Biso   1.000  C
  O203     1.0000 0.43540  0.83680  0.30130  Biso   1.000  O
  O204     1.0000 0.37550  0.80160  0.30730  Biso   1.000  O
  C447     1.0000 0.38040  0.74160  0.24780  Biso   1.000  C
  H371     1.0000 0.35850  0.73350  0.25990  Biso   1.000  H
  C448     1.0000 0.38740  0.71500  0.21800  Biso   1.000  C
  C449     1.0000 0.35820  0.67900  0.20800  Biso   1.000  C
  N73      1.0000 0.33730  0.64100  0.19980  Biso   1.000  N
  C450     1.0000 0.41480  0.72740  0.19680  Biso   1.000  C
  H372     1.0000 0.41530  0.70990  0.17620  Biso   1.000  H
  C451     1.0000 0.54810  0.05260  0.17100  Biso   1.000  C
  C452     1.0000 0.55050  0.98460  0.16850  Biso   1.000  C
  O205     1.0000 0.53360  0.95060  0.18850  Biso   1.000  O
  O206     1.0000 0.56960  0.96210  0.14560  Biso   1.000  O
  C453     1.0000 0.56490  0.08890  0.14930  Biso   1.000  C
  H373     1.0000 0.57840  0.07100  0.13230  Biso   1.000  H
  C454     1.0000 0.56280  0.15510  0.15150  Biso   1.000  C
  C455     1.0000 0.58470  0.19340  0.12740  Biso   1.000  C
  O207     1.0000 0.59890  0.17040  0.10230  Biso   1.000  O
  O208     1.0000 0.58610  0.25000  0.13400  Biso   1.000  O
  C456     1.0000 0.54470  0.17850  0.17700  Biso   1.000  C
  H374     1.0000 0.54460  0.22120  0.17980  Biso   1.000  H
  C457     1.0000 0.52600  0.14130  0.19980  Biso   1.000  C
  C458     1.0000 0.50500  0.16770  0.22630  Biso   1.000  C
  N74      1.0000 0.48750  0.18610  0.24830  Biso   1.000  N
  C459     1.0000 0.52880  0.07940  0.19660  Biso   1.000  C
  H375     1.0000 0.51750  0.05400  0.21210  Biso   1.000  H
  C460     1.0000 0.75820  0.97060  0.06600  Biso   1.000  C
  C461     1.0000 0.73570  0.97860  0.03520  Biso   1.000  C
  O209     1.0000 0.74340  0.94510  0.01150  Biso   1.000  O
  O210     1.0000 0.71160  0.02550  0.03420  Biso   1.000  O
  C462     1.0000 0.78120  0.92140  0.06870  Biso   1.000  C
  H376     1.0000 0.78460  0.89480  0.05120  Biso   1.000  H
  C463     1.0000 0.79960  0.91040  0.09700  Biso   1.000  C
  C464     1.0000 0.82640  0.85470  0.10170  Biso   1.000  C
  O211     1.0000 0.82730  0.81820  0.07890  Biso   1.000  O
  O212     1.0000 0.84570  0.84840  0.12740  Biso   1.000  O
  C465     1.0000 0.79520  0.94960  0.12480  Biso   1.000  C
  H377     1.0000 0.80720  0.94060  0.14430  Biso   1.000  H
  C466     1.0000 0.77220  0.00100  0.12140  Biso   1.000  C
  C467     1.0000 0.76530  0.04060  0.14860  Biso   1.000  C
  N75      1.0000 0.76050  0.07220  0.16910  Biso   1.000  N
  C468     1.0000 0.75240  0.00750  0.09280  Biso   1.000  C
  H378     1.0000 0.73400  0.03850  0.09140  Biso   1.000  H
  C469     1.0000 0.58270  0.64930  0.16490  Biso   1.000  C
  C470     1.0000 0.55360  0.69290  0.14890  Biso   1.000  C
  O213     1.0000 0.52820  0.67200  0.13180  Biso   1.000  O
  O214     1.0000 0.55960  0.74950  0.15710  Biso   1.000  O
  C471     1.0000 0.58020  0.58600  0.15870  Biso   1.000  C
  H379     1.0000 0.56030  0.57160  0.14580  Biso   1.000  H
  C472     1.0000 0.60530  0.54510  0.17070  Biso   1.000  C
  C473     1.0000 0.60080  0.47800  0.16400  Biso   1.000  C
  O215     1.0000 0.57490  0.46000  0.14570  Biso   1.000  O
  O216     1.0000 0.62460  0.43860  0.17630  Biso   1.000  O
  C474     1.0000 0.63480  0.56520  0.18970  Biso   1.000  C
  H380     1.0000 0.65140  0.53650  0.19900  Biso   1.000  H
  C475     1.0000 0.64050  0.62870  0.19550  Biso   1.000  C
  C476     1.0000 0.67280  0.65300  0.21600  Biso   1.000  C
  N76      1.0000 0.69620  0.67070  0.23260  Biso   1.000  N
  O217     1.0000 0.71030  0.20530  0.05370  Biso   1.000  O
  C477     1.0000 0.73780  0.23390  0.03990  Biso   1.000  C
  H381     1.0000 0.73400  0.27360  0.03190  Biso   1.000  H
  N77      1.0000 0.77010  0.20890  0.03720  Biso   1.000  N
  C478     1.0000 0.78020  0.14450  0.04370  Biso   1.000  C
  H382     1.0000 0.79860  0.13070  0.02810  Biso   1.000  H
  H383     1.0000 0.79080  0.14120  0.06500  Biso   1.000  H
  H384     1.0000 0.75760  0.11920  0.04220  Biso   1.000  H
  C479     1.0000 0.80160  0.24740  0.02200  Biso   1.000  C
  H385     1.0000 0.79050  0.27750  0.00770  Biso   1.000  H
  H386     1.0000 0.81570  0.26810  0.03870  Biso   1.000  H
  H387     1.0000 0.81850  0.22100  0.01000  Biso   1.000  H
  O218     1.0000 0.58970  0.05490  0.02670  Biso   1.000  O
  C480     1.0000 0.56580  0.01500  0.02590  Biso   1.000  C
  H388     1.0000 0.56490  0.99640  0.00570  Biso   1.000  H
  N78      1.0000 0.54120  0.99110  0.04510  Biso   1.000  N
  C481     1.0000 0.51300  0.94280  0.03920  Biso   1.000  C
  H389     1.0000 0.51200  0.91540  0.05740  Biso   1.000  H
  H390     1.0000 0.48830  0.96140  0.03600  Biso   1.000  H
  H391     1.0000 0.51990  0.91990  0.02010  Biso   1.000  H
  C482     1.0000 0.53880  0.01830  0.07690  Biso   1.000  C
  H392     1.0000 0.55880  0.04840  0.07940  Biso   1.000  H
  H393     1.0000 0.51440  0.03800  0.07940  Biso   1.000  H
  H394     1.0000 0.54170  0.98660  0.09300  Biso   1.000  H
  O219     1.0000 0.79050  0.95430  0.95650  Biso   1.000  O
  C483     1.0000 0.81390  0.92880  0.97480  Biso   1.000  C
  H395     1.0000 0.81200  0.88610  0.97690  Biso   1.000  H
  N79      1.0000 0.84240  0.95740  0.99240  Biso   1.000  N
  C484     1.0000 0.87100  0.92120  0.01130  Biso   1.000  C
  H396     1.0000 0.89360  0.91540  0.99850  Biso   1.000  H
  H397     1.0000 0.87730  0.94330  0.03080  Biso   1.000  H
  H398     1.0000 0.86030  0.88170  0.01690  Biso   1.000  H
  C485     1.0000 0.85220  0.02790  0.98840  Biso   1.000  C
  H399     1.0000 0.82910  0.05180  0.98960  Biso   1.000  H
  H400     1.0000 0.86930  0.04050  0.00540  Biso   1.000  H
  H401     1.0000 0.86420  0.03450  0.96780  Biso   1.000  H
  O220     1.0000 0.45050  0.63000  0.12300  Biso   1.000  O
  C486     1.0000 0.46700  0.57980  0.12480  Biso   1.000  C
  H402     1.0000 0.49190  0.57670  0.11710  Biso   1.000  H
  N80      1.0000 0.45060  0.53060  0.13710  Biso   1.000  N
  C487     1.0000 0.47130  0.47240  0.13630  Biso   1.000  C
  H403     1.0000 0.48630  0.46840  0.15570  Biso   1.000  H
  H404     1.0000 0.45350  0.43880  0.13500  Biso   1.000  H
  H405     1.0000 0.48790  0.47170  0.11780  Biso   1.000  H
  C488     1.0000 0.41100  0.53600  0.14790  Biso   1.000  C
  H406     1.0000 0.41030  0.53650  0.17110  Biso   1.000  H
  H407     1.0000 0.40010  0.57320  0.13950  Biso   1.000  H
  H408     1.0000 0.39670  0.50090  0.14010  Biso   1.000  H
  O221     1.0000 0.57740  0.84020  0.21370  Biso   1.000  O
  C489     1.0000 0.58010  0.79820  0.23270  Biso   1.000  C
  H409     1.0000 0.55790  0.77450  0.23310  Biso   1.000  H
  N81      1.0000 0.60490  0.77710  0.25260  Biso   1.000  N
  C490     1.0000 0.60570  0.71830  0.26970  Biso   1.000  C
  H410     1.0000 0.58510  0.69270  0.26220  Biso   1.000  H
  H411     1.0000 0.62960  0.69780  0.26560  Biso   1.000  H
  H412     1.0000 0.60290  0.72540  0.29250  Biso   1.000  H
  C491     1.0000 0.63970  0.81400  0.25480  Biso   1.000  C
  H413     1.0000 0.66130  0.78690  0.25710  Biso   1.000  H
  H414     1.0000 0.64250  0.83820  0.23550  Biso   1.000  H
  H415     1.0000 0.63810  0.84070  0.27330  Biso   1.000  H
  O222     1.0000 0.61870  0.84990  0.15730  Biso   1.000  O
  C492     1.0000 0.63800  0.87680  0.13640  Biso   1.000  C
  H416     1.0000 0.63370  0.91880  0.13310  Biso   1.000  H
  N82      1.0000 0.66440  0.84890  0.11850  Biso   1.000  N
  C493     1.0000 0.68870  0.87080  0.09490  Biso   1.000  C
  H417     1.0000 0.71080  0.88890  0.10490  Biso   1.000  H
  H418     1.0000 0.69650  0.83720  0.08120  Biso   1.000  H
  H419     1.0000 0.67570  0.90140  0.08220  Biso   1.000  H
  C494     1.0000 0.66020  0.78300  0.12480  Biso   1.000  C
  H420     1.0000 0.63420  0.77100  0.12090  Biso   1.000  H
  H421     1.0000 0.67690  0.76030  0.11070  Biso   1.000  H
  H422     1.0000 0.66680  0.77460  0.14690  Biso   1.000  H
  O223     1.0000 0.47330  0.65640  0.86390  Biso   1.000  O
  C495     1.0000 0.50090  0.66690  0.84790  Biso   1.000  C
  H423     1.0000 0.49740  0.66230  0.82570  Biso   1.000  H
  N83      1.0000 0.53420  0.68330  0.85630  Biso   1.000  N
  C496     1.0000 0.54260  0.69100  0.89030  Biso   1.000  C
  H424     1.0000 0.56480  0.71640  0.89280  Biso   1.000  H
  H425     1.0000 0.52120  0.70960  0.90100  Biso   1.000  H
  H426     1.0000 0.54750  0.65080  0.89980  Biso   1.000  H
  C497     1.0000 0.56560  0.68900  0.83340  Biso   1.000  C
  H427     1.0000 0.56180  0.66020  0.81590  Biso   1.000  H
  H428     1.0000 0.56650  0.73010  0.82510  Biso   1.000  H
  H429     1.0000 0.58930  0.67950  0.84420  Biso   1.000  H
  O224     1.0000 0.40790  0.73280  0.10950  Biso   1.000  O
  C498     1.0000 0.37400  0.73900  0.10590  Biso   1.000  C
  H430     1.0000 0.36220  0.77630  0.11080  Biso   1.000  H
  N84      1.0000 0.35380  0.69200  0.09500  Biso   1.000  N
  C499     1.0000 0.31150  0.69300  0.09100  Biso   1.000  C
  H431     1.0000 0.29950  0.68560  0.11150  Biso   1.000  H
  H432     1.0000 0.30390  0.73330  0.08310  Biso   1.000  H
  H433     1.0000 0.30390  0.66210  0.07580  Biso   1.000  H
  C500     1.0000 0.37100  0.63100  0.08600  Biso   1.000  C
  H434     1.0000 0.37650  0.63140  0.06290  Biso   1.000  H
  H435     1.0000 0.39370  0.62420  0.09780  Biso   1.000  H
  H436     1.0000 0.35270  0.59870  0.09020  Biso   1.000  H
  O225     1.0000 0.67690  0.20550  0.11930  Biso   1.000  O
  C501     1.0000 0.68350  0.21470  0.14750  Biso   1.000  C
  H437     1.0000 0.66220  0.21560  0.16100  Biso   1.000  H
  N85      1.0000 0.71530  0.22330  0.16140  Biso   1.000  N
  C502     1.0000 0.71670  0.22100  0.19640  Biso   1.000  C
  H438     1.0000 0.69210  0.20930  0.20460  Biso   1.000  H
  H439     1.0000 0.73550  0.19170  0.20310  Biso   1.000  H
  H440     1.0000 0.72330  0.26140  0.20460  Biso   1.000  H
  C503     1.0000 0.74940  0.22200  0.14130  Biso   1.000  C
  H441     1.0000 0.76240  0.26070  0.14250  Biso   1.000  H
  H442     1.0000 0.76620  0.18950  0.14880  Biso   1.000  H
  H443     1.0000 0.74230  0.21350  0.11920  Biso   1.000  H
  O226     1.0000 0.73900  0.96540  0.90130  Biso   1.000  O
  O227     1.0000 0.65830  0.11000  0.06990  Biso   1.000  O
  C504     1.0000 0.65010  0.06100  0.08830  Biso   1.000  C
  H444     1.0000 0.64880  0.06480  0.11070  Biso   1.000  H
  O228     1.0000 0.64460  0.01390  0.07620  Biso   1.000  O
  O229     1.0000 0.63210  0.16650  0.01860  Biso   1.000  O
  C505     1.0000 0.64160  0.21460  0.00050  Biso   1.000  C
  H445     1.0000 0.64060  0.21080  0.97810  Biso   1.000  H
  O230     1.0000 0.65170  0.26400  0.01230  Biso   1.000  O
  Gd31     1.0000 0.77660  0.06248  0.45659  Biso   1.000  Gd
  Gd32     1.0000 0.02233  0.27573  0.60593  Biso   1.000  Gd
  Gd33     1.0000 0.94891  0.14542  0.66014  Biso   1.000  Gd
  Gd34     1.0000 0.09304  0.35301  0.35377  Biso   1.000  Gd
  Gd35     1.0000 0.85367  0.78027  0.57006  Biso   1.000  Gd
  Gd36     1.0000 0.84570  0.94007  0.51676  Biso   1.000  Gd
  C506     1.0000 0.77420  0.25680  0.43830  Biso   1.000  C
  C507     1.0000 0.77300  0.18810  0.44300  Biso   1.000  C
  O231     1.0000 0.74940  0.16710  0.46260  Biso   1.000  O
  O232     1.0000 0.79270  0.15530  0.42500  Biso   1.000  O
  C508     1.0000 0.74950  0.29490  0.45490  Biso   1.000  C
  H446     1.0000 0.73120  0.27750  0.46850  Biso   1.000  H
  C509     1.0000 0.75120  0.35930  0.45170  Biso   1.000  C
  C510     1.0000 0.72340  0.39980  0.46960  Biso   1.000  C
  O233     1.0000 0.72540  0.45790  0.46390  Biso   1.000  O
  O234     1.0000 0.69980  0.37480  0.48940  Biso   1.000  O
  C511     1.0000 0.77900  0.38610  0.43360  Biso   1.000  C
  H447     1.0000 0.78120  0.42900  0.43250  Biso   1.000  H
  C512     1.0000 0.80460  0.34730  0.41640  Biso   1.000  C
  C513     1.0000 0.83160  0.37390  0.39710  Biso   1.000  C
  N86      1.0000 0.85750  0.39330  0.38060  Biso   1.000  N
  C514     1.0000 0.88600  0.33080  0.68160  Biso   1.000  C
  H448     1.0000 0.88210  0.28840  0.68380  Biso   1.000  H
  C515     1.0000 0.80120  0.28430  0.41910  Biso   1.000  C
  H449     1.0000 0.81790  0.25930  0.40740  Biso   1.000  H
  C516     1.0000 0.87710  0.14960  0.51390  Biso   1.000  C
  C517     1.0000 0.84880  0.10000  0.50280  Biso   1.000  C
  O235     1.0000 0.82210  0.11520  0.48540  Biso   1.000  O
  O236     1.0000 0.85570  0.04590  0.51230  Biso   1.000  O
  C518     1.0000 0.89790  0.14290  0.54130  Biso   1.000  C
  H450     1.0000 0.89620  0.10680  0.55350  Biso   1.000  H
  C519     1.0000 0.92240  0.19130  0.55110  Biso   1.000  C
  C520     1.0000 0.94190  0.19040  0.58270  Biso   1.000  C
  O237     1.0000 0.96960  0.22890  0.58650  Biso   1.000  O
  O238     1.0000 0.93100  0.15400  0.60400  Biso   1.000  O
  C521     1.0000 0.92650  0.24130  0.53050  Biso   1.000  C
  H451     1.0000 0.94210  0.27400  0.53680  Biso   1.000  H
  C522     1.0000 0.90800  0.24460  0.50080  Biso   1.000  C
  C523     1.0000 0.90930  0.30020  0.48140  Biso   1.000  C
  N87      1.0000 0.91310  0.34320  0.46550  Biso   1.000  N
  C524     1.0000 0.88190  0.19850  0.49180  Biso   1.000  C
  H452     1.0000 0.86860  0.20010  0.47240  Biso   1.000  H
  C525     1.0000 0.05490  0.06640  0.61060  Biso   1.000  C
  C526     1.0000 0.03030  0.12380  0.61320  Biso   1.000  C
  O239     1.0000 0.04090  0.17030  0.59830  Biso   1.000  O
  O240     1.0000 0.00350  0.11850  0.63260  Biso   1.000  O
  C527     1.0000 0.08420  0.06320  0.58760  Biso   1.000  C
  H453     1.0000 0.08830  0.09720  0.57430  Biso   1.000  H
  C528     1.0000 0.10800  0.01060  0.58380  Biso   1.000  C
  C529     1.0000 0.13930  0.00960  0.56020  Biso   1.000  C
  O241     1.0000 0.13710  0.04930  0.53710  Biso   1.000  O
  O242     1.0000 0.16400  0.96930  0.56330  Biso   1.000  O
  C530     1.0000 0.10200  0.96060  0.60130  Biso   1.000  C
  H454     1.0000 0.11690  0.92550  0.59820  Biso   1.000  H
  C531     1.0000 0.07190  0.96070  0.62560  Biso   1.000  C
  C532     1.0000 0.06200  0.90200  0.63380  Biso   1.000  C
  N88      1.0000 0.05800  0.87100  0.65620  Biso   1.000  N
  C533     1.0000 0.04860  0.01670  0.62980  Biso   1.000  C
  H455     1.0000 0.02950  0.01790  0.64550  Biso   1.000  H
  C534     1.0000 0.02200  0.35280  0.51000  Biso   1.000  C
  C535     1.0000 0.02200  0.32830  0.54290  Biso   1.000  C
  O243     1.0000 0.99900  0.35080  0.56440  Biso   1.000  O
  O244     1.0000 0.04350  0.28390  0.55040  Biso   1.000  O
  C536     1.0000 0.04700  0.33200  0.48680  Biso   1.000  C
  H456     1.0000 0.06330  0.29960  0.49200  Biso   1.000  H
  C537     1.0000 0.04890  0.35650  0.45630  Biso   1.000  C
  C538     1.0000 0.07720  0.33270  0.43420  Biso   1.000  C
  O245     1.0000 0.08490  0.36670  0.40960  Biso   1.000  O
  O246     1.0000 0.09280  0.28060  0.43840  Biso   1.000  O
  C539     1.0000 0.02330  0.40200  0.44780  Biso   1.000  C
  H457     1.0000 0.02420  0.41870  0.42700  Biso   1.000  H
  C540     1.0000 0.99580  0.42350  0.46980  Biso   1.000  C
  C541     1.0000 0.96850  0.47230  0.45980  Biso   1.000  C
  N89      1.0000 0.94780  0.50870  0.45200  Biso   1.000  N
  C542     1.0000 0.99540  0.40010  0.50060  Biso   1.000  C
  H458     1.0000 0.97780  0.41510  0.51560  Biso   1.000  H
  C543     1.0000 0.05780  0.23260  0.70710  Biso   1.000  C
  C544     1.0000 0.02600  0.21530  0.68630  Biso   1.000  C
  O247     1.0000 0.02630  0.24350  0.65810  Biso   1.000  O
  O248     1.0000 0.00110  0.17950  0.69480  Biso   1.000  O
  C545     1.0000 0.06080  0.20430  0.73810  Biso   1.000  C
  H459     1.0000 0.04240  0.17630  0.74520  Biso   1.000  H
  C546     1.0000 0.09180  0.21970  0.75740  Biso   1.000  C
  C547     1.0000 0.09440  0.19090  0.79080  Biso   1.000  C
  O249     1.0000 0.06460  0.16320  0.80130  Biso   1.000  O
  O250     1.0000 0.12450  0.19840  0.80730  Biso   1.000  O
  C548     1.0000 0.11960  0.25840  0.74780  Biso   1.000  C
  H460     1.0000 0.14150  0.26650  0.75990  Biso   1.000  H
  C549     1.0000 0.11260  0.28500  0.71800  Biso   1.000  C
  C550     1.0000 0.14180  0.32100  0.70800  Biso   1.000  C
  N90      1.0000 0.16270  0.35900  0.69980  Biso   1.000  N
  C551     1.0000 0.08520  0.27260  0.69680  Biso   1.000  C
  H461     1.0000 0.08470  0.29010  0.67620  Biso   1.000  H
  C552     1.0000 0.95190  0.94740  0.67100  Biso   1.000  C
  C553     1.0000 0.94950  0.01540  0.66850  Biso   1.000  C
  O251     1.0000 0.96640  0.04940  0.68850  Biso   1.000  O
  O252     1.0000 0.93040  0.03790  0.64560  Biso   1.000  O
  C554     1.0000 0.93510  0.91110  0.64930  Biso   1.000  C
  H462     1.0000 0.92160  0.92900  0.63230  Biso   1.000  H
  C555     1.0000 0.93720  0.84490  0.65150  Biso   1.000  C
  C556     1.0000 0.91530  0.80660  0.62740  Biso   1.000  C
  O253     1.0000 0.90110  0.82960  0.60230  Biso   1.000  O
  O254     1.0000 0.91390  0.75000  0.63400  Biso   1.000  O
  C557     1.0000 0.95530  0.82150  0.67700  Biso   1.000  C
  H463     1.0000 0.95540  0.77880  0.67980  Biso   1.000  H
  C558     1.0000 0.97400  0.85870  0.69980  Biso   1.000  C
  C559     1.0000 0.99500  0.83230  0.72630  Biso   1.000  C
  N91      1.0000 0.01250  0.81390  0.74830  Biso   1.000  N
  C560     1.0000 0.97120  0.92060  0.69660  Biso   1.000  C
  H464     1.0000 0.98250  0.94600  0.71210  Biso   1.000  H
  C561     1.0000 0.74180  0.02940  0.56600  Biso   1.000  C
  C562     1.0000 0.76430  0.02140  0.53520  Biso   1.000  C
  O255     1.0000 0.75660  0.05490  0.51150  Biso   1.000  O
  O256     1.0000 0.78840  0.97450  0.53420  Biso   1.000  O
  C563     1.0000 0.71880  0.07860  0.56870  Biso   1.000  C
  H465     1.0000 0.71540  0.10520  0.55120  Biso   1.000  H
  C564     1.0000 0.70040  0.08960  0.59700  Biso   1.000  C
  C565     1.0000 0.67360  0.14530  0.60170  Biso   1.000  C
  O257     1.0000 0.67270  0.18180  0.57890  Biso   1.000  O
  O258     1.0000 0.65430  0.15160  0.62740  Biso   1.000  O
  C566     1.0000 0.70480  0.05040  0.62480  Biso   1.000  C
  H466     1.0000 0.69280  0.05940  0.64430  Biso   1.000  H
  C567     1.0000 0.72780  0.99900  0.62140  Biso   1.000  C
  C568     1.0000 0.73470  0.95940  0.64860  Biso   1.000  C
  N92      1.0000 0.73950  0.92780  0.66910  Biso   1.000  N
  C569     1.0000 0.74760  0.99250  0.59280  Biso   1.000  C
  H467     1.0000 0.76600  0.96150  0.59140  Biso   1.000  H
  C570     1.0000 0.91730  0.35070  0.66490  Biso   1.000  C
  C571     1.0000 0.94640  0.30710  0.64890  Biso   1.000  C
  O259     1.0000 0.97180  0.32800  0.63180  Biso   1.000  O
  O260     1.0000 0.94040  0.25050  0.65710  Biso   1.000  O
  C572     1.0000 0.91980  0.41400  0.65870  Biso   1.000  C
  H468     1.0000 0.93970  0.42840  0.64580  Biso   1.000  H
  C573     1.0000 0.89470  0.45490  0.67070  Biso   1.000  C
  C574     1.0000 0.89920  0.52200  0.66400  Biso   1.000  C
  O261     1.0000 0.92510  0.54000  0.64570  Biso   1.000  O
  O262     1.0000 0.87540  0.56140  0.67630  Biso   1.000  O
  C575     1.0000 0.86520  0.43480  0.68970  Biso   1.000  C
  H469     1.0000 0.84860  0.46350  0.69900  Biso   1.000  H
  C576     1.0000 0.85950  0.37130  0.69550  Biso   1.000  C
  C577     1.0000 0.82720  0.34700  0.71600  Biso   1.000  C
  N93      1.0000 0.80380  0.32930  0.73260  Biso   1.000  N
  O263     1.0000 0.78970  0.79470  0.55370  Biso   1.000  O
  C578     1.0000 0.76220  0.76610  0.53990  Biso   1.000  C
  H470     1.0000 0.76600  0.72640  0.53190  Biso   1.000  H
  N94      1.0000 0.72990  0.79110  0.53720  Biso   1.000  N
  C579     1.0000 0.71980  0.85550  0.54370  Biso   1.000  C
  H471     1.0000 0.70140  0.86930  0.52810  Biso   1.000  H
  H472     1.0000 0.70920  0.85880  0.56500  Biso   1.000  H
  H473     1.0000 0.74240  0.88080  0.54220  Biso   1.000  H
  C580     1.0000 0.69840  0.75260  0.52200  Biso   1.000  C
  H474     1.0000 0.70950  0.72250  0.50770  Biso   1.000  H
  H475     1.0000 0.68430  0.73190  0.53870  Biso   1.000  H
  H476     1.0000 0.68150  0.77900  0.51000  Biso   1.000  H
  O264     1.0000 0.91030  0.94510  0.52670  Biso   1.000  O
  C581     1.0000 0.93420  0.98500  0.52590  Biso   1.000  C
  H477     1.0000 0.93510  0.00360  0.50570  Biso   1.000  H
  N95      1.0000 0.95880  0.00890  0.54510  Biso   1.000  N
  C582     1.0000 0.98700  0.05720  0.53920  Biso   1.000  C
  H478     1.0000 0.98800  0.08460  0.55740  Biso   1.000  H
  H479     1.0000 0.01170  0.03860  0.53600  Biso   1.000  H
  H480     1.0000 0.98010  0.08010  0.52010  Biso   1.000  H
  C583     1.0000 0.96120  0.98170  0.57690  Biso   1.000  C
  H481     1.0000 0.94120  0.95160  0.57940  Biso   1.000  H
  H482     1.0000 0.98560  0.96200  0.57940  Biso   1.000  H
  H483     1.0000 0.95830  0.01340  0.59300  Biso   1.000  H
  O265     1.0000 0.70950  0.04570  0.45650  Biso   1.000  O
  C584     1.0000 0.68610  0.07120  0.47480  Biso   1.000  C
  H484     1.0000 0.68800  0.11390  0.47690  Biso   1.000  H
  N96      1.0000 0.65760  0.04260  0.49240  Biso   1.000  N
  C585     1.0000 0.62900  0.07880  0.51130  Biso   1.000  C
  H485     1.0000 0.60640  0.08460  0.49850  Biso   1.000  H
  H486     1.0000 0.62270  0.05670  0.53080  Biso   1.000  H
  H487     1.0000 0.63970  0.11830  0.51690  Biso   1.000  H
  C586     1.0000 0.64780  0.97210  0.48840  Biso   1.000  C
  H488     1.0000 0.67090  0.94820  0.48960  Biso   1.000  H
  H489     1.0000 0.63070  0.95950  0.50540  Biso   1.000  H
  H490     1.0000 0.63580  0.96550  0.46780  Biso   1.000  H
  O266     1.0000 0.04950  0.37000  0.62300  Biso   1.000  O
  C587     1.0000 0.03300  0.42020  0.62480  Biso   1.000  C
  H491     1.0000 0.00810  0.42330  0.61710  Biso   1.000  H
  N97      1.0000 0.04940  0.46940  0.63710  Biso   1.000  N
  C588     1.0000 0.02870  0.52760  0.63630  Biso   1.000  C
  H492     1.0000 0.01370  0.53160  0.65570  Biso   1.000  H
  H493     1.0000 0.04650  0.56120  0.63500  Biso   1.000  H
  H494     1.0000 0.01210  0.52830  0.61780  Biso   1.000  H
  C589     1.0000 0.08900  0.46400  0.64790  Biso   1.000  C
  H495     1.0000 0.08970  0.46350  0.67110  Biso   1.000  H
  H496     1.0000 0.09990  0.42680  0.63950  Biso   1.000  H
  H497     1.0000 0.10330  0.49910  0.64010  Biso   1.000  H
  O267     1.0000 0.92260  0.15980  0.71370  Biso   1.000  O
  C590     1.0000 0.91990  0.20180  0.73270  Biso   1.000  C
  H498     1.0000 0.94210  0.22550  0.73310  Biso   1.000  H
  N98      1.0000 0.89510  0.22290  0.75260  Biso   1.000  N
  C591     1.0000 0.89430  0.28170  0.76970  Biso   1.000  C
  H499     1.0000 0.91490  0.30730  0.76220  Biso   1.000  H
  H500     1.0000 0.87040  0.30220  0.76560  Biso   1.000  H
  H501     1.0000 0.89710  0.27460  0.79250  Biso   1.000  H
  C592     1.0000 0.86030  0.18600  0.75480  Biso   1.000  C
  H502     1.0000 0.83870  0.21310  0.75710  Biso   1.000  H
  H503     1.0000 0.85750  0.16180  0.73550  Biso   1.000  H
  H504     1.0000 0.86190  0.15930  0.77330  Biso   1.000  H
  O268     1.0000 0.88130  0.15010  0.65730  Biso   1.000  O
  C593     1.0000 0.86200  0.12320  0.63640  Biso   1.000  C
  H505     1.0000 0.86630  0.08120  0.63310  Biso   1.000  H
  N99      1.0000 0.83560  0.15110  0.61850  Biso   1.000  N
  C594     1.0000 0.81130  0.12920  0.59490  Biso   1.000  C
  H506     1.0000 0.78920  0.11110  0.60490  Biso   1.000  H
  H507     1.0000 0.80350  0.16280  0.58120  Biso   1.000  H
  H508     1.0000 0.82430  0.09860  0.58220  Biso   1.000  H
  C595     1.0000 0.83980  0.21700  0.62480  Biso   1.000  C
  H509     1.0000 0.86580  0.22900  0.62090  Biso   1.000  H
  H510     1.0000 0.82310  0.23970  0.61070  Biso   1.000  H
  H511     1.0000 0.83320  0.22540  0.64690  Biso   1.000  H
  O269     1.0000 0.02670  0.34360  0.36390  Biso   1.000  O
  C596     1.0000 0.99910  0.33310  0.34790  Biso   1.000  C
  H512     1.0000 0.00260  0.33770  0.32570  Biso   1.000  H
  N100     1.0000 0.96580  0.31670  0.35630  Biso   1.000  N
  C597     1.0000 0.95740  0.30900  0.39030  Biso   1.000  C
  H513     1.0000 0.93520  0.28360  0.39280  Biso   1.000  H
  H514     1.0000 0.97880  0.29040  0.40100  Biso   1.000  H
  H515     1.0000 0.95250  0.34920  0.39980  Biso   1.000  H
  C598     1.0000 0.93440  0.31100  0.33340  Biso   1.000  C
  H516     1.0000 0.93820  0.33980  0.31590  Biso   1.000  H
  H517     1.0000 0.93350  0.26990  0.32510  Biso   1.000  H
  H518     1.0000 0.91070  0.32050  0.34420  Biso   1.000  H
  O270     1.0000 0.09210  0.26720  0.60950  Biso   1.000  O
  C599     1.0000 0.12600  0.26100  0.60590  Biso   1.000  C
  H519     1.0000 0.13780  0.22370  0.61080  Biso   1.000  H
  N101     1.0000 0.14620  0.30800  0.59500  Biso   1.000  N
  C600     1.0000 0.18850  0.30700  0.59100  Biso   1.000  C
  H520     1.0000 0.20050  0.31440  0.61150  Biso   1.000  H
  H521     1.0000 0.19610  0.26670  0.58310  Biso   1.000  H
  H522     1.0000 0.19610  0.33790  0.57580  Biso   1.000  H
  C601     1.0000 0.12900  0.36900  0.58600  Biso   1.000  C
  H523     1.0000 0.12350  0.36860  0.56290  Biso   1.000  H
  H524     1.0000 0.10630  0.37580  0.59780  Biso   1.000  H
  H525     1.0000 0.14730  0.40130  0.59020  Biso   1.000  H
  O271     1.0000 0.82310  0.79450  0.61930  Biso   1.000  O
  C602     1.0000 0.81650  0.78530  0.64750  Biso   1.000  C
  H526     1.0000 0.83780  0.78440  0.66100  Biso   1.000  H
  N102     1.0000 0.78470  0.77670  0.66140  Biso   1.000  N
  C603     1.0000 0.78330  0.77900  0.69640  Biso   1.000  C
  H527     1.0000 0.80790  0.79070  0.70460  Biso   1.000  H
  H528     1.0000 0.76450  0.80830  0.70310  Biso   1.000  H
  H529     1.0000 0.77670  0.73860  0.70460  Biso   1.000  H
  C604     1.0000 0.75060  0.77800  0.64130  Biso   1.000  C
  H530     1.0000 0.73760  0.73930  0.64250  Biso   1.000  H
  H531     1.0000 0.73380  0.81050  0.64880  Biso   1.000  H
  H532     1.0000 0.75770  0.78650  0.61920  Biso   1.000  H
  O272     1.0000 0.76100  0.03460  0.40130  Biso   1.000  O
  O273     1.0000 0.84170  0.89000  0.56990  Biso   1.000  O
  C605     1.0000 0.84990  0.93900  0.58830  Biso   1.000  C
  H533     1.0000 0.85120  0.93520  0.61070  Biso   1.000  H
  O274     1.0000 0.85540  0.98610  0.57620  Biso   1.000  O
  O275     1.0000 0.86790  0.83350  0.51860  Biso   1.000  O
  C606     1.0000 0.85840  0.78540  0.50050  Biso   1.000  C
  H534     1.0000 0.85940  0.78920  0.47810  Biso   1.000  H
  O276     1.0000 0.84830  0.73600  0.51230  Biso   1.000  O
  Gd37     1.0000 0.27660  0.43752  0.54341  Biso   1.000  Gd
  Gd38     1.0000 0.52233  0.22427  0.39407  Biso   1.000  Gd
  Gd39     1.0000 0.44891  0.35458  0.33986  Biso   1.000  Gd
  Gd40     1.0000 0.59304  0.14699  0.64623  Biso   1.000  Gd
  Gd41     1.0000 0.35367  0.71973  0.42994  Biso   1.000  Gd
  Gd42     1.0000 0.34570  0.55993  0.48324  Biso   1.000  Gd
  C607     1.0000 0.27420  0.24320  0.56170  Biso   1.000  C
  C608     1.0000 0.27300  0.31190  0.55700  Biso   1.000  C
  O277     1.0000 0.24940  0.33290  0.53740  Biso   1.000  O
  O278     1.0000 0.29270  0.34470  0.57500  Biso   1.000  O
  C609     1.0000 0.24950  0.20510  0.54510  Biso   1.000  C
  H535     1.0000 0.23120  0.22250  0.53150  Biso   1.000  H
  C610     1.0000 0.25120  0.14070  0.54830  Biso   1.000  C
  C611     1.0000 0.22340  0.10020  0.53040  Biso   1.000  C
  O279     1.0000 0.22540  0.04210  0.53610  Biso   1.000  O
  O280     1.0000 0.19980  0.12520  0.51060  Biso   1.000  O
  C612     1.0000 0.27900  0.11390  0.56640  Biso   1.000  C
  H536     1.0000 0.28120  0.07100  0.56750  Biso   1.000  H
  C613     1.0000 0.30460  0.15270  0.58360  Biso   1.000  C
  C614     1.0000 0.33160  0.12610  0.60290  Biso   1.000  C
  N103     1.0000 0.35750  0.10670  0.61940  Biso   1.000  N
  C615     1.0000 0.38600  0.16920  0.31840  Biso   1.000  C
  H537     1.0000 0.38210  0.21160  0.31620  Biso   1.000  H
  C616     1.0000 0.30120  0.21570  0.58090  Biso   1.000  C
  H538     1.0000 0.31790  0.24070  0.59260  Biso   1.000  H
  C617     1.0000 0.37710  0.35040  0.48610  Biso   1.000  C
  C618     1.0000 0.34880  0.40000  0.49720  Biso   1.000  C
  O281     1.0000 0.32210  0.38480  0.51460  Biso   1.000  O
  O282     1.0000 0.35570  0.45410  0.48770  Biso   1.000  O
  C619     1.0000 0.39790  0.35710  0.45870  Biso   1.000  C
  H539     1.0000 0.39620  0.39320  0.44650  Biso   1.000  H
  C620     1.0000 0.42240  0.30870  0.44890  Biso   1.000  C
  C621     1.0000 0.44190  0.30960  0.41730  Biso   1.000  C
  O283     1.0000 0.46960  0.27110  0.41350  Biso   1.000  O
  O284     1.0000 0.43100  0.34600  0.39600  Biso   1.000  O
  C622     1.0000 0.42650  0.25870  0.46950  Biso   1.000  C
  H540     1.0000 0.44210  0.22600  0.46320  Biso   1.000  H
  C623     1.0000 0.40800  0.25540  0.49920  Biso   1.000  C
  C624     1.0000 0.40930  0.19980  0.51860  Biso   1.000  C
  N104     1.0000 0.41310  0.15680  0.53450  Biso   1.000  N
  C625     1.0000 0.38190  0.30150  0.50820  Biso   1.000  C
  H541     1.0000 0.36860  0.29990  0.52760  Biso   1.000  H
  C626     1.0000 0.55490  0.43360  0.38940  Biso   1.000  C
  C627     1.0000 0.53030  0.37620  0.38680  Biso   1.000  C
  O285     1.0000 0.54090  0.32970  0.40170  Biso   1.000  O
  O286     1.0000 0.50350  0.38150  0.36740  Biso   1.000  O
  C628     1.0000 0.58420  0.43680  0.41240  Biso   1.000  C
  H542     1.0000 0.58830  0.40280  0.42570  Biso   1.000  H
  C629     1.0000 0.60800  0.48940  0.41620  Biso   1.000  C
  C630     1.0000 0.63930  0.49040  0.43980  Biso   1.000  C
  O287     1.0000 0.63710  0.45070  0.46290  Biso   1.000  O
  O288     1.0000 0.66400  0.53070  0.43670  Biso   1.000  O
  C631     1.0000 0.60200  0.53940  0.39870  Biso   1.000  C
  H543     1.0000 0.61690  0.57450  0.40180  Biso   1.000  H
  C632     1.0000 0.57190  0.53930  0.37440  Biso   1.000  C
  C633     1.0000 0.56200  0.59800  0.36620  Biso   1.000  C
  N105     1.0000 0.55800  0.62900  0.34380  Biso   1.000  N
  C634     1.0000 0.54860  0.48330  0.37020  Biso   1.000  C
  H544     1.0000 0.52950  0.48210  0.35450  Biso   1.000  H
  C635     1.0000 0.52200  0.14720  0.49000  Biso   1.000  C
  C636     1.0000 0.52200  0.17170  0.45710  Biso   1.000  C
  O289     1.0000 0.49900  0.14920  0.43560  Biso   1.000  O
  O290     1.0000 0.54350  0.21610  0.44960  Biso   1.000  O
  C637     1.0000 0.54700  0.16800  0.51320  Biso   1.000  C
  H545     1.0000 0.56330  0.20040  0.50800  Biso   1.000  H
  C638     1.0000 0.54890  0.14350  0.54370  Biso   1.000  C
  C639     1.0000 0.57720  0.16730  0.56580  Biso   1.000  C
  O291     1.0000 0.58490  0.13330  0.59040  Biso   1.000  O
  O292     1.0000 0.59280  0.21940  0.56160  Biso   1.000  O
  C640     1.0000 0.52330  0.09800  0.55220  Biso   1.000  C
  H546     1.0000 0.52420  0.08130  0.57300  Biso   1.000  H
  C641     1.0000 0.49580  0.07650  0.53020  Biso   1.000  C
  C642     1.0000 0.46850  0.02770  0.54020  Biso   1.000  C
  N106     1.0000 0.44780  0.99130  0.54800  Biso   1.000  N
  C643     1.0000 0.49540  0.09990  0.49940  Biso   1.000  C
  H547     1.0000 0.47780  0.08490  0.48440  Biso   1.000  H
  C644     1.0000 0.55780  0.26740  0.29290  Biso   1.000  C
  C645     1.0000 0.52600  0.28470  0.31370  Biso   1.000  C
  O293     1.0000 0.52630  0.25650  0.34190  Biso   1.000  O
  O294     1.0000 0.50110  0.32050  0.30520  Biso   1.000  O
  C646     1.0000 0.56080  0.29570  0.26190  Biso   1.000  C
  H548     1.0000 0.54240  0.32370  0.25480  Biso   1.000  H
  C647     1.0000 0.59180  0.28030  0.24260  Biso   1.000  C
  C648     1.0000 0.59440  0.30910  0.20920  Biso   1.000  C
  O295     1.0000 0.56460  0.33680  0.19870  Biso   1.000  O
  O296     1.0000 0.62450  0.30160  0.19270  Biso   1.000  O
  C649     1.0000 0.61960  0.24160  0.25220  Biso   1.000  C
  H549     1.0000 0.64150  0.23350  0.24010  Biso   1.000  H
  C650     1.0000 0.61260  0.21500  0.28200  Biso   1.000  C
  C651     1.0000 0.64180  0.17900  0.29200  Biso   1.000  C
  N107     1.0000 0.66270  0.14100  0.30020  Biso   1.000  N
  C652     1.0000 0.58520  0.22740  0.30320  Biso   1.000  C
  H550     1.0000 0.58470  0.20990  0.32380  Biso   1.000  H
  C653     1.0000 0.45190  0.55260  0.32900  Biso   1.000  C
  C654     1.0000 0.44950  0.48460  0.33150  Biso   1.000  C
  O297     1.0000 0.46640  0.45060  0.31150  Biso   1.000  O
  O298     1.0000 0.43040  0.46210  0.35440  Biso   1.000  O
  C655     1.0000 0.43510  0.58890  0.35070  Biso   1.000  C
  H551     1.0000 0.42160  0.57100  0.36770  Biso   1.000  H
  C656     1.0000 0.43720  0.65510  0.34850  Biso   1.000  C
  C657     1.0000 0.41530  0.69340  0.37260  Biso   1.000  C
  O299     1.0000 0.40110  0.67040  0.39770  Biso   1.000  O
  O300     1.0000 0.41390  0.75000  0.36600  Biso   1.000  O
  C658     1.0000 0.45530  0.67850  0.32300  Biso   1.000  C
  H552     1.0000 0.45540  0.72120  0.32020  Biso   1.000  H
  C659     1.0000 0.47400  0.64130  0.30020  Biso   1.000  C
  C660     1.0000 0.49500  0.66770  0.27370  Biso   1.000  C
  N108     1.0000 0.51250  0.68610  0.25170  Biso   1.000  N
  C661     1.0000 0.47120  0.57940  0.30340  Biso   1.000  C
  H553     1.0000 0.48250  0.55400  0.28790  Biso   1.000  H
  C662     1.0000 0.24180  0.47060  0.43400  Biso   1.000  C
  C663     1.0000 0.26430  0.47860  0.46480  Biso   1.000  C
  O301     1.0000 0.25660  0.44510  0.48850  Biso   1.000  O
  O302     1.0000 0.28840  0.52550  0.46580  Biso   1.000  O
  C664     1.0000 0.21880  0.42140  0.43130  Biso   1.000  C
  H554     1.0000 0.21540  0.39480  0.44880  Biso   1.000  H
  C665     1.0000 0.20040  0.41040  0.40300  Biso   1.000  C
  C666     1.0000 0.17360  0.35470  0.39830  Biso   1.000  C
  O303     1.0000 0.17270  0.31820  0.42110  Biso   1.000  O
  O304     1.0000 0.15430  0.34840  0.37260  Biso   1.000  O
  C667     1.0000 0.20480  0.44960  0.37520  Biso   1.000  C
  H555     1.0000 0.19280  0.44060  0.35570  Biso   1.000  H
  C668     1.0000 0.22780  0.50100  0.37860  Biso   1.000  C
  C669     1.0000 0.23470  0.54060  0.35140  Biso   1.000  C
  N109     1.0000 0.23950  0.57220  0.33090  Biso   1.000  N
  C670     1.0000 0.24760  0.50750  0.40720  Biso   1.000  C
  H556     1.0000 0.26600  0.53850  0.40860  Biso   1.000  H
  C671     1.0000 0.41730  0.14930  0.33510  Biso   1.000  C
  C672     1.0000 0.44640  0.19290  0.35110  Biso   1.000  C
  O305     1.0000 0.47180  0.17200  0.36820  Biso   1.000  O
  O306     1.0000 0.44040  0.24950  0.34290  Biso   1.000  O
  C673     1.0000 0.41980  0.08600  0.34130  Biso   1.000  C
  H557     1.0000 0.43970  0.07160  0.35420  Biso   1.000  H
  C674     1.0000 0.39470  0.04510  0.32930  Biso   1.000  C
  C675     1.0000 0.39920  0.97800  0.33600  Biso   1.000  C
  O307     1.0000 0.42510  0.96000  0.35430  Biso   1.000  O
  O308     1.0000 0.37540  0.93860  0.32370  Biso   1.000  O
  C676     1.0000 0.36520  0.06520  0.31030  Biso   1.000  C
  H558     1.0000 0.34860  0.03650  0.30100  Biso   1.000  H
  C677     1.0000 0.35950  0.12870  0.30450  Biso   1.000  C
  C678     1.0000 0.32720  0.15300  0.28400  Biso   1.000  C
  N110     1.0000 0.30380  0.17070  0.26740  Biso   1.000  N
  O309     1.0000 0.28970  0.70530  0.44630  Biso   1.000  O
  C679     1.0000 0.26220  0.73390  0.46010  Biso   1.000  C
  H559     1.0000 0.26600  0.77360  0.46810  Biso   1.000  H
  N111     1.0000 0.22990  0.70890  0.46280  Biso   1.000  N
  C680     1.0000 0.21980  0.64450  0.45630  Biso   1.000  C
  H560     1.0000 0.20140  0.63070  0.47190  Biso   1.000  H
  H561     1.0000 0.20920  0.64120  0.43500  Biso   1.000  H
  H562     1.0000 0.24240  0.61920  0.45780  Biso   1.000  H
  C681     1.0000 0.19840  0.74740  0.47800  Biso   1.000  C
  H563     1.0000 0.20950  0.77750  0.49230  Biso   1.000  H
  H564     1.0000 0.18430  0.76810  0.46130  Biso   1.000  H
  H565     1.0000 0.18150  0.72100  0.49000  Biso   1.000  H
  O310     1.0000 0.41030  0.55490  0.47330  Biso   1.000  O
  C682     1.0000 0.43420  0.51500  0.47410  Biso   1.000  C
  H566     1.0000 0.43510  0.49640  0.49430  Biso   1.000  H
  N112     1.0000 0.45880  0.49110  0.45490  Biso   1.000  N
  C683     1.0000 0.48700  0.44280  0.46080  Biso   1.000  C
  H567     1.0000 0.48800  0.41540  0.44260  Biso   1.000  H
  H568     1.0000 0.51170  0.46140  0.46400  Biso   1.000  H
  H569     1.0000 0.48010  0.41990  0.47990  Biso   1.000  H
  C684     1.0000 0.46120  0.51830  0.42310  Biso   1.000  C
  H570     1.0000 0.44120  0.54840  0.42060  Biso   1.000  H
  H571     1.0000 0.48560  0.53800  0.42060  Biso   1.000  H
  H572     1.0000 0.45830  0.48660  0.40700  Biso   1.000  H
  O311     1.0000 0.20950  0.45430  0.54350  Biso   1.000  O
  C685     1.0000 0.18610  0.42880  0.52520  Biso   1.000  C
  H573     1.0000 0.18800  0.38610  0.52310  Biso   1.000  H
  N113     1.0000 0.15760  0.45740  0.50760  Biso   1.000  N
  C686     1.0000 0.12900  0.42120  0.48870  Biso   1.000  C
  H574     1.0000 0.10640  0.41540  0.50150  Biso   1.000  H
  H575     1.0000 0.12270  0.44330  0.46920  Biso   1.000  H
  H576     1.0000 0.13970  0.38170  0.48310  Biso   1.000  H
  C687     1.0000 0.14780  0.52790  0.51160  Biso   1.000  C
  H577     1.0000 0.17090  0.55180  0.51040  Biso   1.000  H
  H578     1.0000 0.13070  0.54050  0.49460  Biso   1.000  H
  H579     1.0000 0.13580  0.53450  0.53220  Biso   1.000  H
  O312     1.0000 0.54950  0.13000  0.37700  Biso   1.000  O
  C688     1.0000 0.53300  0.07980  0.37520  Biso   1.000  C
  H580     1.0000 0.50810  0.07670  0.38290  Biso   1.000  H
  N114     1.0000 0.54940  0.03060  0.36290  Biso   1.000  N
  C689     1.0000 0.52870  0.97240  0.36370  Biso   1.000  C
  H581     1.0000 0.51370  0.96840  0.34430  Biso   1.000  H
  H582     1.0000 0.54650  0.93880  0.36500  Biso   1.000  H
  H583     1.0000 0.51210  0.97170  0.38220  Biso   1.000  H
  C690     1.0000 0.58900  0.03600  0.35210  Biso   1.000  C
  H584     1.0000 0.58970  0.03650  0.32890  Biso   1.000  H
  H585     1.0000 0.59990  0.07320  0.36050  Biso   1.000  H
  H586     1.0000 0.60330  0.00090  0.35990  Biso   1.000  H
  O313     1.0000 0.42260  0.34020  0.28630  Biso   1.000  O
  C691     1.0000 0.41990  0.29820  0.26730  Biso   1.000  C
  H587     1.0000 0.44210  0.27450  0.26690  Biso   1.000  H
  N115     1.0000 0.39510  0.27710  0.24740  Biso   1.000  N
  C692     1.0000 0.39430  0.21830  0.23030  Biso   1.000  C
  H588     1.0000 0.41490  0.19270  0.23780  Biso   1.000  H
  H589     1.0000 0.37040  0.19780  0.23440  Biso   1.000  H
  H590     1.0000 0.39710  0.22540  0.20750  Biso   1.000  H
  C693     1.0000 0.36030  0.31400  0.24520  Biso   1.000  C
  H591     1.0000 0.33870  0.28690  0.24290  Biso   1.000  H
  H592     1.0000 0.35750  0.33820  0.26450  Biso   1.000  H
  H593     1.0000 0.36190  0.34070  0.22670  Biso   1.000  H
  O314     1.0000 0.38130  0.34990  0.34270  Biso   1.000  O
  C694     1.0000 0.36200  0.37680  0.36360  Biso   1.000  C
  H594     1.0000 0.36630  0.41880  0.36690  Biso   1.000  H
  N116     1.0000 0.33560  0.34890  0.38150  Biso   1.000  N
  C695     1.0000 0.31130  0.37080  0.40510  Biso   1.000  C
  H595     1.0000 0.28920  0.38890  0.39510  Biso   1.000  H
  H596     1.0000 0.30350  0.33720  0.41880  Biso   1.000  H
  H597     1.0000 0.32430  0.40140  0.41780  Biso   1.000  H
  C696     1.0000 0.33980  0.28300  0.37520  Biso   1.000  C
  H598     1.0000 0.36580  0.27100  0.37910  Biso   1.000  H
  H599     1.0000 0.32310  0.26030  0.38930  Biso   1.000  H
  H600     1.0000 0.33320  0.27460  0.35310  Biso   1.000  H
  O315     1.0000 0.52670  0.15640  0.63610  Biso   1.000  O
  C697     1.0000 0.49910  0.16690  0.65210  Biso   1.000  C
  H601     1.0000 0.50260  0.16230  0.67430  Biso   1.000  H
  N117     1.0000 0.46580  0.18330  0.64370  Biso   1.000  N
  C698     1.0000 0.45740  0.19100  0.60970  Biso   1.000  C
  H602     1.0000 0.43520  0.21640  0.60720  Biso   1.000  H
  H603     1.0000 0.47880  0.20960  0.59900  Biso   1.000  H
  H604     1.0000 0.45250  0.15080  0.60020  Biso   1.000  H
  C699     1.0000 0.43440  0.18900  0.66660  Biso   1.000  C
  H605     1.0000 0.43820  0.16020  0.68410  Biso   1.000  H
  H606     1.0000 0.43350  0.23010  0.67490  Biso   1.000  H
  H607     1.0000 0.41070  0.17950  0.65580  Biso   1.000  H
  O316     1.0000 0.59210  0.23280  0.39050  Biso   1.000  O
  C700     1.0000 0.62600  0.23900  0.39410  Biso   1.000  C
  H608     1.0000 0.63780  0.27630  0.38920  Biso   1.000  H
  N118     1.0000 0.64620  0.19200  0.40500  Biso   1.000  N
  C701     1.0000 0.68850  0.19300  0.40900  Biso   1.000  C
  H609     1.0000 0.70050  0.18560  0.38850  Biso   1.000  H
  H610     1.0000 0.69610  0.23330  0.41690  Biso   1.000  H
  H611     1.0000 0.69610  0.16210  0.42420  Biso   1.000  H
  C702     1.0000 0.62900  0.13100  0.41400  Biso   1.000  C
  H612     1.0000 0.62350  0.13140  0.43710  Biso   1.000  H
  H613     1.0000 0.60630  0.12420  0.40220  Biso   1.000  H
  H614     1.0000 0.64730  0.09870  0.40980  Biso   1.000  H
  O317     1.0000 0.32310  0.70550  0.38070  Biso   1.000  O
  C703     1.0000 0.31650  0.71470  0.35250  Biso   1.000  C
  H615     1.0000 0.33780  0.71560  0.33900  Biso   1.000  H
  N119     1.0000 0.28470  0.72330  0.33860  Biso   1.000  N
  C704     1.0000 0.28330  0.72100  0.30360  Biso   1.000  C
  H616     1.0000 0.30790  0.70930  0.29540  Biso   1.000  H
  H617     1.0000 0.26450  0.69170  0.29690  Biso   1.000  H
  H618     1.0000 0.27670  0.76140  0.29540  Biso   1.000  H
  C705     1.0000 0.25060  0.72200  0.35870  Biso   1.000  C
  H619     1.0000 0.23760  0.76070  0.35750  Biso   1.000  H
  H620     1.0000 0.23380  0.68950  0.35120  Biso   1.000  H
  H621     1.0000 0.25770  0.71350  0.38080  Biso   1.000  H
  O318     1.0000 0.26100  0.46540  0.59870  Biso   1.000  O
  O319     1.0000 0.34170  0.61000  0.43010  Biso   1.000  O
  C706     1.0000 0.34990  0.56100  0.41170  Biso   1.000  C
  H622     1.0000 0.35120  0.56480  0.38930  Biso   1.000  H
  O320     1.0000 0.35540  0.51390  0.42380  Biso   1.000  O
  O321     1.0000 0.36790  0.66650  0.48140  Biso   1.000  O
  C707     1.0000 0.35840  0.71460  0.49950  Biso   1.000  C
  H623     1.0000 0.35940  0.71080  0.52190  Biso   1.000  H
  O322     1.0000 0.34830  0.76400  0.48770  Biso   1.000  O
  Gd43     1.0000 0.22340  0.56248  0.04341  Biso   1.000  Gd
  Gd44     1.0000 0.97767  0.77573  0.89407  Biso   1.000  Gd
  Gd45     1.0000 0.05109  0.64542  0.83986  Biso   1.000  Gd
  Gd46     1.0000 0.90696  0.85301  0.14623  Biso   1.000  Gd
  Gd47     1.0000 0.14633  0.28027  0.92994  Biso   1.000  Gd
  Gd48     1.0000 0.15430  0.44007  0.98324  Biso   1.000  Gd
  C708     1.0000 0.22580  0.75680  0.06170  Biso   1.000  C
  C709     1.0000 0.22700  0.68810  0.05700  Biso   1.000  C
  O323     1.0000 0.25060  0.66710  0.03740  Biso   1.000  O
  O324     1.0000 0.20730  0.65530  0.07500  Biso   1.000  O
  C710     1.0000 0.25050  0.79490  0.04510  Biso   1.000  C
  H624     1.0000 0.26880  0.77750  0.03150  Biso   1.000  H
  C711     1.0000 0.24880  0.85930  0.04830  Biso   1.000  C
  C712     1.0000 0.27660  0.89980  0.03040  Biso   1.000  C
  O325     1.0000 0.27460  0.95790  0.03610  Biso   1.000  O
  O326     1.0000 0.30020  0.87480  0.01060  Biso   1.000  O
  C713     1.0000 0.22100  0.88610  0.06640  Biso   1.000  C
  H625     1.0000 0.21880  0.92900  0.06750  Biso   1.000  H
  C714     1.0000 0.19540  0.84730  0.08360  Biso   1.000  C
  C715     1.0000 0.16840  0.87390  0.10290  Biso   1.000  C
  N120     1.0000 0.14250  0.89330  0.11940  Biso   1.000  N
  C716     1.0000 0.11400  0.83080  0.81840  Biso   1.000  C
  H626     1.0000 0.11790  0.78840  0.81620  Biso   1.000  H
  C717     1.0000 0.19880  0.78430  0.08090  Biso   1.000  C
  H627     1.0000 0.18210  0.75930  0.09260  Biso   1.000  H
  C718     1.0000 0.12290  0.64960  0.98610  Biso   1.000  C
  C719     1.0000 0.15120  0.60000  0.99720  Biso   1.000  C
  O327     1.0000 0.17790  0.61520  0.01460  Biso   1.000  O
  O328     1.0000 0.14430  0.54590  0.98770  Biso   1.000  O
  C720     1.0000 0.10210  0.64290  0.95870  Biso   1.000  C
  H628     1.0000 0.10380  0.60680  0.94650  Biso   1.000  H
  C721     1.0000 0.07760  0.69130  0.94890  Biso   1.000  C
  C722     1.0000 0.05810  0.69040  0.91730  Biso   1.000  C
  O329     1.0000 0.03040  0.72890  0.91350  Biso   1.000  O
  O330     1.0000 0.06900  0.65400  0.89600  Biso   1.000  O
  C723     1.0000 0.07350  0.74130  0.96950  Biso   1.000  C
  H629     1.0000 0.05790  0.77400  0.96320  Biso   1.000  H
  C724     1.0000 0.09200  0.74460  0.99920  Biso   1.000  C
  C725     1.0000 0.09070  0.80020  0.01860  Biso   1.000  C
  N121     1.0000 0.08690  0.84320  0.03450  Biso   1.000  N
  C726     1.0000 0.11810  0.69850  0.00820  Biso   1.000  C
  H630     1.0000 0.13140  0.70010  0.02760  Biso   1.000  H
  C727     1.0000 0.94510  0.56640  0.88940  Biso   1.000  C
  C728     1.0000 0.96970  0.62380  0.88680  Biso   1.000  C
  O331     1.0000 0.95910  0.67030  0.90170  Biso   1.000  O
  O332     1.0000 0.99650  0.61850  0.86740  Biso   1.000  O
  C729     1.0000 0.91580  0.56320  0.91240  Biso   1.000  C
  H631     1.0000 0.91170  0.59720  0.92570  Biso   1.000  H
  C730     1.0000 0.89200  0.51060  0.91620  Biso   1.000  C
  C731     1.0000 0.86070  0.50960  0.93980  Biso   1.000  C
  O333     1.0000 0.86290  0.54930  0.96290  Biso   1.000  O
  O334     1.0000 0.83600  0.46930  0.93670  Biso   1.000  O
  C732     1.0000 0.89800  0.46060  0.89870  Biso   1.000  C
  H632     1.0000 0.88310  0.42550  0.90180  Biso   1.000  H
  C733     1.0000 0.92810  0.46070  0.87440  Biso   1.000  C
  C734     1.0000 0.93800  0.40200  0.86620  Biso   1.000  C
  N122     1.0000 0.94200  0.37100  0.84380  Biso   1.000  N
  C735     1.0000 0.95140  0.51670  0.87020  Biso   1.000  C
  H633     1.0000 0.97050  0.51790  0.85450  Biso   1.000  H
  C736     1.0000 0.97800  0.85280  0.99000  Biso   1.000  C
  C737     1.0000 0.97800  0.82830  0.95710  Biso   1.000  C
  O335     1.0000 0.00100  0.85080  0.93560  Biso   1.000  O
  O336     1.0000 0.95650  0.78390  0.94960  Biso   1.000  O
  C738     1.0000 0.95300  0.83200  0.01320  Biso   1.000  C
  H634     1.0000 0.93670  0.79960  0.00800  Biso   1.000  H
  C739     1.0000 0.95110  0.85650  0.04370  Biso   1.000  C
  C740     1.0000 0.92280  0.83270  0.06580  Biso   1.000  C
  O337     1.0000 0.91510  0.86670  0.09040  Biso   1.000  O
  O338     1.0000 0.90720  0.78060  0.06160  Biso   1.000  O
  C741     1.0000 0.97670  0.90200  0.05220  Biso   1.000  C
  H635     1.0000 0.97580  0.91870  0.07300  Biso   1.000  H
  C742     1.0000 0.00420  0.92350  0.03020  Biso   1.000  C
  C743     1.0000 0.03150  0.97230  0.04020  Biso   1.000  C
  N123     1.0000 0.05220  0.00870  0.04800  Biso   1.000  N
  C744     1.0000 0.00460  0.90010  0.99940  Biso   1.000  C
  H636     1.0000 0.02220  0.91510  0.98440  Biso   1.000  H
  C745     1.0000 0.94220  0.73260  0.79290  Biso   1.000  C
  C746     1.0000 0.97400  0.71530  0.81370  Biso   1.000  C
  O339     1.0000 0.97370  0.74350  0.84190  Biso   1.000  O
  O340     1.0000 0.99890  0.67950  0.80520  Biso   1.000  O
  C747     1.0000 0.93920  0.70430  0.76190  Biso   1.000  C
  H637     1.0000 0.95760  0.67630  0.75480  Biso   1.000  H
  C748     1.0000 0.90820  0.71970  0.74260  Biso   1.000  C
  C749     1.0000 0.90560  0.69090  0.70920  Biso   1.000  C
  O341     1.0000 0.93540  0.66320  0.69870  Biso   1.000  O
  O342     1.0000 0.87550  0.69840  0.69270  Biso   1.000  O
  C750     1.0000 0.88040  0.75840  0.75220  Biso   1.000  C
  H638     1.0000 0.85850  0.76650  0.74010  Biso   1.000  H
  C751     1.0000 0.88740  0.78500  0.78200  Biso   1.000  C
  C752     1.0000 0.85820  0.82100  0.79200  Biso   1.000  C
  N124     1.0000 0.83730  0.85900  0.80020  Biso   1.000  N
  C753     1.0000 0.91480  0.77260  0.80320  Biso   1.000  C
  H639     1.0000 0.91530  0.79010  0.82380  Biso   1.000  H
  C754     1.0000 0.04810  0.44740  0.82900  Biso   1.000  C
  C755     1.0000 0.05050  0.51540  0.83150  Biso   1.000  C
  O343     1.0000 0.03360  0.54940  0.81150  Biso   1.000  O
  O344     1.0000 0.06960  0.53790  0.85440  Biso   1.000  O
  C756     1.0000 0.06490  0.41110  0.85070  Biso   1.000  C
  H640     1.0000 0.07840  0.42900  0.86770  Biso   1.000  H
  C757     1.0000 0.06280  0.34490  0.84850  Biso   1.000  C
  C758     1.0000 0.08470  0.30660  0.87260  Biso   1.000  C
  O345     1.0000 0.09890  0.32960  0.89770  Biso   1.000  O
  O346     1.0000 0.08610  0.25000  0.86600  Biso   1.000  O
  C759     1.0000 0.04470  0.32150  0.82300  Biso   1.000  C
  H641     1.0000 0.04460  0.27880  0.82020  Biso   1.000  H
  C760     1.0000 0.02600  0.35870  0.80020  Biso   1.000  C
  C761     1.0000 0.00500  0.33230  0.77370  Biso   1.000  C
  N125     1.0000 0.98750  0.31390  0.75170  Biso   1.000  N
  C762     1.0000 0.02880  0.42060  0.80340  Biso   1.000  C
  H642     1.0000 0.01750  0.44600  0.78790  Biso   1.000  H
  C763     1.0000 0.25820  0.52940  0.93400  Biso   1.000  C
  C764     1.0000 0.23570  0.52140  0.96480  Biso   1.000  C
  O347     1.0000 0.24340  0.55490  0.98850  Biso   1.000  O
  O348     1.0000 0.21160  0.47450  0.96580  Biso   1.000  O
  C765     1.0000 0.28120  0.57860  0.93130  Biso   1.000  C
  H643     1.0000 0.28460  0.60520  0.94880  Biso   1.000  H
  C766     1.0000 0.29960  0.58960  0.90300  Biso   1.000  C
  C767     1.0000 0.32640  0.64530  0.89830  Biso   1.000  C
  O349     1.0000 0.32730  0.68180  0.92110  Biso   1.000  O
  O350     1.0000 0.34570  0.65160  0.87260  Biso   1.000  O
  C768     1.0000 0.29520  0.55040  0.87520  Biso   1.000  C
  H644     1.0000 0.30720  0.55940  0.85570  Biso   1.000  H
  C769     1.0000 0.27220  0.49900  0.87860  Biso   1.000  C
  C770     1.0000 0.26530  0.45940  0.85140  Biso   1.000  C
  N126     1.0000 0.26050  0.42780  0.83090  Biso   1.000  N
  C771     1.0000 0.25240  0.49250  0.90720  Biso   1.000  C
  H645     1.0000 0.23400  0.46150  0.90860  Biso   1.000  H
  C772     1.0000 0.08270  0.85070  0.83510  Biso   1.000  C
  C773     1.0000 0.05360  0.80710  0.85110  Biso   1.000  C
  O351     1.0000 0.02820  0.82800  0.86820  Biso   1.000  O
  O352     1.0000 0.05960  0.75050  0.84290  Biso   1.000  O
  C774     1.0000 0.08020  0.91400  0.84130  Biso   1.000  C
  H646     1.0000 0.06030  0.92840  0.85420  Biso   1.000  H
  C775     1.0000 0.10530  0.95490  0.82930  Biso   1.000  C
  C776     1.0000 0.10080  0.02200  0.83600  Biso   1.000  C
  O353     1.0000 0.07490  0.04000  0.85430  Biso   1.000  O
  O354     1.0000 0.12460  0.06140  0.82370  Biso   1.000  O
  C777     1.0000 0.13480  0.93480  0.81030  Biso   1.000  C
  H647     1.0000 0.15140  0.96350  0.80100  Biso   1.000  H
  C778     1.0000 0.14050  0.87130  0.80450  Biso   1.000  C
  C779     1.0000 0.17280  0.84700  0.78400  Biso   1.000  C
  N127     1.0000 0.19620  0.82930  0.76740  Biso   1.000  N
  O355     1.0000 0.21030  0.29470  0.94630  Biso   1.000  O
  C780     1.0000 0.23780  0.26610  0.96010  Biso   1.000  C
  H648     1.0000 0.23400  0.22640  0.96810  Biso   1.000  H
  N128     1.0000 0.27010  0.29110  0.96280  Biso   1.000  N
  C781     1.0000 0.28020  0.35550  0.95630  Biso   1.000  C
  H649     1.0000 0.29860  0.36930  0.97190  Biso   1.000  H
  H650     1.0000 0.29080  0.35880  0.93500  Biso   1.000  H
  H651     1.0000 0.25760  0.38080  0.95780  Biso   1.000  H
  C782     1.0000 0.30160  0.25260  0.97800  Biso   1.000  C
  H652     1.0000 0.29050  0.22250  0.99230  Biso   1.000  H
  H653     1.0000 0.31570  0.23190  0.96130  Biso   1.000  H
  H654     1.0000 0.31850  0.27900  0.99000  Biso   1.000  H
  O356     1.0000 0.08970  0.44510  0.97330  Biso   1.000  O
  C783     1.0000 0.06580  0.48500  0.97410  Biso   1.000  C
  H655     1.0000 0.06490  0.50360  0.99430  Biso   1.000  H
  N129     1.0000 0.04120  0.50890  0.95490  Biso   1.000  N
  C784     1.0000 0.01300  0.55720  0.96080  Biso   1.000  C
  H656     1.0000 0.01200  0.58460  0.94260  Biso   1.000  H
  H657     1.0000 0.98830  0.53860  0.96400  Biso   1.000  H
  H658     1.0000 0.01990  0.58010  0.97990  Biso   1.000  H
  C785     1.0000 0.03880  0.48170  0.92310  Biso   1.000  C
  H659     1.0000 0.05880  0.45160  0.92060  Biso   1.000  H
  H660     1.0000 0.01440  0.46200  0.92060  Biso   1.000  H
  H661     1.0000 0.04170  0.51340  0.90700  Biso   1.000  H
  O357     1.0000 0.29050  0.54570  0.04350  Biso   1.000  O
  C786     1.0000 0.31390  0.57120  0.02520  Biso   1.000  C
  H662     1.0000 0.31200  0.61390  0.02310  Biso   1.000  H
  N130     1.0000 0.34240  0.54260  0.00760  Biso   1.000  N
  C787     1.0000 0.37100  0.57880  0.98870  Biso   1.000  C
  H663     1.0000 0.39360  0.58460  0.00150  Biso   1.000  H
  H664     1.0000 0.37730  0.55670  0.96920  Biso   1.000  H
  H665     1.0000 0.36030  0.61830  0.98310  Biso   1.000  H
  C788     1.0000 0.35220  0.47210  0.01160  Biso   1.000  C
  H666     1.0000 0.32910  0.44820  0.01040  Biso   1.000  H
  H667     1.0000 0.36930  0.45950  0.99460  Biso   1.000  H
  H668     1.0000 0.36420  0.46550  0.03220  Biso   1.000  H
  O358     1.0000 0.95050  0.87000  0.87700  Biso   1.000  O
  C789     1.0000 0.96700  0.92020  0.87520  Biso   1.000  C
  H669     1.0000 0.99190  0.92330  0.88290  Biso   1.000  H
  N131     1.0000 0.95060  0.96940  0.86290  Biso   1.000  N
  C790     1.0000 0.97130  0.02760  0.86370  Biso   1.000  C
  H670     1.0000 0.98630  0.03160  0.84430  Biso   1.000  H
  H671     1.0000 0.95350  0.06120  0.86500  Biso   1.000  H
  H672     1.0000 0.98790  0.02830  0.88220  Biso   1.000  H
  C791     1.0000 0.91100  0.96400  0.85210  Biso   1.000  C
  H673     1.0000 0.91030  0.96350  0.82890  Biso   1.000  H
  H674     1.0000 0.90010  0.92680  0.86050  Biso   1.000  H
  H675     1.0000 0.89670  0.99910  0.85990  Biso   1.000  H
  O359     1.0000 0.07740  0.65980  0.78630  Biso   1.000  O
  C792     1.0000 0.08010  0.70180  0.76730  Biso   1.000  C
  H676     1.0000 0.05790  0.72550  0.76690  Biso   1.000  H
  N132     1.0000 0.10490  0.72290  0.74740  Biso   1.000  N
  C793     1.0000 0.10570  0.78170  0.73030  Biso   1.000  C
  H677     1.0000 0.08510  0.80730  0.73780  Biso   1.000  H
  H678     1.0000 0.12960  0.80220  0.73440  Biso   1.000  H
  H679     1.0000 0.10290  0.77460  0.70750  Biso   1.000  H
  C794     1.0000 0.13970  0.68600  0.74520  Biso   1.000  C
  H680     1.0000 0.16130  0.71310  0.74290  Biso   1.000  H
  H681     1.0000 0.14250  0.66180  0.76450  Biso   1.000  H
  H682     1.0000 0.13810  0.65930  0.72670  Biso   1.000  H
  O360     1.0000 0.11870  0.65010  0.84270  Biso   1.000  O
  C795     1.0000 0.13800  0.62320  0.86360  Biso   1.000  C
  H683     1.0000 0.13370  0.58120  0.86690  Biso   1.000  H
  N133     1.0000 0.16440  0.65110  0.88150  Biso   1.000  N
  C796     1.0000 0.18870  0.62920  0.90510  Biso   1.000  C
  H684     1.0000 0.21080  0.61110  0.89510  Biso   1.000  H
  H685     1.0000 0.19650  0.66280  0.91880  Biso   1.000  H
  H686     1.0000 0.17570  0.59860  0.91780  Biso   1.000  H
  C797     1.0000 0.16020  0.71700  0.87520  Biso   1.000  C
  H687     1.0000 0.13420  0.72900  0.87910  Biso   1.000  H
  H688     1.0000 0.17690  0.73970  0.88930  Biso   1.000  H
  H689     1.0000 0.16680  0.72540  0.85310  Biso   1.000  H
  O361     1.0000 0.97330  0.84360  0.13610  Biso   1.000  O
  C798     1.0000 0.00090  0.83310  0.15210  Biso   1.000  C
  H690     1.0000 0.99740  0.83770  0.17430  Biso   1.000  H
  N134     1.0000 0.03420  0.81670  0.14370  Biso   1.000  N
  C799     1.0000 0.04260  0.80900  0.10970  Biso   1.000  C
  H691     1.0000 0.06480  0.78360  0.10720  Biso   1.000  H
  H692     1.0000 0.02120  0.79040  0.09900  Biso   1.000  H
  H693     1.0000 0.04750  0.84920  0.10020  Biso   1.000  H
  C800     1.0000 0.06560  0.81100  0.16660  Biso   1.000  C
  H694     1.0000 0.06180  0.83980  0.18410  Biso   1.000  H
  H695     1.0000 0.06650  0.76990  0.17490  Biso   1.000  H
  H696     1.0000 0.08930  0.82050  0.15580  Biso   1.000  H
  O362     1.0000 0.90790  0.76720  0.89050  Biso   1.000  O
  C801     1.0000 0.87400  0.76100  0.89410  Biso   1.000  C
  H697     1.0000 0.86220  0.72370  0.88920  Biso   1.000  H
  N135     1.0000 0.85380  0.80800  0.90500  Biso   1.000  N
  C802     1.0000 0.81150  0.80700  0.90900  Biso   1.000  C
  H698     1.0000 0.79950  0.81440  0.88850  Biso   1.000  H
  H699     1.0000 0.80390  0.76670  0.91690  Biso   1.000  H
  H700     1.0000 0.80390  0.83790  0.92420  Biso   1.000  H
  C803     1.0000 0.87100  0.86900  0.91400  Biso   1.000  C
  H701     1.0000 0.87650  0.86860  0.93710  Biso   1.000  H
  H702     1.0000 0.89370  0.87580  0.90220  Biso   1.000  H
  H703     1.0000 0.85270  0.90130  0.90980  Biso   1.000  H
  O363     1.0000 0.17690  0.29450  0.88070  Biso   1.000  O
  C804     1.0000 0.18350  0.28530  0.85250  Biso   1.000  C
  H704     1.0000 0.16220  0.28440  0.83900  Biso   1.000  H
  N136     1.0000 0.21530  0.27670  0.83860  Biso   1.000  N
  C805     1.0000 0.21670  0.27900  0.80360  Biso   1.000  C
  H705     1.0000 0.19210  0.29070  0.79540  Biso   1.000  H
  H706     1.0000 0.23550  0.30830  0.79690  Biso   1.000  H
  H707     1.0000 0.22330  0.23860  0.79540  Biso   1.000  H
  C806     1.0000 0.24940  0.27800  0.85870  Biso   1.000  C
  H708     1.0000 0.26240  0.23930  0.85750  Biso   1.000  H
  H709     1.0000 0.26620  0.31050  0.85120  Biso   1.000  H
  H710     1.0000 0.24230  0.28650  0.88080  Biso   1.000  H
  O364     1.0000 0.23900  0.53460  0.09870  Biso   1.000  O
  O365     1.0000 0.15830  0.39000  0.93010  Biso   1.000  O
  C807     1.0000 0.15010  0.43900  0.91170  Biso   1.000  C
  H711     1.0000 0.14880  0.43520  0.88930  Biso   1.000  H
  O366     1.0000 0.14460  0.48610  0.92380  Biso   1.000  O
  O367     1.0000 0.13210  0.33350  0.98140  Biso   1.000  O
  C808     1.0000 0.14160  0.28540  0.99950  Biso   1.000  C
  H712     1.0000 0.14060  0.28920  0.02190  Biso   1.000  H
  O368     1.0000 0.15170  0.23600  0.98770  Biso   1.000  O
