data_DAPXID_ion_b
_audit_creation_date              2014-07-02
_audit_creation_method            'Materials Studio'
_symmetry_space_group_name_H-M    'P1'
_symmetry_Int_Tables_number       1
_symmetry_cell_setting            triclinic
loop_
_symmetry_equiv_pos_as_xyz
  x,y,z
_cell_length_a                    36.3510
_cell_length_b                    36.3510
_cell_length_c                    14.9430
_cell_angle_alpha                 90.0000
_cell_angle_beta                  90.0000
_cell_angle_gamma                 90.0000
loop_
_atom_site_label
_atom_site_type_symbol
_atom_site_fract_x
_atom_site_fract_y
_atom_site_fract_z
_atom_site_U_iso_or_equiv
_atom_site_adp_type
_atom_site_occupancy
C1     C     0.33725   0.03848   0.28940   0.00000  Uiso   1.00
C2     C     0.31588   0.03992   0.20060   0.00000  Uiso   1.00
C3     C     0.29072   0.00775   0.08000   0.00000  Uiso   1.00
C4     C     0.25290   0.00862   0.08150   0.00000  Uiso   1.00
H5     H     0.24010   0.00890   0.13540   0.00000  Uiso   1.00
C6     C     0.26896   0.17037   0.21260   0.00000  Uiso   1.00
C7     C     0.25802   0.15298   0.30230   0.00000  Uiso   1.00
C8     C     0.21607   0.15085   0.41980   0.00000  Uiso   1.00
C9     C     0.19236   0.12150   0.41950   0.00000  Uiso   1.00
H10    H     0.18380   0.11190   0.36580   0.00000  Uiso   1.00
C11    C     0.40266   0.13430   0.21490   0.00000  Uiso   1.00
C12    C     0.39408   0.15451   0.30280   0.00000  Uiso   1.00
C13    C     0.41731   0.19127   0.41870   0.00000  Uiso   1.00
C14    C     0.41344   0.22891   0.41830   0.00000  Uiso   1.00
H15    H     0.41170   0.24190   0.36480   0.00000  Uiso   1.00
Cu16   Cu    0.33538   0.96779   0.23322   0.00000  Uiso   1.00
Mn17   Mn    0.32614   0.11688   0.25393   0.00000  Uiso   1.00
Na18   Na    0.46720   0.12480   0.93770   0.00000  Uiso   1.00
N19    N     0.31029   0.00807   0.16380   0.00000  Uiso   1.00
N20    N     0.22811   0.16666   0.33697   0.00000  Uiso   1.00
N21    N     0.42212   0.17229   0.33660   0.00000  Uiso   1.00
O22    O     0.34254   0.06814   0.32894   0.00000  Uiso   1.00
O23    O     0.30650   0.07150   0.17042   0.00000  Uiso   1.00
O24    O     0.34875   0.00781   0.31660   0.00000  Uiso   1.00
O25    O     0.29689   0.15833   0.17459   0.00000  Uiso   1.00
O26    O     0.27835   0.12761   0.33232   0.00000  Uiso   1.00
O27    O     0.24911   0.19580   0.18337   0.00000  Uiso   1.00
O28    O     0.37718   0.11742   0.17840   0.00000  Uiso   1.00
O29    O     0.36152   0.15247   0.33329   0.00000  Uiso   1.00
O30    O     0.43497   0.13661   0.18540   0.00000  Uiso   1.00
C34    C     0.66275   0.96152   0.28940   0.00000  Uiso   1.00
C35    C     0.68412   0.96008   0.20060   0.00000  Uiso   1.00
C36    C     0.70928   0.99225   0.08000   0.00000  Uiso   1.00
C37    C     0.74710   0.99138   0.08150   0.00000  Uiso   1.00
H38    H     0.75990   0.99110   0.13540   0.00000  Uiso   1.00
C39    C     0.73104   0.82963   0.21260   0.00000  Uiso   1.00
C40    C     0.74198   0.84702   0.30230   0.00000  Uiso   1.00
C41    C     0.78393   0.84915   0.41980   0.00000  Uiso   1.00
C42    C     0.80764   0.87850   0.41950   0.00000  Uiso   1.00
H43    H     0.81620   0.88810   0.36580   0.00000  Uiso   1.00
C44    C     0.59734   0.86570   0.21490   0.00000  Uiso   1.00
C45    C     0.60592   0.84549   0.30280   0.00000  Uiso   1.00
C46    C     0.58269   0.80873   0.41870   0.00000  Uiso   1.00
C47    C     0.58656   0.77109   0.41830   0.00000  Uiso   1.00
H48    H     0.58830   0.75810   0.36480   0.00000  Uiso   1.00
Cu49   Cu    0.66462   0.03221   0.23322   0.00000  Uiso   1.00
Mn50   Mn    0.67386   0.88312   0.25393   0.00000  Uiso   1.00
Na51   Na    0.53280   0.87520   0.93770   0.00000  Uiso   1.00
N52    N     0.68971   0.99193   0.16380   0.00000  Uiso   1.00
N53    N     0.77189   0.83334   0.33697   0.00000  Uiso   1.00
N54    N     0.57788   0.82771   0.33660   0.00000  Uiso   1.00
O55    O     0.65746   0.93186   0.32894   0.00000  Uiso   1.00
O56    O     0.69350   0.92850   0.17042   0.00000  Uiso   1.00
O57    O     0.65125   0.99219   0.31660   0.00000  Uiso   1.00
O58    O     0.70311   0.84167   0.17459   0.00000  Uiso   1.00
O59    O     0.72165   0.87239   0.33232   0.00000  Uiso   1.00
O60    O     0.75089   0.80420   0.18337   0.00000  Uiso   1.00
O61    O     0.62282   0.88258   0.17840   0.00000  Uiso   1.00
O62    O     0.63848   0.84753   0.33329   0.00000  Uiso   1.00
O63    O     0.56503   0.86339   0.18540   0.00000  Uiso   1.00
C67    C     0.46152   0.83725   0.78940   0.00000  Uiso   1.00
C68    C     0.46008   0.81588   0.70060   0.00000  Uiso   1.00
C69    C     0.49225   0.79072   0.58000   0.00000  Uiso   1.00
C70    C     0.49138   0.75290   0.58150   0.00000  Uiso   1.00
H71    H     0.49110   0.74010   0.63540   0.00000  Uiso   1.00
C72    C     0.32963   0.76896   0.71260   0.00000  Uiso   1.00
C73    C     0.34702   0.75802   0.80230   0.00000  Uiso   1.00
C74    C     0.34915   0.71607   0.91980   0.00000  Uiso   1.00
C75    C     0.37850   0.69236   0.91950   0.00000  Uiso   1.00
H76    H     0.38810   0.68380   0.86580   0.00000  Uiso   1.00
C77    C     0.36570   0.90266   0.71490   0.00000  Uiso   1.00
C78    C     0.34549   0.89408   0.80280   0.00000  Uiso   1.00
C79    C     0.30873   0.91731   0.91870   0.00000  Uiso   1.00
C80    C     0.27109   0.91344   0.91830   0.00000  Uiso   1.00
H81    H     0.25810   0.91170   0.86480   0.00000  Uiso   1.00
Cu82   Cu    0.53221   0.83538   0.73322   0.00000  Uiso   1.00
Mn83   Mn    0.38312   0.82614   0.75393   0.00000  Uiso   1.00
Na84   Na    0.37520   0.96720   0.43770   0.00000  Uiso   1.00
N85    N     0.49193   0.81029   0.66380   0.00000  Uiso   1.00
N86    N     0.33334   0.72811   0.83697   0.00000  Uiso   1.00
N87    N     0.32771   0.92212   0.83660   0.00000  Uiso   1.00
O88    O     0.43186   0.84254   0.82894   0.00000  Uiso   1.00
O89    O     0.42850   0.80650   0.67042   0.00000  Uiso   1.00
O90    O     0.49219   0.84875   0.81660   0.00000  Uiso   1.00
O91    O     0.34167   0.79689   0.67459   0.00000  Uiso   1.00
O92    O     0.37239   0.77835   0.83232   0.00000  Uiso   1.00
O93    O     0.30420   0.74911   0.68337   0.00000  Uiso   1.00
O94    O     0.38258   0.87718   0.67840   0.00000  Uiso   1.00
O95    O     0.34753   0.86152   0.83329   0.00000  Uiso   1.00
O96    O     0.36339   0.93497   0.68540   0.00000  Uiso   1.00
C100   C     0.53848   0.16275   0.78940   0.00000  Uiso   1.00
C101   C     0.53992   0.18412   0.70060   0.00000  Uiso   1.00
C102   C     0.50775   0.20928   0.58000   0.00000  Uiso   1.00
C103   C     0.50862   0.24710   0.58150   0.00000  Uiso   1.00
H104   H     0.50890   0.25990   0.63540   0.00000  Uiso   1.00
C105   C     0.67037   0.23104   0.71260   0.00000  Uiso   1.00
C106   C     0.65298   0.24198   0.80230   0.00000  Uiso   1.00
C107   C     0.65085   0.28393   0.91980   0.00000  Uiso   1.00
C108   C     0.62150   0.30764   0.91950   0.00000  Uiso   1.00
H109   H     0.61190   0.31620   0.86580   0.00000  Uiso   1.00
C110   C     0.63430   0.09734   0.71490   0.00000  Uiso   1.00
C111   C     0.65451   0.10592   0.80280   0.00000  Uiso   1.00
C112   C     0.69127   0.08269   0.91870   0.00000  Uiso   1.00
C113   C     0.72891   0.08656   0.91830   0.00000  Uiso   1.00
H114   H     0.74190   0.08830   0.86480   0.00000  Uiso   1.00
Cu115  Cu    0.46779   0.16462   0.73322   0.00000  Uiso   1.00
Mn116  Mn    0.61688   0.17386   0.75393   0.00000  Uiso   1.00
Na117  Na    0.62480   0.03280   0.43770   0.00000  Uiso   1.00
N118   N     0.50807   0.18971   0.66380   0.00000  Uiso   1.00
N119   N     0.66666   0.27189   0.83697   0.00000  Uiso   1.00
N120   N     0.67229   0.07788   0.83660   0.00000  Uiso   1.00
O121   O     0.56814   0.15746   0.82894   0.00000  Uiso   1.00
O122   O     0.57150   0.19350   0.67042   0.00000  Uiso   1.00
O123   O     0.50781   0.15125   0.81660   0.00000  Uiso   1.00
O124   O     0.65833   0.20311   0.67459   0.00000  Uiso   1.00
O125   O     0.62761   0.22165   0.83232   0.00000  Uiso   1.00
O126   O     0.69580   0.25089   0.68337   0.00000  Uiso   1.00
O127   O     0.61742   0.12282   0.67840   0.00000  Uiso   1.00
O128   O     0.65247   0.13848   0.83329   0.00000  Uiso   1.00
O129   O     0.63661   0.06503   0.68540   0.00000  Uiso   1.00
C133   C     0.16275   0.53848   0.21060   0.00000  Uiso   1.00
C134   C     0.18412   0.53992   0.29940   0.00000  Uiso   1.00
C135   C     0.20928   0.50775   0.42000   0.00000  Uiso   1.00
C136   C     0.24710   0.50862   0.41850   0.00000  Uiso   1.00
H137   H     0.25990   0.50890   0.36460   0.00000  Uiso   1.00
C138   C     0.23104   0.67037   0.28740   0.00000  Uiso   1.00
C139   C     0.24198   0.65298   0.19770   0.00000  Uiso   1.00
C140   C     0.28393   0.65085   0.08020   0.00000  Uiso   1.00
C141   C     0.30764   0.62150   0.08050   0.00000  Uiso   1.00
H142   H     0.31620   0.61190   0.13420   0.00000  Uiso   1.00
C143   C     0.09734   0.63430   0.28510   0.00000  Uiso   1.00
C144   C     0.10592   0.65451   0.19720   0.00000  Uiso   1.00
C145   C     0.08269   0.69127   0.08130   0.00000  Uiso   1.00
C146   C     0.08656   0.72891   0.08170   0.00000  Uiso   1.00
H147   H     0.08830   0.74190   0.13520   0.00000  Uiso   1.00
Cu148  Cu    0.16462   0.46779   0.26678   0.00000  Uiso   1.00
Mn149  Mn    0.17386   0.61688   0.24607   0.00000  Uiso   1.00
Na150  Na    0.03280   0.62480   0.56230   0.00000  Uiso   1.00
N151   N     0.18971   0.50807   0.33620   0.00000  Uiso   1.00
N152   N     0.27189   0.66666   0.16303   0.00000  Uiso   1.00
N153   N     0.07788   0.67229   0.16340   0.00000  Uiso   1.00
O154   O     0.15746   0.56814   0.17106   0.00000  Uiso   1.00
O155   O     0.19350   0.57150   0.32958   0.00000  Uiso   1.00
O156   O     0.15125   0.50781   0.18340   0.00000  Uiso   1.00
O157   O     0.20311   0.65833   0.32541   0.00000  Uiso   1.00
O158   O     0.22165   0.62761   0.16768   0.00000  Uiso   1.00
O159   O     0.25089   0.69580   0.31663   0.00000  Uiso   1.00
O160   O     0.12282   0.61742   0.32160   0.00000  Uiso   1.00
O161   O     0.13848   0.65247   0.16671   0.00000  Uiso   1.00
O162   O     0.06503   0.63661   0.31460   0.00000  Uiso   1.00
C166   C     0.83725   0.46152   0.21060   0.00000  Uiso   1.00
C167   C     0.81588   0.46008   0.29940   0.00000  Uiso   1.00
C168   C     0.79072   0.49225   0.42000   0.00000  Uiso   1.00
C169   C     0.75290   0.49138   0.41850   0.00000  Uiso   1.00
H170   H     0.74010   0.49110   0.36460   0.00000  Uiso   1.00
C171   C     0.76896   0.32963   0.28740   0.00000  Uiso   1.00
C172   C     0.75802   0.34702   0.19770   0.00000  Uiso   1.00
C173   C     0.71607   0.34915   0.08020   0.00000  Uiso   1.00
C174   C     0.69236   0.37850   0.08050   0.00000  Uiso   1.00
H175   H     0.68380   0.38810   0.13420   0.00000  Uiso   1.00
C176   C     0.90266   0.36570   0.28510   0.00000  Uiso   1.00
C177   C     0.89408   0.34549   0.19720   0.00000  Uiso   1.00
C178   C     0.91731   0.30873   0.08130   0.00000  Uiso   1.00
C179   C     0.91344   0.27109   0.08170   0.00000  Uiso   1.00
H180   H     0.91170   0.25810   0.13520   0.00000  Uiso   1.00
Cu181  Cu    0.83538   0.53221   0.26678   0.00000  Uiso   1.00
Mn182  Mn    0.82614   0.38312   0.24607   0.00000  Uiso   1.00
Na183  Na    0.96720   0.37520   0.56230   0.00000  Uiso   1.00
N184   N     0.81029   0.49193   0.33620   0.00000  Uiso   1.00
N185   N     0.72811   0.33334   0.16303   0.00000  Uiso   1.00
N186   N     0.92212   0.32771   0.16340   0.00000  Uiso   1.00
O187   O     0.84254   0.43186   0.17106   0.00000  Uiso   1.00
O188   O     0.80650   0.42850   0.32958   0.00000  Uiso   1.00
O189   O     0.84875   0.49219   0.18340   0.00000  Uiso   1.00
O190   O     0.79689   0.34167   0.32541   0.00000  Uiso   1.00
O191   O     0.77835   0.37239   0.16768   0.00000  Uiso   1.00
O192   O     0.74911   0.30420   0.31663   0.00000  Uiso   1.00
O193   O     0.87718   0.38258   0.32160   0.00000  Uiso   1.00
O194   O     0.86152   0.34753   0.16671   0.00000  Uiso   1.00
O195   O     0.93497   0.36339   0.31460   0.00000  Uiso   1.00
C199   C     0.03848   0.33725   0.71060   0.00000  Uiso   1.00
C200   C     0.03992   0.31588   0.79940   0.00000  Uiso   1.00
C201   C     0.00775   0.29072   0.92000   0.00000  Uiso   1.00
C202   C     0.00862   0.25290   0.91850   0.00000  Uiso   1.00
H203   H     0.00890   0.24010   0.86460   0.00000  Uiso   1.00
C204   C     0.17037   0.26896   0.78740   0.00000  Uiso   1.00
C205   C     0.15298   0.25802   0.69770   0.00000  Uiso   1.00
C206   C     0.15085   0.21607   0.58020   0.00000  Uiso   1.00
C207   C     0.12150   0.19236   0.58050   0.00000  Uiso   1.00
H208   H     0.11190   0.18380   0.63420   0.00000  Uiso   1.00
C209   C     0.13430   0.40266   0.78510   0.00000  Uiso   1.00
C210   C     0.15451   0.39408   0.69720   0.00000  Uiso   1.00
C211   C     0.19127   0.41731   0.58130   0.00000  Uiso   1.00
C212   C     0.22891   0.41344   0.58170   0.00000  Uiso   1.00
H213   H     0.24190   0.41170   0.63520   0.00000  Uiso   1.00
Cu214  Cu    0.96779   0.33538   0.76678   0.00000  Uiso   1.00
Mn215  Mn    0.11688   0.32614   0.74607   0.00000  Uiso   1.00
Na216  Na    0.12480   0.46720   0.06230   0.00000  Uiso   1.00
N217   N     0.00807   0.31029   0.83620   0.00000  Uiso   1.00
N218   N     0.16666   0.22811   0.66303   0.00000  Uiso   1.00
N219   N     0.17229   0.42212   0.66340   0.00000  Uiso   1.00
O220   O     0.06814   0.34254   0.67106   0.00000  Uiso   1.00
O221   O     0.07150   0.30650   0.82958   0.00000  Uiso   1.00
O222   O     0.00781   0.34875   0.68340   0.00000  Uiso   1.00
O223   O     0.15833   0.29689   0.82541   0.00000  Uiso   1.00
O224   O     0.12761   0.27835   0.66768   0.00000  Uiso   1.00
O225   O     0.19580   0.24911   0.81663   0.00000  Uiso   1.00
O226   O     0.11742   0.37718   0.82160   0.00000  Uiso   1.00
O227   O     0.15247   0.36152   0.66671   0.00000  Uiso   1.00
O228   O     0.13661   0.43497   0.81460   0.00000  Uiso   1.00
C232   C     0.96152   0.66275   0.71060   0.00000  Uiso   1.00
C233   C     0.96008   0.68412   0.79940   0.00000  Uiso   1.00
C234   C     0.99225   0.70928   0.92000   0.00000  Uiso   1.00
C235   C     0.99138   0.74710   0.91850   0.00000  Uiso   1.00
H236   H     0.99110   0.75990   0.86460   0.00000  Uiso   1.00
C237   C     0.82963   0.73104   0.78740   0.00000  Uiso   1.00
C238   C     0.84702   0.74198   0.69770   0.00000  Uiso   1.00
C239   C     0.84915   0.78393   0.58020   0.00000  Uiso   1.00
C240   C     0.87850   0.80764   0.58050   0.00000  Uiso   1.00
H241   H     0.88810   0.81620   0.63420   0.00000  Uiso   1.00
C242   C     0.86570   0.59734   0.78510   0.00000  Uiso   1.00
C243   C     0.84549   0.60592   0.69720   0.00000  Uiso   1.00
C244   C     0.80873   0.58269   0.58130   0.00000  Uiso   1.00
C245   C     0.77109   0.58656   0.58170   0.00000  Uiso   1.00
H246   H     0.75810   0.58830   0.63520   0.00000  Uiso   1.00
Cu247  Cu    0.03221   0.66462   0.76678   0.00000  Uiso   1.00
Mn248  Mn    0.88312   0.67386   0.74607   0.00000  Uiso   1.00
Na249  Na    0.87520   0.53280   0.06230   0.00000  Uiso   1.00
N250   N     0.99193   0.68971   0.83620   0.00000  Uiso   1.00
N251   N     0.83334   0.77189   0.66303   0.00000  Uiso   1.00
N252   N     0.82771   0.57788   0.66340   0.00000  Uiso   1.00
O253   O     0.93186   0.65746   0.67106   0.00000  Uiso   1.00
O254   O     0.92850   0.69350   0.82958   0.00000  Uiso   1.00
O255   O     0.99219   0.65125   0.68340   0.00000  Uiso   1.00
O256   O     0.84167   0.70311   0.82541   0.00000  Uiso   1.00
O257   O     0.87239   0.72165   0.66768   0.00000  Uiso   1.00
O258   O     0.80420   0.75089   0.81663   0.00000  Uiso   1.00
O259   O     0.88258   0.62282   0.82160   0.00000  Uiso   1.00
O260   O     0.84753   0.63848   0.66671   0.00000  Uiso   1.00
O261   O     0.86339   0.56503   0.81460   0.00000  Uiso   1.00
C265   C     0.66275   0.96152   0.71060   0.00000  Uiso   1.00
C266   C     0.68412   0.96008   0.79940   0.00000  Uiso   1.00
C267   C     0.70928   0.99225   0.92000   0.00000  Uiso   1.00
C268   C     0.74710   0.99138   0.91850   0.00000  Uiso   1.00
H269   H     0.75990   0.99110   0.86460   0.00000  Uiso   1.00
C270   C     0.73104   0.82963   0.78740   0.00000  Uiso   1.00
C271   C     0.74198   0.84702   0.69770   0.00000  Uiso   1.00
C272   C     0.78393   0.84915   0.58020   0.00000  Uiso   1.00
C273   C     0.80764   0.87850   0.58050   0.00000  Uiso   1.00
H274   H     0.81620   0.88810   0.63420   0.00000  Uiso   1.00
C275   C     0.59734   0.86570   0.78510   0.00000  Uiso   1.00
C276   C     0.60592   0.84549   0.69720   0.00000  Uiso   1.00
C277   C     0.58269   0.80873   0.58130   0.00000  Uiso   1.00
C278   C     0.58656   0.77109   0.58170   0.00000  Uiso   1.00
H279   H     0.58830   0.75810   0.63520   0.00000  Uiso   1.00
Cu280  Cu    0.66462   0.03221   0.76678   0.00000  Uiso   1.00
Mn281  Mn    0.67386   0.88312   0.74607   0.00000  Uiso   1.00
Na282  Na    0.53280   0.87520   0.06230   0.00000  Uiso   1.00
N283   N     0.68971   0.99193   0.83620   0.00000  Uiso   1.00
N284   N     0.77189   0.83334   0.66303   0.00000  Uiso   1.00
N285   N     0.57788   0.82771   0.66340   0.00000  Uiso   1.00
O286   O     0.65746   0.93186   0.67106   0.00000  Uiso   1.00
O287   O     0.69350   0.92850   0.82958   0.00000  Uiso   1.00
O288   O     0.65125   0.99219   0.68340   0.00000  Uiso   1.00
O289   O     0.70311   0.84167   0.82541   0.00000  Uiso   1.00
O290   O     0.72165   0.87239   0.66768   0.00000  Uiso   1.00
O291   O     0.75089   0.80420   0.81663   0.00000  Uiso   1.00
O292   O     0.62282   0.88258   0.82160   0.00000  Uiso   1.00
O293   O     0.63848   0.84753   0.66671   0.00000  Uiso   1.00
O294   O     0.56503   0.86339   0.81460   0.00000  Uiso   1.00
C298   C     0.33725   0.03848   0.71060   0.00000  Uiso   1.00
C299   C     0.31588   0.03992   0.79940   0.00000  Uiso   1.00
C300   C     0.29072   0.00775   0.92000   0.00000  Uiso   1.00
C301   C     0.25290   0.00862   0.91850   0.00000  Uiso   1.00
H302   H     0.24010   0.00890   0.86460   0.00000  Uiso   1.00
C303   C     0.26896   0.17037   0.78740   0.00000  Uiso   1.00
C304   C     0.25802   0.15298   0.69770   0.00000  Uiso   1.00
C305   C     0.21607   0.15085   0.58020   0.00000  Uiso   1.00
C306   C     0.19236   0.12150   0.58050   0.00000  Uiso   1.00
H307   H     0.18380   0.11190   0.63420   0.00000  Uiso   1.00
C308   C     0.40266   0.13430   0.78510   0.00000  Uiso   1.00
C309   C     0.39408   0.15451   0.69720   0.00000  Uiso   1.00
C310   C     0.41731   0.19127   0.58130   0.00000  Uiso   1.00
C311   C     0.41344   0.22891   0.58170   0.00000  Uiso   1.00
H312   H     0.41170   0.24190   0.63520   0.00000  Uiso   1.00
Cu313  Cu    0.33538   0.96779   0.76678   0.00000  Uiso   1.00
Mn314  Mn    0.32614   0.11688   0.74607   0.00000  Uiso   1.00
Na315  Na    0.46720   0.12480   0.06230   0.00000  Uiso   1.00
N316   N     0.31029   0.00807   0.83620   0.00000  Uiso   1.00
N317   N     0.22811   0.16666   0.66303   0.00000  Uiso   1.00
N318   N     0.42212   0.17229   0.66340   0.00000  Uiso   1.00
O319   O     0.34254   0.06814   0.67106   0.00000  Uiso   1.00
O320   O     0.30650   0.07150   0.82958   0.00000  Uiso   1.00
O321   O     0.34875   0.00781   0.68340   0.00000  Uiso   1.00
O322   O     0.29689   0.15833   0.82541   0.00000  Uiso   1.00
O323   O     0.27835   0.12761   0.66768   0.00000  Uiso   1.00
O324   O     0.24911   0.19580   0.81663   0.00000  Uiso   1.00
O325   O     0.37718   0.11742   0.82160   0.00000  Uiso   1.00
O326   O     0.36152   0.15247   0.66671   0.00000  Uiso   1.00
O327   O     0.43497   0.13661   0.81460   0.00000  Uiso   1.00
C331   C     0.53848   0.16275   0.21060   0.00000  Uiso   1.00
C332   C     0.53992   0.18412   0.29940   0.00000  Uiso   1.00
C333   C     0.50775   0.20928   0.42000   0.00000  Uiso   1.00
C334   C     0.50862   0.24710   0.41850   0.00000  Uiso   1.00
H335   H     0.50890   0.25990   0.36460   0.00000  Uiso   1.00
C336   C     0.67037   0.23104   0.28740   0.00000  Uiso   1.00
C337   C     0.65298   0.24198   0.19770   0.00000  Uiso   1.00
C338   C     0.65085   0.28393   0.08020   0.00000  Uiso   1.00
C339   C     0.62150   0.30764   0.08050   0.00000  Uiso   1.00
H340   H     0.61190   0.31620   0.13420   0.00000  Uiso   1.00
C341   C     0.63430   0.09734   0.28510   0.00000  Uiso   1.00
C342   C     0.65451   0.10592   0.19720   0.00000  Uiso   1.00
C343   C     0.69127   0.08269   0.08130   0.00000  Uiso   1.00
C344   C     0.72891   0.08656   0.08170   0.00000  Uiso   1.00
H345   H     0.74190   0.08830   0.13520   0.00000  Uiso   1.00
Cu346  Cu    0.46779   0.16462   0.26678   0.00000  Uiso   1.00
Mn347  Mn    0.61688   0.17386   0.24607   0.00000  Uiso   1.00
Na348  Na    0.62480   0.03280   0.56230   0.00000  Uiso   1.00
N349   N     0.50807   0.18971   0.33620   0.00000  Uiso   1.00
N350   N     0.66666   0.27189   0.16303   0.00000  Uiso   1.00
N351   N     0.67229   0.07788   0.16340   0.00000  Uiso   1.00
O352   O     0.56814   0.15746   0.17106   0.00000  Uiso   1.00
O353   O     0.57150   0.19350   0.32958   0.00000  Uiso   1.00
O354   O     0.50781   0.15125   0.18340   0.00000  Uiso   1.00
O355   O     0.65833   0.20311   0.32541   0.00000  Uiso   1.00
O356   O     0.62761   0.22165   0.16768   0.00000  Uiso   1.00
O357   O     0.69580   0.25089   0.31663   0.00000  Uiso   1.00
O358   O     0.61742   0.12282   0.32160   0.00000  Uiso   1.00
O359   O     0.65247   0.13848   0.16671   0.00000  Uiso   1.00
O360   O     0.63661   0.06503   0.31460   0.00000  Uiso   1.00
C364   C     0.46152   0.83725   0.21060   0.00000  Uiso   1.00
C365   C     0.46008   0.81588   0.29940   0.00000  Uiso   1.00
C366   C     0.49225   0.79072   0.42000   0.00000  Uiso   1.00
C367   C     0.49138   0.75290   0.41850   0.00000  Uiso   1.00
H368   H     0.49110   0.74010   0.36460   0.00000  Uiso   1.00
C369   C     0.32963   0.76896   0.28740   0.00000  Uiso   1.00
C370   C     0.34702   0.75802   0.19770   0.00000  Uiso   1.00
C371   C     0.34915   0.71607   0.08020   0.00000  Uiso   1.00
C372   C     0.37850   0.69236   0.08050   0.00000  Uiso   1.00
H373   H     0.38810   0.68380   0.13420   0.00000  Uiso   1.00
C374   C     0.36570   0.90266   0.28510   0.00000  Uiso   1.00
C375   C     0.34549   0.89408   0.19720   0.00000  Uiso   1.00
C376   C     0.30873   0.91731   0.08130   0.00000  Uiso   1.00
C377   C     0.27109   0.91344   0.08170   0.00000  Uiso   1.00
H378   H     0.25810   0.91170   0.13520   0.00000  Uiso   1.00
Cu379  Cu    0.53221   0.83538   0.26678   0.00000  Uiso   1.00
Mn380  Mn    0.38312   0.82614   0.24607   0.00000  Uiso   1.00
Na381  Na    0.37520   0.96720   0.56230   0.00000  Uiso   1.00
N382   N     0.49193   0.81029   0.33620   0.00000  Uiso   1.00
N383   N     0.33334   0.72811   0.16303   0.00000  Uiso   1.00
N384   N     0.32771   0.92212   0.16340   0.00000  Uiso   1.00
O385   O     0.43186   0.84254   0.17106   0.00000  Uiso   1.00
O386   O     0.42850   0.80650   0.32958   0.00000  Uiso   1.00
O387   O     0.49219   0.84875   0.18340   0.00000  Uiso   1.00
O388   O     0.34167   0.79689   0.32541   0.00000  Uiso   1.00
O389   O     0.37239   0.77835   0.16768   0.00000  Uiso   1.00
O390   O     0.30420   0.74911   0.31663   0.00000  Uiso   1.00
O391   O     0.38258   0.87718   0.32160   0.00000  Uiso   1.00
O392   O     0.34753   0.86152   0.16671   0.00000  Uiso   1.00
O393   O     0.36339   0.93497   0.31460   0.00000  Uiso   1.00
C397   C     0.83725   0.46152   0.78940   0.00000  Uiso   1.00
C398   C     0.81588   0.46008   0.70060   0.00000  Uiso   1.00
C399   C     0.79072   0.49225   0.58000   0.00000  Uiso   1.00
C400   C     0.75290   0.49138   0.58150   0.00000  Uiso   1.00
H401   H     0.74010   0.49110   0.63540   0.00000  Uiso   1.00
C402   C     0.76896   0.32963   0.71260   0.00000  Uiso   1.00
C403   C     0.75802   0.34702   0.80230   0.00000  Uiso   1.00
C404   C     0.71607   0.34915   0.91980   0.00000  Uiso   1.00
C405   C     0.69236   0.37850   0.91950   0.00000  Uiso   1.00
H406   H     0.68380   0.38810   0.86580   0.00000  Uiso   1.00
C407   C     0.90266   0.36570   0.71490   0.00000  Uiso   1.00
C408   C     0.89408   0.34549   0.80280   0.00000  Uiso   1.00
C409   C     0.91731   0.30873   0.91870   0.00000  Uiso   1.00
C410   C     0.91344   0.27109   0.91830   0.00000  Uiso   1.00
H411   H     0.91170   0.25810   0.86480   0.00000  Uiso   1.00
Cu412  Cu    0.83538   0.53221   0.73322   0.00000  Uiso   1.00
Mn413  Mn    0.82614   0.38312   0.75393   0.00000  Uiso   1.00
Na414  Na    0.96720   0.37520   0.43770   0.00000  Uiso   1.00
N415   N     0.81029   0.49193   0.66380   0.00000  Uiso   1.00
N416   N     0.72811   0.33334   0.83697   0.00000  Uiso   1.00
N417   N     0.92212   0.32771   0.83660   0.00000  Uiso   1.00
O418   O     0.84254   0.43186   0.82894   0.00000  Uiso   1.00
O419   O     0.80650   0.42850   0.67042   0.00000  Uiso   1.00
O420   O     0.84875   0.49219   0.81660   0.00000  Uiso   1.00
O421   O     0.79689   0.34167   0.67459   0.00000  Uiso   1.00
O422   O     0.77835   0.37239   0.83232   0.00000  Uiso   1.00
O423   O     0.74911   0.30420   0.68337   0.00000  Uiso   1.00
O424   O     0.87718   0.38258   0.67840   0.00000  Uiso   1.00
O425   O     0.86152   0.34753   0.83329   0.00000  Uiso   1.00
O426   O     0.93497   0.36339   0.68540   0.00000  Uiso   1.00
C430   C     0.16275   0.53848   0.78940   0.00000  Uiso   1.00
C431   C     0.18412   0.53992   0.70060   0.00000  Uiso   1.00
C432   C     0.20928   0.50775   0.58000   0.00000  Uiso   1.00
C433   C     0.24710   0.50862   0.58150   0.00000  Uiso   1.00
H434   H     0.25990   0.50890   0.63540   0.00000  Uiso   1.00
C435   C     0.23104   0.67037   0.71260   0.00000  Uiso   1.00
C436   C     0.24198   0.65298   0.80230   0.00000  Uiso   1.00
C437   C     0.28393   0.65085   0.91980   0.00000  Uiso   1.00
C438   C     0.30764   0.62150   0.91950   0.00000  Uiso   1.00
H439   H     0.31620   0.61190   0.86580   0.00000  Uiso   1.00
C440   C     0.09734   0.63430   0.71490   0.00000  Uiso   1.00
C441   C     0.10592   0.65451   0.80280   0.00000  Uiso   1.00
C442   C     0.08269   0.69127   0.91870   0.00000  Uiso   1.00
C443   C     0.08656   0.72891   0.91830   0.00000  Uiso   1.00
H444   H     0.08830   0.74190   0.86480   0.00000  Uiso   1.00
Cu445  Cu    0.16462   0.46779   0.73322   0.00000  Uiso   1.00
Mn446  Mn    0.17386   0.61688   0.75393   0.00000  Uiso   1.00
Na447  Na    0.03280   0.62480   0.43770   0.00000  Uiso   1.00
N448   N     0.18971   0.50807   0.66380   0.00000  Uiso   1.00
N449   N     0.27189   0.66666   0.83697   0.00000  Uiso   1.00
N450   N     0.07788   0.67229   0.83660   0.00000  Uiso   1.00
O451   O     0.15746   0.56814   0.82894   0.00000  Uiso   1.00
O452   O     0.19350   0.57150   0.67042   0.00000  Uiso   1.00
O453   O     0.15125   0.50781   0.81660   0.00000  Uiso   1.00
O454   O     0.20311   0.65833   0.67459   0.00000  Uiso   1.00
O455   O     0.22165   0.62761   0.83232   0.00000  Uiso   1.00
O456   O     0.25089   0.69580   0.68337   0.00000  Uiso   1.00
O457   O     0.12282   0.61742   0.67840   0.00000  Uiso   1.00
O458   O     0.13848   0.65247   0.83329   0.00000  Uiso   1.00
O459   O     0.06503   0.63661   0.68540   0.00000  Uiso   1.00
C463   C     0.96152   0.66275   0.28940   0.00000  Uiso   1.00
C464   C     0.96008   0.68412   0.20060   0.00000  Uiso   1.00
C465   C     0.99225   0.70928   0.08000   0.00000  Uiso   1.00
C466   C     0.99138   0.74710   0.08150   0.00000  Uiso   1.00
H467   H     0.99110   0.75990   0.13540   0.00000  Uiso   1.00
C468   C     0.82963   0.73104   0.21260   0.00000  Uiso   1.00
C469   C     0.84702   0.74198   0.30230   0.00000  Uiso   1.00
C470   C     0.84915   0.78393   0.41980   0.00000  Uiso   1.00
C471   C     0.87850   0.80764   0.41950   0.00000  Uiso   1.00
H472   H     0.88810   0.81620   0.36580   0.00000  Uiso   1.00
C473   C     0.86570   0.59734   0.21490   0.00000  Uiso   1.00
C474   C     0.84549   0.60592   0.30280   0.00000  Uiso   1.00
C475   C     0.80873   0.58269   0.41870   0.00000  Uiso   1.00
C476   C     0.77109   0.58656   0.41830   0.00000  Uiso   1.00
H477   H     0.75810   0.58830   0.36480   0.00000  Uiso   1.00
Cu478  Cu    0.03221   0.66462   0.23322   0.00000  Uiso   1.00
Mn479  Mn    0.88312   0.67386   0.25393   0.00000  Uiso   1.00
Na480  Na    0.87520   0.53280   0.93770   0.00000  Uiso   1.00
N481   N     0.99193   0.68971   0.16380   0.00000  Uiso   1.00
N482   N     0.83334   0.77189   0.33697   0.00000  Uiso   1.00
N483   N     0.82771   0.57788   0.33660   0.00000  Uiso   1.00
O484   O     0.93186   0.65746   0.32894   0.00000  Uiso   1.00
O485   O     0.92850   0.69350   0.17042   0.00000  Uiso   1.00
O486   O     0.99219   0.65125   0.31660   0.00000  Uiso   1.00
O487   O     0.84167   0.70311   0.17459   0.00000  Uiso   1.00
O488   O     0.87239   0.72165   0.33232   0.00000  Uiso   1.00
O489   O     0.80420   0.75089   0.18337   0.00000  Uiso   1.00
O490   O     0.88258   0.62282   0.17840   0.00000  Uiso   1.00
O491   O     0.84753   0.63848   0.33329   0.00000  Uiso   1.00
O492   O     0.86339   0.56503   0.18540   0.00000  Uiso   1.00
C496   C     0.03848   0.33725   0.28940   0.00000  Uiso   1.00
C497   C     0.03992   0.31588   0.20060   0.00000  Uiso   1.00
C498   C     0.00775   0.29072   0.08000   0.00000  Uiso   1.00
C499   C     0.00862   0.25290   0.08150   0.00000  Uiso   1.00
H500   H     0.00890   0.24010   0.13540   0.00000  Uiso   1.00
C501   C     0.17037   0.26896   0.21260   0.00000  Uiso   1.00
C502   C     0.15298   0.25802   0.30230   0.00000  Uiso   1.00
C503   C     0.15085   0.21607   0.41980   0.00000  Uiso   1.00
C504   C     0.12150   0.19236   0.41950   0.00000  Uiso   1.00
H505   H     0.11190   0.18380   0.36580   0.00000  Uiso   1.00
C506   C     0.13430   0.40266   0.21490   0.00000  Uiso   1.00
C507   C     0.15451   0.39408   0.30280   0.00000  Uiso   1.00
C508   C     0.19127   0.41731   0.41870   0.00000  Uiso   1.00
C509   C     0.22891   0.41344   0.41830   0.00000  Uiso   1.00
H510   H     0.24190   0.41170   0.36480   0.00000  Uiso   1.00
Cu511  Cu    0.96779   0.33538   0.23322   0.00000  Uiso   1.00
Mn512  Mn    0.11688   0.32614   0.25393   0.00000  Uiso   1.00
Na513  Na    0.12480   0.46720   0.93770   0.00000  Uiso   1.00
N514   N     0.00807   0.31029   0.16380   0.00000  Uiso   1.00
N515   N     0.16666   0.22811   0.33697   0.00000  Uiso   1.00
N516   N     0.17229   0.42212   0.33660   0.00000  Uiso   1.00
O517   O     0.06814   0.34254   0.32894   0.00000  Uiso   1.00
O518   O     0.07150   0.30650   0.17042   0.00000  Uiso   1.00
O519   O     0.00781   0.34875   0.31660   0.00000  Uiso   1.00
O520   O     0.15833   0.29689   0.17459   0.00000  Uiso   1.00
O521   O     0.12761   0.27835   0.33232   0.00000  Uiso   1.00
O522   O     0.19580   0.24911   0.18337   0.00000  Uiso   1.00
O523   O     0.11742   0.37718   0.17840   0.00000  Uiso   1.00
O524   O     0.15247   0.36152   0.33329   0.00000  Uiso   1.00
O525   O     0.13661   0.43497   0.18540   0.00000  Uiso   1.00
C529   C     0.23429   0.00910   0.00000   0.00000  Uiso   1.00
H530   H     0.20870   0.00980   0.00000   0.00000  Uiso   1.00
C531   C     0.30995   0.00736   0.00000   0.00000  Uiso   1.00
H532   H     0.33550   0.00690   0.00000   0.00000  Uiso   1.00
Na533  Na    0.29973   0.16348   0.00000   0.00000  Uiso   1.00
C535   C     0.76571   0.99090   0.00000   0.00000  Uiso   1.00
H536   H     0.79130   0.99020   0.00000   0.00000  Uiso   1.00
C537   C     0.69005   0.99264   0.00000   0.00000  Uiso   1.00
H538   H     0.66450   0.99310   0.00000   0.00000  Uiso   1.00
Na539  Na    0.70027   0.83652   0.00000   0.00000  Uiso   1.00
C541   C     0.49090   0.73429   0.50000   0.00000  Uiso   1.00
H542   H     0.49020   0.70870   0.50000   0.00000  Uiso   1.00
C543   C     0.49264   0.80995   0.50000   0.00000  Uiso   1.00
H544   H     0.49310   0.83550   0.50000   0.00000  Uiso   1.00
Na545  Na    0.33652   0.79973   0.50000   0.00000  Uiso   1.00
C547   C     0.50910   0.26571   0.50000   0.00000  Uiso   1.00
H548   H     0.50980   0.29130   0.50000   0.00000  Uiso   1.00
C549   C     0.50736   0.19005   0.50000   0.00000  Uiso   1.00
H550   H     0.50690   0.16450   0.50000   0.00000  Uiso   1.00
Na551  Na    0.66348   0.20027   0.50000   0.00000  Uiso   1.00
C553   C     0.26571   0.50910   0.50000   0.00000  Uiso   1.00
H554   H     0.29130   0.50980   0.50000   0.00000  Uiso   1.00
C555   C     0.19005   0.50736   0.50000   0.00000  Uiso   1.00
H556   H     0.16450   0.50690   0.50000   0.00000  Uiso   1.00
Na557  Na    0.20027   0.66348   0.50000   0.00000  Uiso   1.00
C559   C     0.73429   0.49090   0.50000   0.00000  Uiso   1.00
H560   H     0.70870   0.49020   0.50000   0.00000  Uiso   1.00
C561   C     0.80995   0.49264   0.50000   0.00000  Uiso   1.00
H562   H     0.83550   0.49310   0.50000   0.00000  Uiso   1.00
Na563  Na    0.79973   0.33652   0.50000   0.00000  Uiso   1.00
C565   C     0.00910   0.23429   0.00000   0.00000  Uiso   1.00
H566   H     0.00980   0.20870   0.00000   0.00000  Uiso   1.00
C567   C     0.00736   0.30995   0.00000   0.00000  Uiso   1.00
H568   H     0.00690   0.33550   0.00000   0.00000  Uiso   1.00
Na569  Na    0.16348   0.29973   0.00000   0.00000  Uiso   1.00
C571   C     0.99090   0.76571   0.00000   0.00000  Uiso   1.00
H572   H     0.99020   0.79130   0.00000   0.00000  Uiso   1.00
C573   C     0.99264   0.69005   0.00000   0.00000  Uiso   1.00
H574   H     0.99310   0.66450   0.00000   0.00000  Uiso   1.00
Na575  Na    0.83652   0.70027   0.00000   0.00000  Uiso   1.00
C577   C     0.18140   0.10650   0.50000   0.00000  Uiso   1.00
H578   H     0.16630   0.08580   0.50000   0.00000  Uiso   1.00
C579   C     0.22854   0.16579   0.50000   0.00000  Uiso   1.00
H580   H     0.24490   0.18540   0.50000   0.00000  Uiso   1.00
C581   C     0.41220   0.24690   0.50000   0.00000  Uiso   1.00
H582   H     0.41050   0.27240   0.50000   0.00000  Uiso   1.00
C583   C     0.41912   0.17256   0.50000   0.00000  Uiso   1.00
H584   H     0.42160   0.14710   0.50000   0.00000  Uiso   1.00
C588   C     0.81860   0.89350   0.50000   0.00000  Uiso   1.00
H589   H     0.83370   0.91420   0.50000   0.00000  Uiso   1.00
C590   C     0.77146   0.83421   0.50000   0.00000  Uiso   1.00
H591   H     0.75510   0.81460   0.50000   0.00000  Uiso   1.00
C592   C     0.58780   0.75310   0.50000   0.00000  Uiso   1.00
H593   H     0.58950   0.72760   0.50000   0.00000  Uiso   1.00
C594   C     0.58088   0.82744   0.50000   0.00000  Uiso   1.00
H595   H     0.57840   0.85290   0.50000   0.00000  Uiso   1.00
C599   C     0.39350   0.68140   0.00000   0.00000  Uiso   1.00
H600   H     0.41420   0.66630   0.00000   0.00000  Uiso   1.00
C601   C     0.33421   0.72854   0.00000   0.00000  Uiso   1.00
H602   H     0.31460   0.74490   0.00000   0.00000  Uiso   1.00
C603   C     0.25310   0.91220   0.00000   0.00000  Uiso   1.00
H604   H     0.22760   0.91050   0.00000   0.00000  Uiso   1.00
C605   C     0.32744   0.91912   0.00000   0.00000  Uiso   1.00
H606   H     0.35290   0.92160   0.00000   0.00000  Uiso   1.00
C610   C     0.60650   0.31860   0.00000   0.00000  Uiso   1.00
H611   H     0.58580   0.33370   0.00000   0.00000  Uiso   1.00
C612   C     0.66579   0.27146   0.00000   0.00000  Uiso   1.00
H613   H     0.68540   0.25510   0.00000   0.00000  Uiso   1.00
C614   C     0.74690   0.08780   0.00000   0.00000  Uiso   1.00
H615   H     0.77240   0.08950   0.00000   0.00000  Uiso   1.00
C616   C     0.67256   0.08088   0.00000   0.00000  Uiso   1.00
H617   H     0.64710   0.07840   0.00000   0.00000  Uiso   1.00
C621   C     0.31860   0.60650   0.00000   0.00000  Uiso   1.00
H622   H     0.33370   0.58580   0.00000   0.00000  Uiso   1.00
C623   C     0.27146   0.66579   0.00000   0.00000  Uiso   1.00
H624   H     0.25510   0.68540   0.00000   0.00000  Uiso   1.00
C625   C     0.08780   0.74690   0.00000   0.00000  Uiso   1.00
H626   H     0.08950   0.77240   0.00000   0.00000  Uiso   1.00
C627   C     0.08088   0.67256   0.00000   0.00000  Uiso   1.00
H628   H     0.07840   0.64710   0.00000   0.00000  Uiso   1.00
C632   C     0.68140   0.39350   0.00000   0.00000  Uiso   1.00
H633   H     0.66630   0.41420   0.00000   0.00000  Uiso   1.00
C634   C     0.72854   0.33421   0.00000   0.00000  Uiso   1.00
H635   H     0.74490   0.31460   0.00000   0.00000  Uiso   1.00
C636   C     0.91220   0.25310   0.00000   0.00000  Uiso   1.00
H637   H     0.91050   0.22760   0.00000   0.00000  Uiso   1.00
C638   C     0.91912   0.32744   0.00000   0.00000  Uiso   1.00
H639   H     0.92160   0.35290   0.00000   0.00000  Uiso   1.00
C643   C     0.10650   0.18140   0.50000   0.00000  Uiso   1.00
H644   H     0.08580   0.16630   0.50000   0.00000  Uiso   1.00
C645   C     0.16579   0.22854   0.50000   0.00000  Uiso   1.00
H646   H     0.18540   0.24490   0.50000   0.00000  Uiso   1.00
C647   C     0.24690   0.41220   0.50000   0.00000  Uiso   1.00
H648   H     0.27240   0.41050   0.50000   0.00000  Uiso   1.00
C649   C     0.17256   0.41912   0.50000   0.00000  Uiso   1.00
H650   H     0.14710   0.42160   0.50000   0.00000  Uiso   1.00
C654   C     0.89350   0.81860   0.50000   0.00000  Uiso   1.00
H655   H     0.91420   0.83370   0.50000   0.00000  Uiso   1.00
C656   C     0.83421   0.77146   0.50000   0.00000  Uiso   1.00
H657   H     0.81460   0.75510   0.50000   0.00000  Uiso   1.00
C658   C     0.75310   0.58780   0.50000   0.00000  Uiso   1.00
H659   H     0.72760   0.58950   0.50000   0.00000  Uiso   1.00
C660   C     0.82744   0.58088   0.50000   0.00000  Uiso   1.00
H661   H     0.85290   0.57840   0.50000   0.00000  Uiso   1.00
Cu665  Cu    0.20803   0.20803   0.26671   0.00000  Uiso   1.00
Na666  Na    0.24174   0.24174   0.07140   0.00000  Uiso   1.00
Cu668  Cu    0.79197   0.79197   0.26671   0.00000  Uiso   1.00
Na669  Na    0.75826   0.75826   0.07140   0.00000  Uiso   1.00
Cu671  Cu    0.29197   0.70803   0.76671   0.00000  Uiso   1.00
Na672  Na    0.25826   0.74174   0.57140   0.00000  Uiso   1.00
Cu674  Cu    0.70803   0.29197   0.76671   0.00000  Uiso   1.00
Na675  Na    0.74174   0.25826   0.57140   0.00000  Uiso   1.00
Cu677  Cu    0.29197   0.70803   0.23329   0.00000  Uiso   1.00
Na678  Na    0.25826   0.74174   0.42860   0.00000  Uiso   1.00
Cu680  Cu    0.70803   0.29197   0.23329   0.00000  Uiso   1.00
Na681  Na    0.74174   0.25826   0.42860   0.00000  Uiso   1.00
Cu683  Cu    0.20803   0.20803   0.73329   0.00000  Uiso   1.00
Na684  Na    0.24174   0.24174   0.92860   0.00000  Uiso   1.00
Cu686  Cu    0.79197   0.79197   0.73329   0.00000  Uiso   1.00
Na687  Na    0.75826   0.75826   0.92860   0.00000  Uiso   1.00
loop_
_geom_bond_atom_site_label_1
_geom_bond_atom_site_label_2
_geom_bond_distance
_geom_bond_site_symmetry_2
_ccdc_geom_bond_type
C1     C2      1.538   .     S
C1     O22     1.244   .     D
C1     O24     1.258   .     S
C2     N19     1.298   .     S
C2     O23     1.280   .     D
C3     C4      1.375   .     A
C3     N19     1.440   .     S
C3     C531    1.385   .     A
C4     H5      0.930   .     S
C4     C529    1.393   .     A
C6     C7      1.534   .     S
C6     O25     1.243   .     A
C6     O27     1.251   .     A
C7     N20     1.303   .     S
C7     O26     1.264   .     D
C8     C9      1.372   .     A
C8     N20     1.433   .     S
C8     C579    1.392   .     A
C9     H10     0.929   .     S
C9     C577    1.380   .     A
C11    C12     1.537   .     S
C11    O28     1.238   .     D
C11    O30     1.257   .     S
C12    N21     1.308   .     S
C12    O29     1.270   .     D
C13    C14     1.375   .     A
C13    N21     1.418   .     S
C13    C583    1.394   .     A
C14    H15     0.931   .     S
C14    C581    1.386   .     A
Cu16   N384    1.980   .     S
Cu16   O393    1.985   .     S
Cu16   N19     2.013   1_565 S
Cu16   O24     1.976   1_565 D
Mn17   O22     2.180   .     S
Mn17   O23     2.188   .     S
Mn17   O25     2.192   .     S
Mn17   O26     2.131   .     S
Mn17   O28     2.172   .     S
Mn17   O29     2.176   .     S
Na18   O123    2.526   .     S
Na18   O327    2.223   .     S
N19    Cu16    2.013   1_545 S
N20    Cu665   1.974   .     S
N21    Cu346   1.980   .     S
O24    Cu16    1.976   1_545 D
O24    Na84    2.526   1_545 D
O25    Na533   2.618   .     S
O27    Cu665   1.995   .     S
O27    Na666   2.379   .     S
O30    Na315   2.223   .     S
O30    Cu346   1.985   .     S
C34    C35     1.538   .     S
C34    O55     1.244   .     D
C34    O57     1.258   .     S
C35    N52     1.298   .     S
C35    O56     1.280   .     D
C36    C37     1.375   .     A
C36    N52     1.440   .     S
C36    C537    1.385   .     A
C37    H38     0.930   .     S
C37    C535    1.393   .     A
C39    C40     1.534   .     S
C39    O58     1.243   .     A
C39    O60     1.251   .     A
C40    N53     1.303   .     S
C40    O59     1.264   .     D
C41    C42     1.372   .     A
C41    N53     1.433   .     S
C41    C590    1.392   .     A
C42    H43     0.929   .     S
C42    C588    1.380   .     A
C44    C45     1.537   .     S
C44    O61     1.238   .     D
C44    O63     1.257   .     S
C45    N54     1.308   .     S
C45    O62     1.270   .     D
C46    C47     1.375   .     A
C46    N54     1.418   .     S
C46    C594    1.394   .     A
C47    H48     0.931   .     S
C47    C592    1.386   .     A
Cu49   N351    1.980   .     S
Cu49   O360    1.985   .     S
Cu49   N52     2.013   1_545 A
Cu49   O57     1.976   1_545 S
Mn50   O55     2.180   .     S
Mn50   O56     2.188   .     S
Mn50   O58     2.192   .     S
Mn50   O59     2.131   .     S
Mn50   O61     2.172   .     S
Mn50   O62     2.176   .     S
Na51   O90     2.526   .     S
Na51   O294    2.223   .     S
N52    Cu49    2.013   1_565 A
N53    Cu668   1.974   .     S
N54    Cu379   1.980   .     S
O57    Cu49    1.976   1_565 S
O57    Na117   2.526   1_565 A
O58    Na539   2.618   .     S
O60    Cu668   1.995   .     S
O60    Na669   2.379   .     S
O63    Na282   2.223   .     S
O63    Cu379   1.985   .     S
C67    C68     1.538   .     S
C67    O88     1.244   .     D
C67    O90     1.258   .     S
C68    N85     1.298   .     S
C68    O89     1.280   .     D
C69    C70     1.375   .     A
C69    N85     1.440   .     S
C69    C543    1.385   .     A
C70    H71     0.930   .     S
C70    C541    1.393   .     A
C72    C73     1.534   .     S
C72    O91     1.243   .     A
C72    O93     1.251   .     A
C73    N86     1.303   .     S
C73    O92     1.264   .     D
C74    C75     1.372   .     A
C74    N86     1.433   .     S
C74    C601    1.392   1_556 S
C75    H76     0.929   .     S
C75    C599    1.380   1_556 A
C77    C78     1.537   .     S
C77    O94     1.238   .     D
C77    O96     1.257   .     S
C78    N87     1.308   .     S
C78    O95     1.270   .     D
C79    C80     1.375   .     A
C79    N87     1.418   .     S
C79    C605    1.394   1_556 A
C80    H81     0.931   .     S
C80    C603    1.386   1_556 S
Cu82   N85     2.013   .     S
Cu82   O90     1.976   .     S
Cu82   N285    1.980   .     S
Cu82   O294    1.985   .     S
Mn83   O88     2.180   .     S
Mn83   O89     2.188   .     S
Mn83   O91     2.192   .     S
Mn83   O92     2.131   .     S
Mn83   O94     2.172   .     S
Mn83   O95     2.176   .     S
Na84   O393    2.223   .     S
Na84   O24     2.526   1_565 D
N86    Cu671   1.974   .     S
N87    Cu313   1.980   .     S
O91    Na545   2.618   .     S
O93    Cu671   1.995   .     S
O93    Na672   2.379   .     S
O96    Cu313   1.985   .     S
O96    Na381   2.223   .     S
C100   C101    1.538   .     S
C100   O121    1.244   .     D
C100   O123    1.258   .     S
C101   N118    1.298   .     S
C101   O122    1.280   .     D
C102   C103    1.375   .     A
C102   N118    1.440   .     S
C102   C549    1.385   .     A
C103   H104    0.930   .     S
C103   C547    1.393   .     A
C105   C106    1.534   .     S
C105   O124    1.243   .     A
C105   O126    1.251   .     A
C106   N119    1.303   .     S
C106   O125    1.264   .     D
C107   C108    1.372   .     A
C107   N119    1.433   .     S
C107   C612    1.392   1_556 A
C108   H109    0.929   .     S
C108   C610    1.380   1_556 S
C110   C111    1.537   .     S
C110   O127    1.238   .     D
C110   O129    1.257   .     S
C111   N120    1.308   .     S
C111   O128    1.270   .     D
C112   C113    1.375   .     A
C112   N120    1.418   .     S
C112   C616    1.394   1_556 A
C113   H114    0.931   .     S
C113   C614    1.386   1_556 S
Cu115  N118    2.013   .     S
Cu115  O123    1.976   .     S
Cu115  N318    1.980   .     S
Cu115  O327    1.985   .     S
Mn116  O121    2.180   .     S
Mn116  O122    2.188   .     S
Mn116  O124    2.192   .     S
Mn116  O125    2.131   .     S
Mn116  O127    2.172   .     S
Mn116  O128    2.176   .     S
Na117  O360    2.223   .     S
Na117  O57     2.526   1_545 A
N119   Cu674   1.974   .     S
N120   Cu280   1.980   .     S
O124   Na551   2.618   .     S
O126   Cu674   1.995   .     S
O126   Na675   2.379   .     S
O129   Cu280   1.985   .     S
O129   Na348   2.223   .     S
C133   C134    1.538   .     S
C133   O154    1.244   .     D
C133   O156    1.258   .     S
C134   N151    1.298   .     S
C134   O155    1.280   .     D
C135   C136    1.375   .     A
C135   N151    1.440   .     S
C135   C555    1.385   .     A
C136   H137    0.930   .     S
C136   C553    1.393   .     A
C138   C139    1.534   .     S
C138   O157    1.243   .     A
C138   O159    1.251   .     A
C139   N152    1.303   .     S
C139   O158    1.264   .     D
C140   C141    1.372   .     A
C140   N152    1.433   .     S
C140   C623    1.392   .     A
C141   H142    0.929   .     S
C141   C621    1.380   .     A
C143   C144    1.537   .     S
C143   O160    1.238   .     D
C143   O162    1.257   .     S
C144   N153    1.308   .     S
C144   O161    1.270   .     D
C145   C146    1.375   .     A
C145   N153    1.418   .     S
C145   C627    1.394   .     A
C146   H147    0.931   .     S
C146   C625    1.386   .     A
Cu148  N151    2.013   .     S
Cu148  O156    1.976   .     S
Cu148  N516    1.980   .     S
Cu148  O525    1.985   .     S
Mn149  O154    2.180   .     S
Mn149  O155    2.188   .     S
Mn149  O157    2.192   .     S
Mn149  O158    2.131   .     S
Mn149  O160    2.172   .     S
Mn149  O161    2.176   .     S
Na150  O459    2.223   .     S
Na150  O255    2.526   1_455 S
N152   Cu677   1.974   .     S
N153   Cu478   1.980   .     S
O156   Na216   2.526   .     S
O157   Na557   2.618   .     S
O159   Cu677   1.995   .     S
O159   Na678   2.379   .     S
O162   Na447   2.223   .     S
O162   Cu478   1.985   .     S
C166   C167    1.538   .     S
C166   O187    1.244   .     D
C166   O189    1.258   .     S
C167   N184    1.298   .     S
C167   O188    1.280   .     D
C168   C169    1.375   .     A
C168   N184    1.440   .     S
C168   C561    1.385   .     A
C169   H170    0.930   .     S
C169   C559    1.393   .     A
C171   C172    1.534   .     S
C171   O190    1.243   .     A
C171   O192    1.251   .     A
C172   N185    1.303   .     S
C172   O191    1.264   .     D
C173   C174    1.372   .     A
C173   N185    1.433   .     S
C173   C634    1.392   .     A
C174   H175    0.929   .     S
C174   C632    1.380   .     A
C176   C177    1.537   .     S
C176   O193    1.238   .     D
C176   O195    1.257   .     S
C177   N186    1.308   .     S
C177   O194    1.270   .     D
C178   C179    1.375   .     A
C178   N186    1.418   .     S
C178   C638    1.394   .     A
C179   H180    0.931   .     S
C179   C636    1.386   .     A
Cu181  N184    2.013   .     S
Cu181  O189    1.976   .     S
Cu181  N483    1.980   .     S
Cu181  O492    1.985   .     S
Mn182  O187    2.180   .     S
Mn182  O188    2.188   .     S
Mn182  O190    2.192   .     S
Mn182  O191    2.131   .     S
Mn182  O193    2.172   .     S
Mn182  O194    2.176   .     S
Na183  O426    2.223   .     S
Na183  O222    2.526   1_655 D
N185   Cu680   1.974   .     S
N186   Cu511   1.980   .     S
O189   Na249   2.526   .     S
O190   Na563   2.618   .     S
O192   Cu680   1.995   .     S
O192   Na681   2.379   .     S
O195   Na414   2.223   .     S
O195   Cu511   1.985   .     S
C199   C200    1.538   .     S
C199   O220    1.244   .     D
C199   O222    1.258   .     S
C200   N217    1.298   .     S
C200   O221    1.280   .     D
C201   C202    1.375   .     A
C201   N217    1.440   .     S
C201   C567    1.385   1_556 S
C202   H203    0.930   .     S
C202   C565    1.393   1_556 S
C204   C205    1.534   .     S
C204   O223    1.243   .     A
C204   O225    1.251   .     A
C205   N218    1.303   .     S
C205   O224    1.264   .     D
C206   C207    1.372   .     A
C206   N218    1.433   .     S
C206   C645    1.392   .     A
C207   H208    0.929   .     S
C207   C643    1.380   .     A
C209   C210    1.537   .     S
C209   O226    1.238   .     D
C209   O228    1.257   .     S
C210   N219    1.308   .     S
C210   O227    1.270   .     D
C211   C212    1.375   .     A
C211   N219    1.418   .     S
C211   C649    1.394   .     A
C212   H213    0.931   .     S
C212   C647    1.386   .     A
Cu214  N417    1.980   .     S
Cu214  O426    1.985   .     S
Cu214  N217    2.013   1_655 D
Cu214  O222    1.976   1_655 A
Mn215  O220    2.180   .     S
Mn215  O221    2.188   .     S
Mn215  O223    2.192   .     S
Mn215  O224    2.131   .     S
Mn215  O226    2.172   .     S
Mn215  O227    2.176   .     S
Na216  O525    2.223   .     S
N217   Cu214   2.013   1_455 D
N218   Cu683   1.974   .     S
N219   Cu445   1.980   .     S
O222   Na183   2.526   1_455 D
O222   Cu214   1.976   1_455 A
O223   Na569   2.618   1_556 A
O225   Cu683   1.995   .     S
O225   Na684   2.379   .     S
O228   Cu445   1.985   .     S
O228   Na513   2.223   .     S
C232   C233    1.538   .     S
C232   O253    1.244   .     D
C232   O255    1.258   .     S
C233   N250    1.298   .     S
C233   O254    1.280   .     D
C234   C235    1.375   .     A
C234   N250    1.440   .     S
C234   C573    1.385   1_556 S
C235   H236    0.930   .     S
C235   C571    1.393   1_556 S
C237   C238    1.534   .     S
C237   O256    1.243   .     A
C237   O258    1.251   .     A
C238   N251    1.303   .     S
C238   O257    1.264   .     D
C239   C240    1.372   .     A
C239   N251    1.433   .     S
C239   C656    1.392   .     A
C240   H241    0.929   .     S
C240   C654    1.380   .     A
C242   C243    1.537   .     S
C242   O259    1.238   .     D
C242   O261    1.257   .     S
C243   N252    1.308   .     S
C243   O260    1.270   .     D
C244   C245    1.375   .     A
C244   N252    1.418   .     S
C244   C660    1.394   .     A
C245   H246    0.931   .     S
C245   C658    1.386   .     A
Cu247  N450    1.980   .     S
Cu247  O459    1.985   .     S
Cu247  N250    2.013   1_455 S
Cu247  O255    1.976   1_455 S
Mn248  O253    2.180   .     S
Mn248  O254    2.188   .     S
Mn248  O256    2.192   .     S
Mn248  O257    2.131   .     S
Mn248  O259    2.172   .     S
Mn248  O260    2.176   .     S
Na249  O492    2.223   .     S
N250   Cu247   2.013   1_655 S
N251   Cu686   1.974   .     S
N252   Cu412   1.980   .     S
O255   Na150   2.526   1_655 S
O255   Cu247   1.976   1_655 S
O256   Na575   2.618   1_556 S
O258   Cu686   1.995   .     S
O258   Na687   2.379   .     S
O261   Cu412   1.985   .     S
O261   Na480   2.223   .     S
C265   C266    1.538   .     S
C265   O286    1.244   .     D
C265   O288    1.258   .     S
C266   N283    1.298   .     S
C266   O287    1.280   .     D
C267   C268    1.375   .     A
C267   N283    1.440   .     S
C267   C537    1.385   1_556 S
C268   H269    0.930   .     S
C268   C535    1.393   1_556 S
C270   C271    1.534   .     S
C270   O289    1.243   .     A
C270   O291    1.251   .     A
C271   N284    1.303   .     S
C271   O290    1.264   .     D
C272   C273    1.372   .     A
C272   N284    1.433   .     S
C272   C590    1.392   .     A
C273   H274    0.929   .     S
C273   C588    1.380   .     A
C275   C276    1.537   .     S
C275   O292    1.238   .     D
C275   O294    1.257   .     S
C276   N285    1.308   .     S
C276   O293    1.270   .     D
C277   C278    1.375   .     A
C277   N285    1.418   .     S
C277   C594    1.394   .     A
C278   H279    0.931   .     S
C278   C592    1.386   .     A
Cu280  N283    2.013   1_545 S
Cu280  O288    1.976   1_545 S
Mn281  O286    2.180   .     S
Mn281  O287    2.188   .     S
Mn281  O289    2.192   .     S
Mn281  O290    2.131   .     S
Mn281  O292    2.172   .     S
Mn281  O293    2.176   .     S
Na282  O387    2.526   .     S
N283   Cu280   2.013   1_565 S
N284   Cu686   1.974   .     S
O288   Cu280   1.976   1_565 S
O288   Na348   2.526   1_565 S
O289   Na539   2.618   1_556 S
O291   Cu686   1.995   .     S
O291   Na687   2.379   .     S
C298   C299    1.538   .     S
C298   O319    1.244   .     D
C298   O321    1.258   .     S
C299   N316    1.298   .     S
C299   O320    1.280   .     D
C300   C301    1.375   .     A
C300   N316    1.440   .     S
C300   C531    1.385   1_556 S
C301   H302    0.930   .     S
C301   C529    1.393   1_556 S
C303   C304    1.534   .     S
C303   O322    1.243   .     A
C303   O324    1.251   .     A
C304   N317    1.303   .     S
C304   O323    1.264   .     D
C305   C306    1.372   .     A
C305   N317    1.433   .     S
C305   C579    1.392   .     A
C306   H307    0.929   .     S
C306   C577    1.380   .     A
C308   C309    1.537   .     S
C308   O325    1.238   .     D
C308   O327    1.257   .     S
C309   N318    1.308   .     S
C309   O326    1.270   .     D
C310   C311    1.375   .     A
C310   N318    1.418   .     S
C310   C583    1.394   .     A
C311   H312    0.931   .     S
C311   C581    1.386   .     A
Cu313  N316    2.013   1_565 D
Cu313  O321    1.976   1_565 S
Mn314  O319    2.180   .     S
Mn314  O320    2.188   .     S
Mn314  O322    2.192   .     S
Mn314  O323    2.131   .     S
Mn314  O325    2.172   .     S
Mn314  O326    2.176   .     S
Na315  O354    2.526   .     S
N316   Cu313   2.013   1_545 D
N317   Cu683   1.974   .     S
O321   Cu313   1.976   1_545 S
O321   Na381   2.526   1_545 A
O322   Na533   2.618   1_556 S
O324   Cu683   1.995   .     S
O324   Na684   2.379   .     S
C331   C332    1.538   .     S
C331   O352    1.244   .     D
C331   O354    1.258   .     S
C332   N349    1.298   .     S
C332   O353    1.280   .     D
C333   C334    1.375   .     A
C333   N349    1.440   .     S
C333   C549    1.385   .     A
C334   H335    0.930   .     S
C334   C547    1.393   .     A
C336   C337    1.534   .     S
C336   O355    1.243   .     A
C336   O357    1.251   .     A
C337   N350    1.303   .     S
C337   O356    1.264   .     D
C338   C339    1.372   .     A
C338   N350    1.433   .     S
C338   C612    1.392   .     A
C339   H340    0.929   .     S
C339   C610    1.380   .     A
C341   C342    1.537   .     S
C341   O358    1.238   .     D
C341   O360    1.257   .     S
C342   N351    1.308   .     S
C342   O359    1.270   .     D
C343   C344    1.375   .     A
C343   N351    1.418   .     S
C343   C616    1.394   .     A
C344   H345    0.931   .     S
C344   C614    1.386   .     A
Cu346  N349    2.013   .     S
Cu346  O354    1.976   .     S
Mn347  O352    2.180   .     S
Mn347  O353    2.188   .     S
Mn347  O355    2.192   .     S
Mn347  O356    2.131   .     S
Mn347  O358    2.172   .     S
Mn347  O359    2.176   .     S
Na348  O288    2.526   1_545 S
N350   Cu680   1.974   .     S
O355   Na551   2.618   .     S
O357   Cu680   1.995   .     S
O357   Na681   2.379   .     S
C364   C365    1.538   .     S
C364   O385    1.244   .     D
C364   O387    1.258   .     S
C365   N382    1.298   .     S
C365   O386    1.280   .     D
C366   C367    1.375   .     A
C366   N382    1.440   .     S
C366   C543    1.385   .     A
C367   H368    0.930   .     S
C367   C541    1.393   .     A
C369   C370    1.534   .     S
C369   O388    1.243   .     A
C369   O390    1.251   .     A
C370   N383    1.303   .     S
C370   O389    1.264   .     D
C371   C372    1.372   .     A
C371   N383    1.433   .     S
C371   C601    1.392   .     A
C372   H373    0.929   .     S
C372   C599    1.380   .     A
C374   C375    1.537   .     S
C374   O391    1.238   .     D
C374   O393    1.257   .     S
C375   N384    1.308   .     S
C375   O392    1.270   .     D
C376   C377    1.375   .     A
C376   N384    1.418   .     S
C376   C605    1.394   .     A
C377   H378    0.931   .     S
C377   C603    1.386   .     A
Cu379  N382    2.013   .     S
Cu379  O387    1.976   .     S
Mn380  O385    2.180   .     S
Mn380  O386    2.188   .     S
Mn380  O388    2.192   .     S
Mn380  O389    2.131   .     S
Mn380  O391    2.172   .     S
Mn380  O392    2.176   .     S
Na381  O321    2.526   1_565 A
N383   Cu677   1.974   .     S
O388   Na545   2.618   .     S
O390   Cu677   1.995   .     S
O390   Na678   2.379   .     S
C397   C398    1.538   .     S
C397   O418    1.244   .     D
C397   O420    1.258   .     S
C398   N415    1.298   .     S
C398   O419    1.280   .     D
C399   C400    1.375   .     A
C399   N415    1.440   .     S
C399   C561    1.385   .     A
C400   H401    0.930   .     S
C400   C559    1.393   .     A
C402   C403    1.534   .     S
C402   O421    1.243   .     A
C402   O423    1.251   .     A
C403   N416    1.303   .     S
C403   O422    1.264   .     D
C404   C405    1.372   .     A
C404   N416    1.433   .     S
C404   C634    1.392   1_556 A
C405   H406    0.929   .     S
C405   C632    1.380   1_556 S
C407   C408    1.537   .     S
C407   O424    1.238   .     D
C407   O426    1.257   .     S
C408   N417    1.308   .     S
C408   O425    1.270   .     D
C409   C410    1.375   .     A
C409   N417    1.418   .     S
C409   C638    1.394   1_556 A
C410   H411    0.931   .     S
C410   C636    1.386   1_556 A
Cu412  N415    2.013   .     S
Cu412  O420    1.976   .     S
Mn413  O418    2.180   .     S
Mn413  O419    2.188   .     S
Mn413  O421    2.192   .     S
Mn413  O422    2.131   .     S
Mn413  O424    2.172   .     S
Mn413  O425    2.176   .     S
Na414  O519    2.526   1_655 S
N416   Cu674   1.974   .     S
O420   Na480   2.526   .     S
O421   Na563   2.618   .     S
O423   Cu674   1.995   .     S
O423   Na675   2.379   .     S
C430   C431    1.538   .     S
C430   O451    1.244   .     D
C430   O453    1.258   .     S
C431   N448    1.298   .     S
C431   O452    1.280   .     D
C432   C433    1.375   .     A
C432   N448    1.440   .     S
C432   C555    1.385   .     A
C433   H434    0.930   .     S
C433   C553    1.393   .     A
C435   C436    1.534   .     S
C435   O454    1.243   .     A
C435   O456    1.251   .     A
C436   N449    1.303   .     S
C436   O455    1.264   .     D
C437   C438    1.372   .     A
C437   N449    1.433   .     S
C437   C623    1.392   1_556 D
C438   H439    0.929   .     S
C438   C621    1.380   1_556 A
C440   C441    1.537   .     S
C440   O457    1.238   .     D
C440   O459    1.257   .     S
C441   N450    1.308   .     S
C441   O458    1.270   .     D
C442   C443    1.375   .     A
C442   N450    1.418   .     S
C442   C627    1.394   1_556 S
C443   H444    0.931   .     S
C443   C625    1.386   1_556 A
Cu445  N448    2.013   .     S
Cu445  O453    1.976   .     S
Mn446  O451    2.180   .     S
Mn446  O452    2.188   .     S
Mn446  O454    2.192   .     S
Mn446  O455    2.131   .     S
Mn446  O457    2.172   .     S
Mn446  O458    2.176   .     S
Na447  O486    2.526   1_455 S
N449   Cu671   1.974   .     S
O453   Na513   2.526   .     S
O454   Na557   2.618   .     S
O456   Cu671   1.995   .     S
O456   Na672   2.379   .     S
C463   C464    1.538   .     S
C463   O484    1.244   .     D
C463   O486    1.258   .     S
C464   N481    1.298   .     S
C464   O485    1.280   .     D
C465   C466    1.375   .     A
C465   N481    1.440   .     S
C465   C573    1.385   .     A
C466   H467    0.930   .     S
C466   C571    1.393   .     A
C468   C469    1.534   .     S
C468   O487    1.243   .     A
C468   O489    1.251   .     A
C469   N482    1.303   .     S
C469   O488    1.264   .     D
C470   C471    1.372   .     A
C470   N482    1.433   .     S
C470   C656    1.392   .     A
C471   H472    0.929   .     S
C471   C654    1.380   .     A
C473   C474    1.537   .     S
C473   O490    1.238   .     D
C473   O492    1.257   .     S
C474   N483    1.308   .     S
C474   O491    1.270   .     D
C475   C476    1.375   .     A
C475   N483    1.418   .     S
C475   C660    1.394   .     A
C476   H477    0.931   .     S
C476   C658    1.386   .     A
Cu478  N481    2.013   1_455 A
Cu478  O486    1.976   1_455 S
Mn479  O484    2.180   .     S
Mn479  O485    2.188   .     S
Mn479  O487    2.192   .     S
Mn479  O488    2.131   .     S
Mn479  O490    2.172   .     S
Mn479  O491    2.176   .     S
N481   Cu478   2.013   1_655 A
N482   Cu668   1.974   .     S
O486   Na447   2.526   1_655 S
O486   Cu478   1.976   1_655 S
O487   Na575   2.618   .     S
O489   Cu668   1.995   .     S
O489   Na669   2.379   .     S
C496   C497    1.538   .     S
C496   O517    1.244   .     D
C496   O519    1.258   .     S
C497   N514    1.298   .     S
C497   O518    1.280   .     D
C498   C499    1.375   .     A
C498   N514    1.440   .     S
C498   C567    1.385   .     A
C499   H500    0.930   .     S
C499   C565    1.393   .     A
C501   C502    1.534   .     S
C501   O520    1.243   .     A
C501   O522    1.251   .     A
C502   N515    1.303   .     S
C502   O521    1.264   .     D
C503   C504    1.372   .     A
C503   N515    1.433   .     S
C503   C645    1.392   .     A
C504   H505    0.929   .     S
C504   C643    1.380   .     A
C506   C507    1.537   .     S
C506   O523    1.238   .     D
C506   O525    1.257   .     S
C507   N516    1.308   .     S
C507   O524    1.270   .     D
C508   C509    1.375   .     A
C508   N516    1.418   .     S
C508   C649    1.394   .     A
C509   H510    0.931   .     S
C509   C647    1.386   .     A
Cu511  N514    2.013   1_655 D
Cu511  O519    1.976   1_655 A
Mn512  O517    2.180   .     S
Mn512  O518    2.188   .     S
Mn512  O520    2.192   .     S
Mn512  O521    2.131   .     S
Mn512  O523    2.172   .     S
Mn512  O524    2.176   .     S
N514   Cu511   2.013   1_455 D
N515   Cu665   1.974   .     S
O519   Na414   2.526   1_455 S
O519   Cu511   1.976   1_455 A
O520   Na569   2.618   .     S
O522   Cu665   1.995   .     S
O522   Na666   2.379   .     S
C529   H530    0.931   .     S
C529   C301    1.393   1_554 S
C531   H532    0.929   .     S
C531   C300    1.385   1_554 S
Na533  Na666   3.698   .     S
Na533  O322    2.618   1_554 S
Na533  Na684   3.698   1_554 S
C535   H536    0.931   .     S
C535   C268    1.393   1_554 S
C537   H538    0.929   .     S
C537   C267    1.385   1_554 S
Na539  Na669   3.698   .     S
Na539  O289    2.618   1_554 S
Na539  Na687   3.698   1_554 S
C541   H542    0.931   .     S
C543   H544    0.929   .     S
Na545  Na672   3.698   .     S
Na545  Na678   3.698   .     S
C547   H548    0.931   .     S
C549   H550    0.929   .     S
Na551  Na675   3.698   .     S
Na551  Na681   3.698   .     S
C553   H554    0.931   .     S
C555   H556    0.929   .     S
Na557  Na672   3.698   .     S
Na557  Na678   3.698   .     S
C559   H560    0.931   .     S
C561   H562    0.929   .     S
Na563  Na675   3.698   .     S
Na563  Na681   3.698   .     S
C565   H566    0.931   .     S
C565   C202    1.393   1_554 S
C567   H568    0.929   .     S
C567   C201    1.385   1_554 S
Na569  Na666   3.698   .     S
Na569  O223    2.618   1_554 A
Na569  Na684   3.698   1_554 S
C571   H572    0.931   .     S
C571   C235    1.393   1_554 S
C573   H574    0.929   .     S
C573   C234    1.385   1_554 S
Na575  Na669   3.698   .     S
Na575  O256    2.618   1_554 S
Na575  Na687   3.698   1_554 S
C577   H578    0.931   .     S
C579   H580    0.928   .     S
C581   H582    0.929   .     S
C583   H584    0.930   .     S
C588   H589    0.931   .     S
C590   H591    0.928   .     S
C592   H593    0.929   .     S
C594   H595    0.930   .     S
C599   H600    0.931   .     S
C599   C75     1.380   1_554 A
C601   H602    0.928   .     S
C601   C74     1.392   1_554 S
C603   H604    0.929   .     S
C603   C80     1.386   1_554 S
C605   H606    0.930   .     S
C605   C79     1.394   1_554 A
C610   H611    0.931   .     S
C610   C108    1.380   1_554 S
C612   H613    0.928   .     S
C612   C107    1.392   1_554 A
C614   H615    0.929   .     S
C614   C113    1.386   1_554 S
C616   H617    0.930   .     S
C616   C112    1.394   1_554 A
C621   H622    0.931   .     S
C621   C438    1.380   1_554 A
C623   H624    0.928   .     S
C623   C437    1.392   1_554 D
C625   H626    0.929   .     S
C625   C443    1.386   1_554 A
C627   H628    0.930   .     S
C627   C442    1.394   1_554 S
C632   H633    0.931   .     S
C632   C405    1.380   1_554 S
C634   H635    0.928   .     S
C634   C404    1.392   1_554 A
C636   H637    0.929   .     S
C636   C410    1.386   1_554 A
C638   H639    0.930   .     S
C638   C409    1.394   1_554 A
C643   H644    0.931   .     S
C645   H646    0.928   .     S
C647   H648    0.929   .     S
C649   H650    0.930   .     S
C654   H655    0.931   .     S
C656   H657    0.928   .     S
C658   H659    0.929   .     S
C660   H661    0.930   .     S
Na666  Na684   2.134   1_554 D
Na669  Na687   2.134   1_554 A
Na672  Na678   2.134   .     S
Na675  Na681   2.134   .     S
Na684  Na533   3.698   1_556 S
Na684  Na569   3.698   1_556 S
Na684  Na666   2.134   1_556 D
Na687  Na539   3.698   1_556 S
Na687  Na575   3.698   1_556 S
Na687  Na669   2.134   1_556 A
