data_image0
_cell_length_a       16.748
_cell_length_b       24.518
_cell_length_c       33.291
_cell_angle_alpha    90
_cell_angle_beta     90
_cell_angle_gamma    90

_symmetry_space_group_name_H-M    P 1
_symmetry_int_tables_number       1

loop_
  _symmetry_equiv_pos_as_xyz
  'x, y, z'

loop_
  _atom_site_label
  _atom_site_occupancy
  _atom_site_fract_x
  _atom_site_fract_y
  _atom_site_fract_z
  _atom_site_thermal_displace_type
  _atom_site_B_iso_or_equiv
  _atom_site_type_symbol
  Zn1      1.0000 0.89737  0.77535  0.84927  Biso   1.000  Zn
  Zn2      1.0000 0.04382  0.28041  0.07038  Biso   1.000  Zn
  Zn3      1.0000 0.04327  0.69441  0.84771  Biso   1.000  Zn
  Zn4      1.0000 0.93186  0.19073  0.11370  Biso   1.000  Zn
  Zn5      1.0000 0.39737  0.72465  0.65073  Biso   1.000  Zn
  Zn6      1.0000 0.54382  0.21959  0.42962  Biso   1.000  Zn
  Zn7      1.0000 0.54327  0.80559  0.65229  Biso   1.000  Zn
  Zn8      1.0000 0.43186  0.30927  0.38630  Biso   1.000  Zn
  Zn9      1.0000 0.60263  0.77535  0.15073  Biso   1.000  Zn
  Zn10     1.0000 0.45618  0.28041  0.92962  Biso   1.000  Zn
  Zn11     1.0000 0.45673  0.69441  0.15229  Biso   1.000  Zn
  Zn12     1.0000 0.56814  0.19073  0.88630  Biso   1.000  Zn
  Zn13     1.0000 0.10263  0.72465  0.34927  Biso   1.000  Zn
  Zn14     1.0000 0.95618  0.21959  0.57038  Biso   1.000  Zn
  Zn15     1.0000 0.95673  0.80559  0.34771  Biso   1.000  Zn
  Zn16     1.0000 0.06814  0.30927  0.61370  Biso   1.000  Zn
  Zn17     1.0000 0.10263  0.22465  0.15073  Biso   1.000  Zn
  Zn18     1.0000 0.95618  0.71959  0.92962  Biso   1.000  Zn
  Zn19     1.0000 0.95673  0.30559  0.15229  Biso   1.000  Zn
  Zn20     1.0000 0.06814  0.80927  0.88630  Biso   1.000  Zn
  Zn21     1.0000 0.60263  0.27535  0.34927  Biso   1.000  Zn
  Zn22     1.0000 0.45618  0.78041  0.57038  Biso   1.000  Zn
  Zn23     1.0000 0.45673  0.19441  0.34771  Biso   1.000  Zn
  Zn24     1.0000 0.56814  0.69073  0.61370  Biso   1.000  Zn
  Zn25     1.0000 0.39737  0.22465  0.84927  Biso   1.000  Zn
  Zn26     1.0000 0.54382  0.71959  0.07038  Biso   1.000  Zn
  Zn27     1.0000 0.54327  0.30559  0.84771  Biso   1.000  Zn
  Zn28     1.0000 0.43186  0.80927  0.11370  Biso   1.000  Zn
  Zn29     1.0000 0.89737  0.27535  0.65073  Biso   1.000  Zn
  Zn30     1.0000 0.04382  0.78041  0.42962  Biso   1.000  Zn
  Zn31     1.0000 0.04327  0.19441  0.65229  Biso   1.000  Zn
  Zn32     1.0000 0.93186  0.69073  0.38630  Biso   1.000  Zn
  H1       1.0000 0.83270  0.14700  0.00610  Biso   1.000  H
  H2       1.0000 0.78770  0.11140  0.94560  Biso   1.000  H
  H3       1.0000 0.97500  0.17900  0.88890  Biso   1.000  H
  H4       1.0000 0.02000  0.21450  0.94940  Biso   1.000  H
  H5       1.0000 0.78290  0.11830  0.87470  Biso   1.000  H
  H6       1.0000 0.76280  0.03190  0.84180  Biso   1.000  H
  H7       1.0000 0.79290  0.93970  0.83710  Biso   1.000  H
  H8       1.0000 0.99490  0.96460  0.89960  Biso   1.000  H
  H9       1.0000 0.96490  0.05680  0.90430  Biso   1.000  H
  H10      1.0000 0.96850  0.09390  0.82290  Biso   1.000  H
  H11      1.0000 0.78500  0.19790  0.83270  Biso   1.000  H
  H12      1.0000 0.74050  0.66360  0.96670  Biso   1.000  H
  H13      1.0000 0.61770  0.62460  0.98130  Biso   1.000  H
  H14      1.0000 0.52700  0.68760  0.87960  Biso   1.000  H
  H15      1.0000 0.64990  0.72660  0.86500  Biso   1.000  H
  H16      1.0000 0.47530  0.62450  0.97210  Biso   1.000  H
  H17      1.0000 0.40760  0.60590  0.87230  Biso   1.000  H
  H18      1.0000 0.38830  0.70150  0.96920  Biso   1.000  H
  H19      1.0000 0.00620  0.13380  0.76660  Biso   1.000  H
  H20      1.0000 0.82550  0.23850  0.77280  Biso   1.000  H
  H21      1.0000 0.29010  0.64120  0.84670  Biso   1.000  H
  H22      1.0000 0.27850  0.74110  0.94150  Biso   1.000  H
  H23      1.0000 0.56030  0.47440  0.86810  Biso   1.000  H
  H24      1.0000 0.55820  0.56660  0.88400  Biso   1.000  H
  H25      1.0000 0.42260  0.53650  0.97940  Biso   1.000  H
  H26      1.0000 0.42770  0.44440  0.96530  Biso   1.000  H
  H27      1.0000 0.86860  0.10790  0.14600  Biso   1.000  H
  H28      1.0000 0.87470  0.09670  0.09980  Biso   1.000  H
  H29      1.0000 0.33270  0.35300  0.49390  Biso   1.000  H
  H30      1.0000 0.28770  0.38860  0.55440  Biso   1.000  H
  H31      1.0000 0.47500  0.32100  0.61110  Biso   1.000  H
  H32      1.0000 0.52000  0.28550  0.55060  Biso   1.000  H
  H33      1.0000 0.28290  0.38170  0.62530  Biso   1.000  H
  H34      1.0000 0.26280  0.46810  0.65820  Biso   1.000  H
  H35      1.0000 0.29290  0.56030  0.66290  Biso   1.000  H
  H36      1.0000 0.49490  0.53540  0.60040  Biso   1.000  H
  H37      1.0000 0.46490  0.44320  0.59570  Biso   1.000  H
  H38      1.0000 0.46850  0.40610  0.67710  Biso   1.000  H
  H39      1.0000 0.28500  0.30210  0.66730  Biso   1.000  H
  H40      1.0000 0.24050  0.83640  0.53330  Biso   1.000  H
  H41      1.0000 0.11770  0.87540  0.51870  Biso   1.000  H
  H42      1.0000 0.02700  0.81240  0.62040  Biso   1.000  H
  H43      1.0000 0.14990  0.77340  0.63500  Biso   1.000  H
  H44      1.0000 0.97530  0.87550  0.52790  Biso   1.000  H
  H45      1.0000 0.90760  0.89410  0.62770  Biso   1.000  H
  H46      1.0000 0.88830  0.79850  0.53080  Biso   1.000  H
  H47      1.0000 0.50620  0.36620  0.73340  Biso   1.000  H
  H48      1.0000 0.32550  0.26150  0.72720  Biso   1.000  H
  H49      1.0000 0.79010  0.85880  0.65330  Biso   1.000  H
  H50      1.0000 0.77850  0.75890  0.55850  Biso   1.000  H
  H51      1.0000 0.06030  0.02560  0.63190  Biso   1.000  H
  H52      1.0000 0.05820  0.93340  0.61600  Biso   1.000  H
  H53      1.0000 0.92260  0.96350  0.52060  Biso   1.000  H
  H54      1.0000 0.92770  0.05560  0.53470  Biso   1.000  H
  H55      1.0000 0.36860  0.39210  0.35400  Biso   1.000  H
  H56      1.0000 0.37470  0.40330  0.40020  Biso   1.000  H
  H57      1.0000 0.66730  0.14700  0.99390  Biso   1.000  H
  H58      1.0000 0.71230  0.11140  0.05440  Biso   1.000  H
  H59      1.0000 0.52500  0.17900  0.11110  Biso   1.000  H
  H60      1.0000 0.48000  0.21450  0.05060  Biso   1.000  H
  H61      1.0000 0.71710  0.11830  0.12530  Biso   1.000  H
  H62      1.0000 0.73720  0.03190  0.15820  Biso   1.000  H
  H63      1.0000 0.70710  0.93970  0.16290  Biso   1.000  H
  H64      1.0000 0.50510  0.96460  0.10040  Biso   1.000  H
  H65      1.0000 0.53510  0.05680  0.09570  Biso   1.000  H
  H66      1.0000 0.53150  0.09390  0.17710  Biso   1.000  H
  H67      1.0000 0.71500  0.19790  0.16730  Biso   1.000  H
  H68      1.0000 0.75950  0.66360  0.03330  Biso   1.000  H
  H69      1.0000 0.88230  0.62460  0.01870  Biso   1.000  H
  H70      1.0000 0.97300  0.68760  0.12040  Biso   1.000  H
  H71      1.0000 0.85010  0.72660  0.13500  Biso   1.000  H
  H72      1.0000 0.02470  0.62450  0.02790  Biso   1.000  H
  H73      1.0000 0.09240  0.60590  0.12770  Biso   1.000  H
  H74      1.0000 0.11170  0.70150  0.03080  Biso   1.000  H
  H75      1.0000 0.49380  0.13380  0.23340  Biso   1.000  H
  H76      1.0000 0.67450  0.23850  0.22720  Biso   1.000  H
  H77      1.0000 0.20990  0.64120  0.15330  Biso   1.000  H
  H78      1.0000 0.22150  0.74110  0.05850  Biso   1.000  H
  H79      1.0000 0.93970  0.47440  0.13190  Biso   1.000  H
  H80      1.0000 0.94180  0.56660  0.11600  Biso   1.000  H
  H81      1.0000 0.07740  0.53650  0.02060  Biso   1.000  H
  H82      1.0000 0.07230  0.44440  0.03470  Biso   1.000  H
  H83      1.0000 0.63140  0.10790  0.85400  Biso   1.000  H
  H84      1.0000 0.62530  0.09670  0.90020  Biso   1.000  H
  H85      1.0000 0.16730  0.35300  0.50610  Biso   1.000  H
  H86      1.0000 0.21230  0.38860  0.44560  Biso   1.000  H
  H87      1.0000 0.02500  0.32100  0.38890  Biso   1.000  H
  H88      1.0000 0.98000  0.28550  0.44940  Biso   1.000  H
  H89      1.0000 0.21710  0.38170  0.37470  Biso   1.000  H
  H90      1.0000 0.23720  0.46810  0.34180  Biso   1.000  H
  H91      1.0000 0.20710  0.56030  0.33710  Biso   1.000  H
  H92      1.0000 0.00510  0.53540  0.39960  Biso   1.000  H
  H93      1.0000 0.03510  0.44320  0.40430  Biso   1.000  H
  H94      1.0000 0.03150  0.40610  0.32290  Biso   1.000  H
  H95      1.0000 0.21500  0.30210  0.33270  Biso   1.000  H
  H96      1.0000 0.25950  0.83640  0.46670  Biso   1.000  H
  H97      1.0000 0.38230  0.87540  0.48130  Biso   1.000  H
  H98      1.0000 0.47300  0.81240  0.37960  Biso   1.000  H
  H99      1.0000 0.35010  0.77340  0.36500  Biso   1.000  H
  H100     1.0000 0.52470  0.87550  0.47210  Biso   1.000  H
  H101     1.0000 0.59240  0.89410  0.37230  Biso   1.000  H
  H102     1.0000 0.61170  0.79850  0.46920  Biso   1.000  H
  H103     1.0000 0.99380  0.36620  0.26660  Biso   1.000  H
  H104     1.0000 0.17450  0.26150  0.27280  Biso   1.000  H
  H105     1.0000 0.70990  0.85880  0.34670  Biso   1.000  H
  H106     1.0000 0.72150  0.75890  0.44150  Biso   1.000  H
  H107     1.0000 0.43970  0.02560  0.36810  Biso   1.000  H
  H108     1.0000 0.44180  0.93340  0.38400  Biso   1.000  H
  H109     1.0000 0.57740  0.96350  0.47940  Biso   1.000  H
  H110     1.0000 0.57230  0.05560  0.46530  Biso   1.000  H
  H111     1.0000 0.13140  0.39210  0.64600  Biso   1.000  H
  H112     1.0000 0.12530  0.40330  0.59980  Biso   1.000  H
  H113     1.0000 0.16730  0.85300  0.99390  Biso   1.000  H
  H114     1.0000 0.21230  0.88860  0.05440  Biso   1.000  H
  H115     1.0000 0.02500  0.82100  0.11110  Biso   1.000  H
  H116     1.0000 0.98000  0.78550  0.05060  Biso   1.000  H
  H117     1.0000 0.21710  0.88170  0.12530  Biso   1.000  H
  H118     1.0000 0.23720  0.96810  0.15820  Biso   1.000  H
  H119     1.0000 0.20710  0.06030  0.16290  Biso   1.000  H
  H120     1.0000 0.00510  0.03540  0.10040  Biso   1.000  H
  H121     1.0000 0.03510  0.94320  0.09570  Biso   1.000  H
  H122     1.0000 0.03150  0.90610  0.17710  Biso   1.000  H
  H123     1.0000 0.21500  0.80210  0.16730  Biso   1.000  H
  H124     1.0000 0.25950  0.33640  0.03330  Biso   1.000  H
  H125     1.0000 0.38230  0.37540  0.01870  Biso   1.000  H
  H126     1.0000 0.47300  0.31240  0.12040  Biso   1.000  H
  H127     1.0000 0.35010  0.27340  0.13500  Biso   1.000  H
  H128     1.0000 0.52470  0.37550  0.02790  Biso   1.000  H
  H129     1.0000 0.59240  0.39410  0.12770  Biso   1.000  H
  H130     1.0000 0.61170  0.29850  0.03080  Biso   1.000  H
  H131     1.0000 0.99380  0.86620  0.23340  Biso   1.000  H
  H132     1.0000 0.17450  0.76150  0.22720  Biso   1.000  H
  H133     1.0000 0.70990  0.35880  0.15330  Biso   1.000  H
  H134     1.0000 0.72150  0.25890  0.05850  Biso   1.000  H
  H135     1.0000 0.43970  0.52560  0.13190  Biso   1.000  H
  H136     1.0000 0.44180  0.43340  0.11600  Biso   1.000  H
  H137     1.0000 0.57740  0.46350  0.02060  Biso   1.000  H
  H138     1.0000 0.57230  0.55560  0.03470  Biso   1.000  H
  H139     1.0000 0.13140  0.89210  0.85400  Biso   1.000  H
  H140     1.0000 0.12530  0.90330  0.90020  Biso   1.000  H
  H141     1.0000 0.66730  0.64700  0.50610  Biso   1.000  H
  H142     1.0000 0.71230  0.61140  0.44560  Biso   1.000  H
  H143     1.0000 0.52500  0.67900  0.38890  Biso   1.000  H
  H144     1.0000 0.48000  0.71450  0.44940  Biso   1.000  H
  H145     1.0000 0.71710  0.61830  0.37470  Biso   1.000  H
  H146     1.0000 0.73720  0.53190  0.34180  Biso   1.000  H
  H147     1.0000 0.70710  0.43970  0.33710  Biso   1.000  H
  H148     1.0000 0.50510  0.46460  0.39960  Biso   1.000  H
  H149     1.0000 0.53510  0.55680  0.40430  Biso   1.000  H
  H150     1.0000 0.53150  0.59390  0.32290  Biso   1.000  H
  H151     1.0000 0.71500  0.69790  0.33270  Biso   1.000  H
  H152     1.0000 0.75950  0.16360  0.46670  Biso   1.000  H
  H153     1.0000 0.88230  0.12460  0.48130  Biso   1.000  H
  H154     1.0000 0.97300  0.18760  0.37960  Biso   1.000  H
  H155     1.0000 0.85010  0.22660  0.36500  Biso   1.000  H
  H156     1.0000 0.02470  0.12450  0.47210  Biso   1.000  H
  H157     1.0000 0.09240  0.10590  0.37230  Biso   1.000  H
  H158     1.0000 0.11170  0.20150  0.46920  Biso   1.000  H
  H159     1.0000 0.49380  0.63380  0.26660  Biso   1.000  H
  H160     1.0000 0.67450  0.73850  0.27280  Biso   1.000  H
  H161     1.0000 0.20990  0.14120  0.34670  Biso   1.000  H
  H162     1.0000 0.22150  0.24110  0.44150  Biso   1.000  H
  H163     1.0000 0.93970  0.97440  0.36810  Biso   1.000  H
  H164     1.0000 0.94180  0.06660  0.38400  Biso   1.000  H
  H165     1.0000 0.07740  0.03650  0.47940  Biso   1.000  H
  H166     1.0000 0.07230  0.94440  0.46530  Biso   1.000  H
  H167     1.0000 0.63140  0.60790  0.64600  Biso   1.000  H
  H168     1.0000 0.62530  0.59670  0.59980  Biso   1.000  H
  H169     1.0000 0.33270  0.85300  0.00610  Biso   1.000  H
  H170     1.0000 0.28770  0.88860  0.94560  Biso   1.000  H
  H171     1.0000 0.47500  0.82100  0.88890  Biso   1.000  H
  H172     1.0000 0.52000  0.78550  0.94940  Biso   1.000  H
  H173     1.0000 0.28290  0.88170  0.87470  Biso   1.000  H
  H174     1.0000 0.26280  0.96810  0.84180  Biso   1.000  H
  H175     1.0000 0.29290  0.06030  0.83710  Biso   1.000  H
  H176     1.0000 0.49490  0.03540  0.89960  Biso   1.000  H
  H177     1.0000 0.46490  0.94320  0.90430  Biso   1.000  H
  H178     1.0000 0.46850  0.90610  0.82290  Biso   1.000  H
  H179     1.0000 0.28500  0.80210  0.83270  Biso   1.000  H
  H180     1.0000 0.24050  0.33640  0.96670  Biso   1.000  H
  H181     1.0000 0.11770  0.37540  0.98130  Biso   1.000  H
  H182     1.0000 0.02700  0.31240  0.87960  Biso   1.000  H
  H183     1.0000 0.14990  0.27340  0.86500  Biso   1.000  H
  H184     1.0000 0.97530  0.37550  0.97210  Biso   1.000  H
  H185     1.0000 0.90760  0.39410  0.87230  Biso   1.000  H
  H186     1.0000 0.88830  0.29850  0.96920  Biso   1.000  H
  H187     1.0000 0.50620  0.86620  0.76660  Biso   1.000  H
  H188     1.0000 0.32550  0.76150  0.77280  Biso   1.000  H
  H189     1.0000 0.79010  0.35880  0.84670  Biso   1.000  H
  H190     1.0000 0.77850  0.25890  0.94150  Biso   1.000  H
  H191     1.0000 0.06030  0.52560  0.86810  Biso   1.000  H
  H192     1.0000 0.05820  0.43340  0.88400  Biso   1.000  H
  H193     1.0000 0.92260  0.46350  0.97940  Biso   1.000  H
  H194     1.0000 0.92770  0.55560  0.96530  Biso   1.000  H
  H195     1.0000 0.36860  0.89210  0.14600  Biso   1.000  H
  H196     1.0000 0.37470  0.90330  0.09980  Biso   1.000  H
  H197     1.0000 0.83270  0.64700  0.49390  Biso   1.000  H
  H198     1.0000 0.78770  0.61140  0.55440  Biso   1.000  H
  H199     1.0000 0.97500  0.67900  0.61110  Biso   1.000  H
  H200     1.0000 0.02000  0.71450  0.55060  Biso   1.000  H
  H201     1.0000 0.78290  0.61830  0.62530  Biso   1.000  H
  H202     1.0000 0.76280  0.53190  0.65820  Biso   1.000  H
  H203     1.0000 0.79290  0.43970  0.66290  Biso   1.000  H
  H204     1.0000 0.99490  0.46460  0.60040  Biso   1.000  H
  H205     1.0000 0.96490  0.55680  0.59570  Biso   1.000  H
  H206     1.0000 0.96850  0.59390  0.67710  Biso   1.000  H
  H207     1.0000 0.78500  0.69790  0.66730  Biso   1.000  H
  H208     1.0000 0.74050  0.16360  0.53330  Biso   1.000  H
  H209     1.0000 0.61770  0.12460  0.51870  Biso   1.000  H
  H210     1.0000 0.52700  0.18760  0.62040  Biso   1.000  H
  H211     1.0000 0.64990  0.22660  0.63500  Biso   1.000  H
  H212     1.0000 0.47530  0.12450  0.52790  Biso   1.000  H
  H213     1.0000 0.40760  0.10590  0.62770  Biso   1.000  H
  H214     1.0000 0.38830  0.20150  0.53080  Biso   1.000  H
  H215     1.0000 0.00620  0.63380  0.73340  Biso   1.000  H
  H216     1.0000 0.82550  0.73850  0.72720  Biso   1.000  H
  H217     1.0000 0.29010  0.14120  0.65330  Biso   1.000  H
  H218     1.0000 0.27850  0.24110  0.55850  Biso   1.000  H
  H219     1.0000 0.56030  0.97440  0.63190  Biso   1.000  H
  H220     1.0000 0.55820  0.06660  0.61600  Biso   1.000  H
  H221     1.0000 0.42260  0.03650  0.52060  Biso   1.000  H
  H222     1.0000 0.42770  0.94440  0.53470  Biso   1.000  H
  H223     1.0000 0.86860  0.60790  0.35400  Biso   1.000  H
  H224     1.0000 0.87470  0.59670  0.40020  Biso   1.000  H
  C1       1.0000 0.95950  0.20652  0.02234  Biso   1.000  C
  C2       1.0000 0.93081  0.18427  0.98373  Biso   1.000  C
  C3       1.0000 0.86124  0.15339  0.98261  Biso   1.000  C
  C4       1.0000 0.83428  0.13211  0.94637  Biso   1.000  C
  C5       1.0000 0.87689  0.14170  0.91124  Biso   1.000  C
  C6       1.0000 0.94646  0.17258  0.91236  Biso   1.000  C
  C7       1.0000 0.97342  0.19387  0.94860  Biso   1.000  C
  C8       1.0000 0.84110  0.11406  0.87393  Biso   1.000  C
  C9       1.0000 0.86088  0.05344  0.87353  Biso   1.000  C
  C10      1.0000 0.80936  0.01837  0.85341  Biso   1.000  C
  C11      1.0000 0.82737  0.96316  0.85061  Biso   1.000  C
  C12      1.0000 0.89689  0.94302  0.86792  Biso   1.000  C
  C13      1.0000 0.94841  0.97808  0.88804  Biso   1.000  C
  C14      1.0000 0.93040  0.03329  0.89084  Biso   1.000  C
  C15      1.0000 0.87290  0.14157  0.83523  Biso   1.000  C
  C16      1.0000 0.93890  0.12310  0.81320  Biso   1.000  C
  C17      1.0000 0.82970  0.18460  0.81921  Biso   1.000  C
  C18      1.0000 0.78670  0.72197  0.90522  Biso   1.000  C
  C19      1.0000 0.70736  0.69899  0.91441  Biso   1.000  C
  C20      1.0000 0.69772  0.66844  0.94925  Biso   1.000  C
  C21      1.0000 0.62413  0.64506  0.95799  Biso   1.000  C
  C22      1.0000 0.56019  0.65224  0.93191  Biso   1.000  C
  C23      1.0000 0.56982  0.68279  0.89707  Biso   1.000  C
  C24      1.0000 0.64341  0.70617  0.88832  Biso   1.000  C
  C25      1.0000 0.48150  0.62218  0.94287  Biso   1.000  C
  C26      1.0000 0.40900  0.64824  0.92433  Biso   1.000  C
  C27      1.0000 0.37980  0.63200  0.88691  Biso   1.000  C
  C28      1.0000 0.36950  0.68947  0.94442  Biso   1.000  C
  C29      1.0000 0.93700  0.20850  0.72119  Biso   1.000  C
  C30      1.0000 0.91670  0.18767  0.76077  Biso   1.000  C
  C31      1.0000 0.95990  0.14600  0.77915  Biso   1.000  C
  C32      1.0000 0.85310  0.20840  0.78256  Biso   1.000  C
  C33      1.0000 0.19250  0.71720  0.87689  Biso   1.000  C
  C34      1.0000 0.27080  0.69509  0.89187  Biso   1.000  C
  C35      1.0000 0.31020  0.65390  0.87104  Biso   1.000  C
  C36      1.0000 0.30310  0.71250  0.92799  Biso   1.000  C
  C37      1.0000 0.91800  0.88323  0.86599  Biso   1.000  C
  C38      1.0000 0.50070  0.39043  0.90868  Biso   1.000  C
  C39      1.0000 0.49490  0.44958  0.91578  Biso   1.000  C
  C40      1.0000 0.53310  0.48648  0.89080  Biso   1.000  C
  C41      1.0000 0.53040  0.54202  0.90009  Biso   1.000  C
  C42      1.0000 0.48840  0.56108  0.93199  Biso   1.000  C
  C43      1.0000 0.45040  0.52420  0.95696  Biso   1.000  C
  C44      1.0000 0.45380  0.46889  0.94849  Biso   1.000  C
  C45      1.0000 0.45950  0.29348  0.47766  Biso   1.000  C
  C46      1.0000 0.43081  0.31573  0.51627  Biso   1.000  C
  C47      1.0000 0.36124  0.34661  0.51739  Biso   1.000  C
  C48      1.0000 0.33428  0.36789  0.55363  Biso   1.000  C
  C49      1.0000 0.37689  0.35830  0.58876  Biso   1.000  C
  C50      1.0000 0.44646  0.32742  0.58764  Biso   1.000  C
  C51      1.0000 0.47342  0.30613  0.55140  Biso   1.000  C
  C52      1.0000 0.34110  0.38594  0.62607  Biso   1.000  C
  C53      1.0000 0.36088  0.44656  0.62647  Biso   1.000  C
  C54      1.0000 0.30936  0.48163  0.64659  Biso   1.000  C
  C55      1.0000 0.32737  0.53684  0.64939  Biso   1.000  C
  C56      1.0000 0.39689  0.55698  0.63208  Biso   1.000  C
  C57      1.0000 0.44841  0.52192  0.61196  Biso   1.000  C
  C58      1.0000 0.43040  0.46671  0.60916  Biso   1.000  C
  C59      1.0000 0.37290  0.35843  0.66477  Biso   1.000  C
  C60      1.0000 0.43890  0.37690  0.68680  Biso   1.000  C
  C61      1.0000 0.32970  0.31540  0.68079  Biso   1.000  C
  C62      1.0000 0.28670  0.77803  0.59478  Biso   1.000  C
  C63      1.0000 0.20736  0.80101  0.58559  Biso   1.000  C
  C64      1.0000 0.19772  0.83156  0.55075  Biso   1.000  C
  C65      1.0000 0.12413  0.85494  0.54201  Biso   1.000  C
  C66      1.0000 0.06019  0.84776  0.56809  Biso   1.000  C
  C67      1.0000 0.06982  0.81721  0.60293  Biso   1.000  C
  C68      1.0000 0.14341  0.79383  0.61168  Biso   1.000  C
  C69      1.0000 0.98150  0.87782  0.55713  Biso   1.000  C
  C70      1.0000 0.90900  0.85176  0.57567  Biso   1.000  C
  C71      1.0000 0.87980  0.86800  0.61309  Biso   1.000  C
  C72      1.0000 0.86950  0.81053  0.55558  Biso   1.000  C
  C73      1.0000 0.43700  0.29150  0.77881  Biso   1.000  C
  C74      1.0000 0.41670  0.31233  0.73923  Biso   1.000  C
  C75      1.0000 0.45990  0.35400  0.72085  Biso   1.000  C
  C76      1.0000 0.35310  0.29160  0.71744  Biso   1.000  C
  C77      1.0000 0.69250  0.78280  0.62311  Biso   1.000  C
  C78      1.0000 0.77080  0.80491  0.60813  Biso   1.000  C
  C79      1.0000 0.81020  0.84610  0.62896  Biso   1.000  C
  C80      1.0000 0.80310  0.78750  0.57201  Biso   1.000  C
  C81      1.0000 0.41800  0.61677  0.63401  Biso   1.000  C
  C82      1.0000 0.00070  0.10957  0.59132  Biso   1.000  C
  C83      1.0000 0.99490  0.05042  0.58422  Biso   1.000  C
  C84      1.0000 0.03310  0.01352  0.60920  Biso   1.000  C
  C85      1.0000 0.03040  0.95798  0.59991  Biso   1.000  C
  C86      1.0000 0.98840  0.93892  0.56801  Biso   1.000  C
  C87      1.0000 0.95040  0.97580  0.54304  Biso   1.000  C
  C88      1.0000 0.95380  0.03111  0.55151  Biso   1.000  C
  C89      1.0000 0.54050  0.20652  0.97766  Biso   1.000  C
  C90      1.0000 0.56919  0.18427  0.01627  Biso   1.000  C
  C91      1.0000 0.63876  0.15339  0.01739  Biso   1.000  C
  C92      1.0000 0.66572  0.13211  0.05363  Biso   1.000  C
  C93      1.0000 0.62311  0.14170  0.08876  Biso   1.000  C
  C94      1.0000 0.55354  0.17258  0.08764  Biso   1.000  C
  C95      1.0000 0.52658  0.19387  0.05140  Biso   1.000  C
  C96      1.0000 0.65890  0.11406  0.12607  Biso   1.000  C
  C97      1.0000 0.63912  0.05344  0.12647  Biso   1.000  C
  C98      1.0000 0.69064  0.01837  0.14659  Biso   1.000  C
  C99      1.0000 0.67263  0.96316  0.14939  Biso   1.000  C
  C100     1.0000 0.60311  0.94302  0.13208  Biso   1.000  C
  C101     1.0000 0.55159  0.97808  0.11196  Biso   1.000  C
  C102     1.0000 0.56960  0.03329  0.10916  Biso   1.000  C
  C103     1.0000 0.62710  0.14157  0.16477  Biso   1.000  C
  C104     1.0000 0.56110  0.12310  0.18680  Biso   1.000  C
  C105     1.0000 0.67030  0.18460  0.18079  Biso   1.000  C
  C106     1.0000 0.71330  0.72197  0.09478  Biso   1.000  C
  C107     1.0000 0.79264  0.69899  0.08559  Biso   1.000  C
  C108     1.0000 0.80228  0.66844  0.05075  Biso   1.000  C
  C109     1.0000 0.87587  0.64506  0.04201  Biso   1.000  C
  C110     1.0000 0.93981  0.65224  0.06809  Biso   1.000  C
  C111     1.0000 0.93018  0.68279  0.10293  Biso   1.000  C
  C112     1.0000 0.85659  0.70617  0.11168  Biso   1.000  C
  C113     1.0000 0.01850  0.62218  0.05713  Biso   1.000  C
  C114     1.0000 0.09100  0.64824  0.07567  Biso   1.000  C
  C115     1.0000 0.12020  0.63200  0.11309  Biso   1.000  C
  C116     1.0000 0.13050  0.68947  0.05558  Biso   1.000  C
  C117     1.0000 0.56300  0.20850  0.27881  Biso   1.000  C
  C118     1.0000 0.58330  0.18767  0.23923  Biso   1.000  C
  C119     1.0000 0.54010  0.14600  0.22085  Biso   1.000  C
  C120     1.0000 0.64690  0.20840  0.21744  Biso   1.000  C
  C121     1.0000 0.30750  0.71720  0.12311  Biso   1.000  C
  C122     1.0000 0.22920  0.69509  0.10813  Biso   1.000  C
  C123     1.0000 0.18980  0.65390  0.12896  Biso   1.000  C
  C124     1.0000 0.19690  0.71250  0.07201  Biso   1.000  C
  C125     1.0000 0.58200  0.88323  0.13401  Biso   1.000  C
  C126     1.0000 0.99930  0.39043  0.09132  Biso   1.000  C
  C127     1.0000 0.00510  0.44958  0.08422  Biso   1.000  C
  C128     1.0000 0.96690  0.48648  0.10920  Biso   1.000  C
  C129     1.0000 0.96960  0.54202  0.09991  Biso   1.000  C
  C130     1.0000 0.01160  0.56108  0.06801  Biso   1.000  C
  C131     1.0000 0.04960  0.52420  0.04304  Biso   1.000  C
  C132     1.0000 0.04620  0.46889  0.05151  Biso   1.000  C
  C133     1.0000 0.04050  0.29348  0.52234  Biso   1.000  C
  C134     1.0000 0.06919  0.31573  0.48373  Biso   1.000  C
  C135     1.0000 0.13876  0.34661  0.48261  Biso   1.000  C
  C136     1.0000 0.16572  0.36789  0.44637  Biso   1.000  C
  C137     1.0000 0.12311  0.35830  0.41124  Biso   1.000  C
  C138     1.0000 0.05354  0.32742  0.41236  Biso   1.000  C
  C139     1.0000 0.02658  0.30613  0.44860  Biso   1.000  C
  C140     1.0000 0.15890  0.38594  0.37393  Biso   1.000  C
  C141     1.0000 0.13912  0.44656  0.37353  Biso   1.000  C
  C142     1.0000 0.19064  0.48163  0.35341  Biso   1.000  C
  C143     1.0000 0.17263  0.53684  0.35061  Biso   1.000  C
  C144     1.0000 0.10311  0.55698  0.36792  Biso   1.000  C
  C145     1.0000 0.05159  0.52192  0.38804  Biso   1.000  C
  C146     1.0000 0.06960  0.46671  0.39084  Biso   1.000  C
  C147     1.0000 0.12710  0.35843  0.33523  Biso   1.000  C
  C148     1.0000 0.06110  0.37690  0.31320  Biso   1.000  C
  C149     1.0000 0.17030  0.31540  0.31921  Biso   1.000  C
  C150     1.0000 0.21330  0.77803  0.40522  Biso   1.000  C
  C151     1.0000 0.29264  0.80101  0.41441  Biso   1.000  C
  C152     1.0000 0.30228  0.83156  0.44925  Biso   1.000  C
  C153     1.0000 0.37587  0.85494  0.45799  Biso   1.000  C
  C154     1.0000 0.43981  0.84776  0.43191  Biso   1.000  C
  C155     1.0000 0.43018  0.81721  0.39707  Biso   1.000  C
  C156     1.0000 0.35659  0.79383  0.38832  Biso   1.000  C
  C157     1.0000 0.51850  0.87782  0.44287  Biso   1.000  C
  C158     1.0000 0.59100  0.85176  0.42433  Biso   1.000  C
  C159     1.0000 0.62020  0.86800  0.38691  Biso   1.000  C
  C160     1.0000 0.63050  0.81053  0.44442  Biso   1.000  C
  C161     1.0000 0.06300  0.29150  0.22119  Biso   1.000  C
  C162     1.0000 0.08330  0.31233  0.26077  Biso   1.000  C
  C163     1.0000 0.04010  0.35400  0.27915  Biso   1.000  C
  C164     1.0000 0.14690  0.29160  0.28256  Biso   1.000  C
  C165     1.0000 0.80750  0.78280  0.37689  Biso   1.000  C
  C166     1.0000 0.72920  0.80491  0.39187  Biso   1.000  C
  C167     1.0000 0.68980  0.84610  0.37104  Biso   1.000  C
  C168     1.0000 0.69690  0.78750  0.42799  Biso   1.000  C
  C169     1.0000 0.08200  0.61677  0.36599  Biso   1.000  C
  C170     1.0000 0.49930  0.10957  0.40868  Biso   1.000  C
  C171     1.0000 0.50510  0.05042  0.41578  Biso   1.000  C
  C172     1.0000 0.46690  0.01352  0.39080  Biso   1.000  C
  C173     1.0000 0.46960  0.95798  0.40009  Biso   1.000  C
  C174     1.0000 0.51160  0.93892  0.43199  Biso   1.000  C
  C175     1.0000 0.54960  0.97580  0.45696  Biso   1.000  C
  C176     1.0000 0.54620  0.03111  0.44849  Biso   1.000  C
  C177     1.0000 0.04050  0.79348  0.97766  Biso   1.000  C
  C178     1.0000 0.06919  0.81573  0.01627  Biso   1.000  C
  C179     1.0000 0.13876  0.84661  0.01739  Biso   1.000  C
  C180     1.0000 0.16572  0.86789  0.05363  Biso   1.000  C
  C181     1.0000 0.12311  0.85830  0.08876  Biso   1.000  C
  C182     1.0000 0.05354  0.82742  0.08764  Biso   1.000  C
  C183     1.0000 0.02658  0.80613  0.05140  Biso   1.000  C
  C184     1.0000 0.15890  0.88594  0.12607  Biso   1.000  C
  C185     1.0000 0.13912  0.94656  0.12647  Biso   1.000  C
  C186     1.0000 0.19064  0.98163  0.14659  Biso   1.000  C
  C187     1.0000 0.17263  0.03684  0.14939  Biso   1.000  C
  C188     1.0000 0.10311  0.05698  0.13208  Biso   1.000  C
  C189     1.0000 0.05159  0.02192  0.11196  Biso   1.000  C
  C190     1.0000 0.06960  0.96671  0.10916  Biso   1.000  C
  C191     1.0000 0.12710  0.85843  0.16477  Biso   1.000  C
  C192     1.0000 0.06110  0.87690  0.18680  Biso   1.000  C
  C193     1.0000 0.17030  0.81540  0.18079  Biso   1.000  C
  C194     1.0000 0.21330  0.27803  0.09478  Biso   1.000  C
  C195     1.0000 0.29264  0.30101  0.08559  Biso   1.000  C
  C196     1.0000 0.30228  0.33156  0.05075  Biso   1.000  C
  C197     1.0000 0.37587  0.35494  0.04201  Biso   1.000  C
  C198     1.0000 0.43981  0.34776  0.06809  Biso   1.000  C
  C199     1.0000 0.43018  0.31721  0.10293  Biso   1.000  C
  C200     1.0000 0.35659  0.29383  0.11168  Biso   1.000  C
  C201     1.0000 0.51850  0.37782  0.05713  Biso   1.000  C
  C202     1.0000 0.59100  0.35176  0.07567  Biso   1.000  C
  C203     1.0000 0.62020  0.36800  0.11309  Biso   1.000  C
  C204     1.0000 0.63050  0.31053  0.05558  Biso   1.000  C
  C205     1.0000 0.06300  0.79150  0.27881  Biso   1.000  C
  C206     1.0000 0.08330  0.81233  0.23923  Biso   1.000  C
  C207     1.0000 0.04010  0.85400  0.22085  Biso   1.000  C
  C208     1.0000 0.14690  0.79160  0.21744  Biso   1.000  C
  C209     1.0000 0.80750  0.28280  0.12311  Biso   1.000  C
  C210     1.0000 0.72920  0.30491  0.10813  Biso   1.000  C
  C211     1.0000 0.68980  0.34610  0.12896  Biso   1.000  C
  C212     1.0000 0.69690  0.28750  0.07201  Biso   1.000  C
  C213     1.0000 0.08200  0.11677  0.13401  Biso   1.000  C
  C214     1.0000 0.49930  0.60957  0.09132  Biso   1.000  C
  C215     1.0000 0.50510  0.55042  0.08422  Biso   1.000  C
  C216     1.0000 0.46690  0.51352  0.10920  Biso   1.000  C
  C217     1.0000 0.46960  0.45798  0.09991  Biso   1.000  C
  C218     1.0000 0.51160  0.43892  0.06801  Biso   1.000  C
  C219     1.0000 0.54960  0.47580  0.04304  Biso   1.000  C
  C220     1.0000 0.54620  0.53111  0.05151  Biso   1.000  C
  C221     1.0000 0.54050  0.70652  0.52234  Biso   1.000  C
  C222     1.0000 0.56919  0.68427  0.48373  Biso   1.000  C
  C223     1.0000 0.63876  0.65339  0.48261  Biso   1.000  C
  C224     1.0000 0.66572  0.63211  0.44637  Biso   1.000  C
  C225     1.0000 0.62311  0.64170  0.41124  Biso   1.000  C
  C226     1.0000 0.55354  0.67258  0.41236  Biso   1.000  C
  C227     1.0000 0.52658  0.69387  0.44860  Biso   1.000  C
  C228     1.0000 0.65890  0.61406  0.37393  Biso   1.000  C
  C229     1.0000 0.63912  0.55344  0.37353  Biso   1.000  C
  C230     1.0000 0.69064  0.51837  0.35341  Biso   1.000  C
  C231     1.0000 0.67263  0.46316  0.35061  Biso   1.000  C
  C232     1.0000 0.60311  0.44302  0.36792  Biso   1.000  C
  C233     1.0000 0.55159  0.47808  0.38804  Biso   1.000  C
  C234     1.0000 0.56960  0.53329  0.39084  Biso   1.000  C
  C235     1.0000 0.62710  0.64157  0.33523  Biso   1.000  C
  C236     1.0000 0.56110  0.62310  0.31320  Biso   1.000  C
  C237     1.0000 0.67030  0.68460  0.31921  Biso   1.000  C
  C238     1.0000 0.71330  0.22197  0.40522  Biso   1.000  C
  C239     1.0000 0.79264  0.19899  0.41441  Biso   1.000  C
  C240     1.0000 0.80228  0.16844  0.44925  Biso   1.000  C
  C241     1.0000 0.87587  0.14506  0.45799  Biso   1.000  C
  C242     1.0000 0.93981  0.15224  0.43191  Biso   1.000  C
  C243     1.0000 0.93018  0.18279  0.39707  Biso   1.000  C
  C244     1.0000 0.85659  0.20617  0.38832  Biso   1.000  C
  C245     1.0000 0.01850  0.12218  0.44287  Biso   1.000  C
  C246     1.0000 0.09100  0.14824  0.42433  Biso   1.000  C
  C247     1.0000 0.12020  0.13200  0.38691  Biso   1.000  C
  C248     1.0000 0.13050  0.18947  0.44442  Biso   1.000  C
  C249     1.0000 0.56300  0.70850  0.22119  Biso   1.000  C
  C250     1.0000 0.58330  0.68767  0.26077  Biso   1.000  C
  C251     1.0000 0.54010  0.64600  0.27915  Biso   1.000  C
  C252     1.0000 0.64690  0.70840  0.28256  Biso   1.000  C
  C253     1.0000 0.30750  0.21720  0.37689  Biso   1.000  C
  C254     1.0000 0.22920  0.19509  0.39187  Biso   1.000  C
  C255     1.0000 0.18980  0.15390  0.37104  Biso   1.000  C
  C256     1.0000 0.19690  0.21250  0.42799  Biso   1.000  C
  C257     1.0000 0.58200  0.38323  0.36599  Biso   1.000  C
  C258     1.0000 0.99930  0.89043  0.40868  Biso   1.000  C
  C259     1.0000 0.00510  0.94958  0.41578  Biso   1.000  C
  C260     1.0000 0.96690  0.98648  0.39080  Biso   1.000  C
  C261     1.0000 0.96960  0.04202  0.40009  Biso   1.000  C
  C262     1.0000 0.01160  0.06108  0.43199  Biso   1.000  C
  C263     1.0000 0.04960  0.02420  0.45696  Biso   1.000  C
  C264     1.0000 0.04620  0.96889  0.44849  Biso   1.000  C
  C265     1.0000 0.45950  0.79348  0.02234  Biso   1.000  C
  C266     1.0000 0.43081  0.81573  0.98373  Biso   1.000  C
  C267     1.0000 0.36124  0.84661  0.98261  Biso   1.000  C
  C268     1.0000 0.33428  0.86789  0.94637  Biso   1.000  C
  C269     1.0000 0.37689  0.85830  0.91124  Biso   1.000  C
  C270     1.0000 0.44646  0.82742  0.91236  Biso   1.000  C
  C271     1.0000 0.47342  0.80613  0.94860  Biso   1.000  C
  C272     1.0000 0.34110  0.88594  0.87393  Biso   1.000  C
  C273     1.0000 0.36088  0.94656  0.87353  Biso   1.000  C
  C274     1.0000 0.30936  0.98163  0.85341  Biso   1.000  C
  C275     1.0000 0.32737  0.03684  0.85061  Biso   1.000  C
  C276     1.0000 0.39689  0.05698  0.86792  Biso   1.000  C
  C277     1.0000 0.44841  0.02192  0.88804  Biso   1.000  C
  C278     1.0000 0.43040  0.96671  0.89084  Biso   1.000  C
  C279     1.0000 0.37290  0.85843  0.83523  Biso   1.000  C
  C280     1.0000 0.43890  0.87690  0.81320  Biso   1.000  C
  C281     1.0000 0.32970  0.81540  0.81921  Biso   1.000  C
  C282     1.0000 0.28670  0.27803  0.90522  Biso   1.000  C
  C283     1.0000 0.20736  0.30101  0.91441  Biso   1.000  C
  C284     1.0000 0.19772  0.33156  0.94925  Biso   1.000  C
  C285     1.0000 0.12413  0.35494  0.95799  Biso   1.000  C
  C286     1.0000 0.06019  0.34776  0.93191  Biso   1.000  C
  C287     1.0000 0.06982  0.31721  0.89707  Biso   1.000  C
  C288     1.0000 0.14341  0.29383  0.88832  Biso   1.000  C
  C289     1.0000 0.98150  0.37782  0.94287  Biso   1.000  C
  C290     1.0000 0.90900  0.35176  0.92433  Biso   1.000  C
  C291     1.0000 0.87980  0.36800  0.88691  Biso   1.000  C
  C292     1.0000 0.86950  0.31053  0.94442  Biso   1.000  C
  C293     1.0000 0.43700  0.79150  0.72119  Biso   1.000  C
  C294     1.0000 0.41670  0.81233  0.76077  Biso   1.000  C
  C295     1.0000 0.45990  0.85400  0.77915  Biso   1.000  C
  C296     1.0000 0.35310  0.79160  0.78256  Biso   1.000  C
  C297     1.0000 0.69250  0.28280  0.87689  Biso   1.000  C
  C298     1.0000 0.77080  0.30491  0.89187  Biso   1.000  C
  C299     1.0000 0.81020  0.34610  0.87104  Biso   1.000  C
  C300     1.0000 0.80310  0.28750  0.92799  Biso   1.000  C
  C301     1.0000 0.41800  0.11677  0.86599  Biso   1.000  C
  C302     1.0000 0.00070  0.60957  0.90868  Biso   1.000  C
  C303     1.0000 0.99490  0.55042  0.91578  Biso   1.000  C
  C304     1.0000 0.03310  0.51352  0.89080  Biso   1.000  C
  C305     1.0000 0.03040  0.45798  0.90009  Biso   1.000  C
  C306     1.0000 0.98840  0.43892  0.93199  Biso   1.000  C
  C307     1.0000 0.95040  0.47580  0.95696  Biso   1.000  C
  C308     1.0000 0.95380  0.53111  0.94849  Biso   1.000  C
  C309     1.0000 0.95950  0.70652  0.47766  Biso   1.000  C
  C310     1.0000 0.93081  0.68427  0.51627  Biso   1.000  C
  C311     1.0000 0.86124  0.65339  0.51739  Biso   1.000  C
  C312     1.0000 0.83428  0.63211  0.55363  Biso   1.000  C
  C313     1.0000 0.87689  0.64170  0.58876  Biso   1.000  C
  C314     1.0000 0.94646  0.67258  0.58764  Biso   1.000  C
  C315     1.0000 0.97342  0.69387  0.55140  Biso   1.000  C
  C316     1.0000 0.84110  0.61406  0.62607  Biso   1.000  C
  C317     1.0000 0.86088  0.55344  0.62647  Biso   1.000  C
  C318     1.0000 0.80936  0.51837  0.64659  Biso   1.000  C
  C319     1.0000 0.82737  0.46316  0.64939  Biso   1.000  C
  C320     1.0000 0.89689  0.44302  0.63208  Biso   1.000  C
  C321     1.0000 0.94841  0.47808  0.61196  Biso   1.000  C
  C322     1.0000 0.93040  0.53329  0.60916  Biso   1.000  C
  C323     1.0000 0.87290  0.64157  0.66477  Biso   1.000  C
  C324     1.0000 0.93890  0.62310  0.68680  Biso   1.000  C
  C325     1.0000 0.82970  0.68460  0.68079  Biso   1.000  C
  C326     1.0000 0.78670  0.22197  0.59478  Biso   1.000  C
  C327     1.0000 0.70736  0.19899  0.58559  Biso   1.000  C
  C328     1.0000 0.69772  0.16844  0.55075  Biso   1.000  C
  C329     1.0000 0.62413  0.14506  0.54201  Biso   1.000  C
  C330     1.0000 0.56019  0.15224  0.56809  Biso   1.000  C
  C331     1.0000 0.56982  0.18279  0.60293  Biso   1.000  C
  C332     1.0000 0.64341  0.20617  0.61168  Biso   1.000  C
  C333     1.0000 0.48150  0.12218  0.55713  Biso   1.000  C
  C334     1.0000 0.40900  0.14824  0.57567  Biso   1.000  C
  C335     1.0000 0.37980  0.13200  0.61309  Biso   1.000  C
  C336     1.0000 0.36950  0.18947  0.55558  Biso   1.000  C
  C337     1.0000 0.93700  0.70850  0.77881  Biso   1.000  C
  C338     1.0000 0.91670  0.68767  0.73923  Biso   1.000  C
  C339     1.0000 0.95990  0.64600  0.72085  Biso   1.000  C
  C340     1.0000 0.85310  0.70840  0.71744  Biso   1.000  C
  C341     1.0000 0.19250  0.21720  0.62311  Biso   1.000  C
  C342     1.0000 0.27080  0.19509  0.60813  Biso   1.000  C
  C343     1.0000 0.31020  0.15390  0.62896  Biso   1.000  C
  C344     1.0000 0.30310  0.21250  0.57201  Biso   1.000  C
  C345     1.0000 0.91800  0.38323  0.63401  Biso   1.000  C
  C346     1.0000 0.50070  0.89043  0.59132  Biso   1.000  C
  C347     1.0000 0.49490  0.94958  0.58422  Biso   1.000  C
  C348     1.0000 0.53310  0.98648  0.60920  Biso   1.000  C
  C349     1.0000 0.53040  0.04202  0.59991  Biso   1.000  C
  C350     1.0000 0.48840  0.06108  0.56801  Biso   1.000  C
  C351     1.0000 0.45040  0.02420  0.54304  Biso   1.000  C
  C352     1.0000 0.45380  0.96889  0.55151  Biso   1.000  C
  O1       1.0000 0.87260  0.85232  0.84631  Biso   1.000  O
  O2       1.0000 0.93130  0.18359  0.05335  Biso   1.000  O
  O3       1.0000 0.00690  0.24519  0.02207  Biso   1.000  O
  O4       1.0000 0.51880  0.37756  0.87241  Biso   1.000  O
  O5       1.0000 0.48100  0.35863  0.93567  Biso   1.000  O
  O6       1.0000 0.84018  0.71781  0.93136  Biso   1.000  O
  O7       1.0000 0.79811  0.74388  0.87161  Biso   1.000  O
  O8       1.0000 0.89560  0.24561  0.70568  Biso   1.000  O
  O9       1.0000 0.99710  0.18721  0.70523  Biso   1.000  O
  O10      1.0000 0.16890  0.76070  0.89294  Biso   1.000  O
  O11      1.0000 0.15820  0.69169  0.84971  Biso   1.000  O
  O12      1.0000 0.98841  0.74959  0.87921  Biso   1.000  O
  O13      1.0000 0.97380  0.86739  0.88531  Biso   1.000  O
  O14      1.0000 0.86050  0.12316  0.11978  Biso   1.000  O
  O15      1.0000 0.37260  0.64768  0.65369  Biso   1.000  O
  O16      1.0000 0.43130  0.31641  0.44665  Biso   1.000  O
  O17      1.0000 0.50690  0.25481  0.47793  Biso   1.000  O
  O18      1.0000 0.01880  0.12244  0.62759  Biso   1.000  O
  O19      1.0000 0.98100  0.14137  0.56433  Biso   1.000  O
  O20      1.0000 0.34018  0.78219  0.56864  Biso   1.000  O
  O21      1.0000 0.29811  0.75612  0.62839  Biso   1.000  O
  O22      1.0000 0.39560  0.25439  0.79432  Biso   1.000  O
  O23      1.0000 0.49710  0.31279  0.79477  Biso   1.000  O
  O24      1.0000 0.66890  0.73930  0.60706  Biso   1.000  O
  O25      1.0000 0.65820  0.80831  0.65029  Biso   1.000  O
  O26      1.0000 0.48841  0.75041  0.62079  Biso   1.000  O
  O27      1.0000 0.47380  0.63261  0.61469  Biso   1.000  O
  O28      1.0000 0.36050  0.37684  0.38022  Biso   1.000  O
  O29      1.0000 0.62740  0.85232  0.15369  Biso   1.000  O
  O30      1.0000 0.56870  0.18359  0.94665  Biso   1.000  O
  O31      1.0000 0.49310  0.24519  0.97793  Biso   1.000  O
  O32      1.0000 0.98120  0.37756  0.12759  Biso   1.000  O
  O33      1.0000 0.01900  0.35863  0.06433  Biso   1.000  O
  O34      1.0000 0.65982  0.71781  0.06864  Biso   1.000  O
  O35      1.0000 0.70189  0.74388  0.12839  Biso   1.000  O
  O36      1.0000 0.60440  0.24561  0.29432  Biso   1.000  O
  O37      1.0000 0.50290  0.18721  0.29477  Biso   1.000  O
  O38      1.0000 0.33110  0.76070  0.10706  Biso   1.000  O
  O39      1.0000 0.34180  0.69169  0.15029  Biso   1.000  O
  O40      1.0000 0.51159  0.74959  0.12079  Biso   1.000  O
  O41      1.0000 0.52620  0.86739  0.11469  Biso   1.000  O
  O42      1.0000 0.63950  0.12316  0.88022  Biso   1.000  O
  O43      1.0000 0.12740  0.64768  0.34631  Biso   1.000  O
  O44      1.0000 0.06870  0.31641  0.55335  Biso   1.000  O
  O45      1.0000 0.99310  0.25481  0.52207  Biso   1.000  O
  O46      1.0000 0.48120  0.12244  0.37241  Biso   1.000  O
  O47      1.0000 0.51900  0.14137  0.43567  Biso   1.000  O
  O48      1.0000 0.15982  0.78219  0.43136  Biso   1.000  O
  O49      1.0000 0.20189  0.75612  0.37161  Biso   1.000  O
  O50      1.0000 0.10440  0.25439  0.20568  Biso   1.000  O
  O51      1.0000 0.00290  0.31279  0.20523  Biso   1.000  O
  O52      1.0000 0.83110  0.73930  0.39294  Biso   1.000  O
  O53      1.0000 0.84180  0.80831  0.34971  Biso   1.000  O
  O54      1.0000 0.01159  0.75041  0.37921  Biso   1.000  O
  O55      1.0000 0.02620  0.63261  0.38531  Biso   1.000  O
  O56      1.0000 0.13950  0.37684  0.61978  Biso   1.000  O
  O57      1.0000 0.12740  0.14768  0.15369  Biso   1.000  O
  O58      1.0000 0.06870  0.81641  0.94665  Biso   1.000  O
  O59      1.0000 0.99310  0.75481  0.97793  Biso   1.000  O
  O60      1.0000 0.48120  0.62244  0.12759  Biso   1.000  O
  O61      1.0000 0.51900  0.64137  0.06433  Biso   1.000  O
  O62      1.0000 0.15982  0.28219  0.06864  Biso   1.000  O
  O63      1.0000 0.20189  0.25612  0.12839  Biso   1.000  O
  O64      1.0000 0.10440  0.75439  0.29432  Biso   1.000  O
  O65      1.0000 0.00290  0.81279  0.29477  Biso   1.000  O
  O66      1.0000 0.83110  0.23930  0.10706  Biso   1.000  O
  O67      1.0000 0.84180  0.30831  0.15029  Biso   1.000  O
  O68      1.0000 0.01159  0.25041  0.12079  Biso   1.000  O
  O69      1.0000 0.02620  0.13261  0.11469  Biso   1.000  O
  O70      1.0000 0.13950  0.87684  0.88022  Biso   1.000  O
  O71      1.0000 0.62740  0.35232  0.34631  Biso   1.000  O
  O72      1.0000 0.56870  0.68359  0.55335  Biso   1.000  O
  O73      1.0000 0.49310  0.74519  0.52207  Biso   1.000  O
  O74      1.0000 0.98120  0.87756  0.37241  Biso   1.000  O
  O75      1.0000 0.01900  0.85863  0.43567  Biso   1.000  O
  O76      1.0000 0.65982  0.21781  0.43136  Biso   1.000  O
  O77      1.0000 0.70189  0.24388  0.37161  Biso   1.000  O
  O78      1.0000 0.60440  0.74561  0.20568  Biso   1.000  O
  O79      1.0000 0.50290  0.68721  0.20523  Biso   1.000  O
  O80      1.0000 0.33110  0.26070  0.39294  Biso   1.000  O
  O81      1.0000 0.34180  0.19169  0.34971  Biso   1.000  O
  O82      1.0000 0.51159  0.24959  0.37921  Biso   1.000  O
  O83      1.0000 0.52620  0.36739  0.38531  Biso   1.000  O
  O84      1.0000 0.63950  0.62316  0.61978  Biso   1.000  O
  O85      1.0000 0.37260  0.14768  0.84631  Biso   1.000  O
  O86      1.0000 0.43130  0.81641  0.05335  Biso   1.000  O
  O87      1.0000 0.50690  0.75481  0.02207  Biso   1.000  O
  O88      1.0000 0.01880  0.62244  0.87241  Biso   1.000  O
  O89      1.0000 0.98100  0.64137  0.93567  Biso   1.000  O
  O90      1.0000 0.34018  0.28219  0.93136  Biso   1.000  O
  O91      1.0000 0.29811  0.25612  0.87161  Biso   1.000  O
  O92      1.0000 0.39560  0.75439  0.70568  Biso   1.000  O
  O93      1.0000 0.49710  0.81279  0.70523  Biso   1.000  O
  O94      1.0000 0.66890  0.23930  0.89294  Biso   1.000  O
  O95      1.0000 0.65820  0.30831  0.84971  Biso   1.000  O
  O96      1.0000 0.48841  0.25041  0.87921  Biso   1.000  O
  O97      1.0000 0.47380  0.13261  0.88531  Biso   1.000  O
  O98      1.0000 0.36050  0.87684  0.11978  Biso   1.000  O
  O99      1.0000 0.87260  0.35232  0.65369  Biso   1.000  O
  O100     1.0000 0.93130  0.68359  0.44665  Biso   1.000  O
  O101     1.0000 0.00690  0.74519  0.47793  Biso   1.000  O
  O102     1.0000 0.51880  0.87756  0.62759  Biso   1.000  O
  O103     1.0000 0.48100  0.85863  0.56433  Biso   1.000  O
  O104     1.0000 0.84018  0.21781  0.56864  Biso   1.000  O
  O105     1.0000 0.79811  0.24388  0.62839  Biso   1.000  O
  O106     1.0000 0.89560  0.74561  0.79432  Biso   1.000  O
  O107     1.0000 0.99710  0.68721  0.79477  Biso   1.000  O
  O108     1.0000 0.16890  0.26070  0.60706  Biso   1.000  O
  O109     1.0000 0.15820  0.19169  0.65029  Biso   1.000  O
  O110     1.0000 0.98841  0.24959  0.62079  Biso   1.000  O
  O111     1.0000 0.97380  0.36739  0.61469  Biso   1.000  O
  O112     1.0000 0.86050  0.62316  0.38022  Biso   1.000  O
