data_Cell_Modified_EBAVAH
_audit_creation_date              2019-03-13
_audit_creation_method            'Materials Studio'
_symmetry_space_group_name_H-M    'P1'
_symmetry_Int_Tables_number       1
_symmetry_cell_setting            triclinic
loop_
_symmetry_equiv_pos_as_xyz
  x,y,z
_cell_length_a                    18.8276
_cell_length_b                    18.8276
_cell_length_c                    54.1490
_cell_angle_alpha                 90.0000
_cell_angle_beta                  90.0000
_cell_angle_gamma                 120.0000
loop_
_atom_site_label
_atom_site_type_symbol
_atom_site_fract_x
_atom_site_fract_y
_atom_site_fract_z
_atom_site_U_iso_or_equiv
_atom_site_adp_type
_atom_site_occupancy
C1     C     0.22642   0.08770   0.22827   0.00000  Uiso   1.00
C2     C     0.21402   0.01711   0.24069   0.00000  Uiso   1.00
C3     C     0.18790   0.00260   0.26553   0.00000  Uiso   1.00
C4     C     0.17519   0.06200   0.27785   0.00000  Uiso   1.00
C5     C     0.18796   0.13418   0.26556   0.00000  Uiso   1.00
C6     C     0.21409   0.14588   0.24073   0.00000  Uiso   1.00
H7     H     0.22253  -0.02784   0.23063   0.00000  Uiso   1.00
H8     H     0.15318   0.05096   0.29672   0.00000  Uiso   1.00
H9     H     0.22265   0.19940   0.23068   0.00000  Uiso   1.00
C10    C     0.89121   0.42065   0.56025   0.00000  Uiso   1.00
C11    C     0.87957   0.47918   0.57277   0.00000  Uiso   1.00
C12    C     0.85499   0.46814   0.59775   0.00000  Uiso   1.00
C13    C     0.84308   0.39649   0.61010   0.00000  Uiso   1.00
C14    C     0.85505   0.33682   0.59773   0.00000  Uiso   1.00
C15    C     0.87961   0.35044   0.57275   0.00000  Uiso   1.00
H16    H     0.88748   0.53241   0.56270   0.00000  Uiso   1.00
H17    H     0.82229   0.38607   0.62909   0.00000  Uiso   1.00
H18    H     0.88753   0.30516   0.56266   0.00000  Uiso   1.00
C19    C     0.55681   0.75264   0.89405   0.00000  Uiso   1.00
C20    C     0.54506   0.68231   0.90651   0.00000  Uiso   1.00
C21    C     0.52028   0.66851   0.93146   0.00000  Uiso   1.00
C22    C     0.50827   0.72814   0.94386   0.00000  Uiso   1.00
C23    C     0.52034   0.79990   0.93154   0.00000  Uiso   1.00
C24    C     0.54514   0.81111   0.90659   0.00000  Uiso   1.00
H25    H     0.55302   0.63708   0.89640   0.00000  Uiso   1.00
H26    H     0.48732   0.71759   0.96283   0.00000  Uiso   1.00
H27    H     0.55317   0.86442   0.89654   0.00000  Uiso   1.00
C28    C     0.82498   0.08961   0.22836   0.00000  Uiso   1.00
C29    C     0.76716   0.01878   0.24073   0.00000  Uiso   1.00
C30    C     0.77893   0.00441   0.26555   0.00000  Uiso   1.00
C31    C     0.85063   0.06410   0.27791   0.00000  Uiso   1.00
C32    C     0.90971   0.13648   0.26565   0.00000  Uiso   1.00
C33    C     0.89520   0.14816   0.24083   0.00000  Uiso   1.00
H34    H     0.71398  -0.02649   0.23063   0.00000  Uiso   1.00
H35    H     0.86171   0.05302   0.29676   0.00000  Uiso   1.00
H36    H     0.94001   0.20179   0.23079   0.00000  Uiso   1.00
C37    C     0.49286   0.42110   0.56072   0.00000  Uiso   1.00
C38    C     0.43440   0.35085   0.57319   0.00000  Uiso   1.00
C39    C     0.44558   0.33709   0.59813   0.00000  Uiso   1.00
C40    C     0.51726   0.39672   0.61049   0.00000  Uiso   1.00
C41    C     0.57682   0.46846   0.59813   0.00000  Uiso   1.00
C42    C     0.56305   0.47962   0.57320   0.00000  Uiso   1.00
H43    H     0.38118   0.30558   0.56311   0.00000  Uiso   1.00
H44    H     0.52783   0.38616   0.62945   0.00000  Uiso   1.00
H45    H     0.60827   0.53288   0.56312   0.00000  Uiso   1.00
C46    C     0.15862   0.75268   0.89430   0.00000  Uiso   1.00
C47    C     0.10003   0.68242   0.90674   0.00000  Uiso   1.00
C48    C     0.11091   0.66872   0.93170   0.00000  Uiso   1.00
C49    C     0.18244   0.72839   0.94412   0.00000  Uiso   1.00
C50    C     0.24211   0.80014   0.93180   0.00000  Uiso   1.00
C51    C     0.22862   0.81125   0.90684   0.00000  Uiso   1.00
H52    H     0.04697   0.63710   0.89660   0.00000  Uiso   1.00
H53    H     0.19281   0.71787   0.96310   0.00000  Uiso   1.00
H54    H     0.27396   0.86449   0.89677   0.00000  Uiso   1.00
C55    C     0.82417   0.68273   0.22839   0.00000  Uiso   1.00
C56    C     0.89462   0.69479   0.24081   0.00000  Uiso   1.00
C57    C     0.90949   0.72161   0.26558   0.00000  Uiso   1.00
C58    C     0.85056   0.73517   0.27782   0.00000  Uiso   1.00
C59    C     0.77868   0.72284   0.26550   0.00000  Uiso   1.00
C60    C     0.76653   0.69606   0.24075   0.00000  Uiso   1.00
H61    H     0.93927   0.68569   0.23078   0.00000  Uiso   1.00
H62    H     0.86189   0.75776   0.29663   0.00000  Uiso   1.00
H63    H     0.71315   0.68780   0.23069   0.00000  Uiso   1.00
C64    C     0.49247   0.02091   0.56070   0.00000  Uiso   1.00
C65    C     0.43412   0.03292   0.57316   0.00000  Uiso   1.00
C66    C     0.44550   0.05821   0.59806   0.00000  Uiso   1.00
C67    C     0.51727   0.07042   0.61040   0.00000  Uiso   1.00
C68    C     0.57675   0.05808   0.59806   0.00000  Uiso   1.00
C69    C     0.56279   0.03279   0.57316   0.00000  Uiso   1.00
H70    H     0.38082   0.02481   0.56309   0.00000  Uiso   1.00
H71    H     0.52797   0.09179   0.62934   0.00000  Uiso   1.00
H72    H     0.60794   0.02461   0.56309   0.00000  Uiso   1.00
C73    C     0.15794   0.35297   0.89413   0.00000  Uiso   1.00
C74    C     0.09950   0.36483   0.90660   0.00000  Uiso   1.00
C75    C     0.11067   0.38980   0.93153   0.00000  Uiso   1.00
C76    C     0.18234   0.40184   0.94390   0.00000  Uiso   1.00
C77    C     0.24190   0.38964   0.93156   0.00000  Uiso   1.00
C78    C     0.22814   0.36466   0.90663   0.00000  Uiso   1.00
H79    H     0.04628   0.35688   0.89651   0.00000  Uiso   1.00
H80    H     0.19289   0.42298   0.96286   0.00000  Uiso   1.00
H81    H     0.27338   0.35662   0.89656   0.00000  Uiso   1.00
C82    C     0.09304   0.22215   0.69348   0.00000  Uiso   1.00
C83    C     0.15132   0.20994   0.68105   0.00000  Uiso   1.00
C84    C     0.13989   0.18439   0.65617   0.00000  Uiso   1.00
C85    C     0.06811   0.17212   0.64382   0.00000  Uiso   1.00
C86    C     0.00868   0.18464   0.65612   0.00000  Uiso   1.00
C87    C     0.02271   0.21018   0.68100   0.00000  Uiso   1.00
H88    H     0.20464   0.21811   0.69113   0.00000  Uiso   1.00
H89    H     0.05737   0.15059   0.62490   0.00000  Uiso   1.00
H90    H    -0.02239   0.21852   0.69104   0.00000  Uiso   1.00
C91    C     0.75713   0.55150   1.02719   0.00000  Uiso   1.00
C92    C     0.81570   0.53989   1.01470   0.00000  Uiso   1.00
C93    C     0.80478   0.51543   0.98973   0.00000  Uiso   1.00
C94    C     0.73322   0.50363   0.97734   0.00000  Uiso   1.00
C95    C     0.67355   0.51563   0.98971   0.00000  Uiso   1.00
C96    C     0.68708   0.54011   1.01468   0.00000  Uiso   1.00
H97    H     0.86878   0.54759   1.02481   0.00000  Uiso   1.00
H98    H     0.72283   0.48285   0.95835   0.00000  Uiso   1.00
H99    H     0.64176   0.54796   1.02477   0.00000  Uiso   1.00
C100   C     0.42582   0.88768   0.36028   0.00000  Uiso   1.00
C101   C     0.35519   0.87504   0.34785   0.00000  Uiso   1.00
C102   C     0.34104   0.84917   0.32301   0.00000  Uiso   1.00
C103   C     0.40067   0.83699   0.31068   0.00000  Uiso   1.00
C104   C     0.47277   0.84994   0.32300   0.00000  Uiso   1.00
C105   C     0.48429   0.87581   0.34785   0.00000  Uiso   1.00
H106   H     0.30999   0.88317   0.35791   0.00000  Uiso   1.00
H107   H     0.38985   0.81519   0.29179   0.00000  Uiso   1.00
H108   H     0.53785   0.88453   0.35790   0.00000  Uiso   1.00
C109   C     0.09419   0.81969   0.69317   0.00000  Uiso   1.00
C110   C     0.15226   0.89037   0.68078   0.00000  Uiso   1.00
C111   C     0.14033   0.90491   0.65599   0.00000  Uiso   1.00
C112   C     0.06830   0.84566   0.64369   0.00000  Uiso   1.00
C113   C     0.00908   0.77356   0.65596   0.00000  Uiso   1.00
C114   C     0.02358   0.76159   0.68075   0.00000  Uiso   1.00
H115   H     0.20579   0.93531   0.69082   0.00000  Uiso   1.00
H116   H     0.05720   0.85679   0.62484   0.00000  Uiso   1.00
H117   H    -0.02135   0.70801   0.69078   0.00000  Uiso   1.00
C118   C     0.75817   0.15298   1.02712   0.00000  Uiso   1.00
C119   C     0.81655   0.22321   1.01463   0.00000  Uiso   1.00
C120   C     0.80521   0.23698   0.98971   0.00000  Uiso   1.00
C121   C     0.73344   0.17737   0.97739   0.00000  Uiso   1.00
C122   C     0.67394   0.10565   0.98976   0.00000  Uiso   1.00
C123   C     0.68787   0.09447   1.01468   0.00000  Uiso   1.00
H124   H     0.86985   0.26847   1.02469   0.00000  Uiso   1.00
H125   H     0.72276   0.18794   0.95844   0.00000  Uiso   1.00
H126   H     0.64269   0.04122   1.02478   0.00000  Uiso   1.00
C127   C     0.42639   0.48658   0.36025   0.00000  Uiso   1.00
C128   C     0.48477   0.55694   0.34781   0.00000  Uiso   1.00
C129   C     0.47304   0.57139   0.32299   0.00000  Uiso   1.00
C130   C     0.40083   0.51230   0.31071   0.00000  Uiso   1.00
C131   C     0.34128   0.44048   0.32304   0.00000  Uiso   1.00
C132   C     0.35563   0.42866   0.34786   0.00000  Uiso   1.00
H133   H     0.53841   0.60175   0.35784   0.00000  Uiso   1.00
H134   H     0.38986   0.52336   0.29184   0.00000  Uiso   1.00
H135   H     0.31048   0.37532   0.35793   0.00000  Uiso   1.00
C136   C     0.69143   0.82077   0.69355   0.00000  Uiso   1.00
C137   C     0.70377   0.76253   0.68113   0.00000  Uiso   1.00
C138   C     0.72963   0.77411   0.65627   0.00000  Uiso   1.00
C139   C     0.74212   0.84602   0.64394   0.00000  Uiso   1.00
C140   C     0.72956   0.90544   0.65623   0.00000  Uiso   1.00
C141   C     0.70369   0.89125   0.68109   0.00000  Uiso   1.00
H142   H     0.69538   0.70909   0.69118   0.00000  Uiso   1.00
H143   H     0.76386   0.85686   0.62505   0.00000  Uiso   1.00
H144   H     0.69525   0.93631   0.69111   0.00000  Uiso   1.00
C145   C     0.35963   0.15400   1.02761   0.00000  Uiso   1.00
C146   C     0.37121   0.09537   1.01512   0.00000  Uiso   1.00
C147   C     0.39561   0.10619   0.99013   0.00000  Uiso   1.00
C148   C     0.40741   0.17772   0.97772   0.00000  Uiso   1.00
C149   C     0.39549   0.23747   0.99006   0.00000  Uiso   1.00
C150   C     0.37108   0.22406   1.01505   0.00000  Uiso   1.00
H151   H     0.36342   0.04225   1.02523   0.00000  Uiso   1.00
H152   H     0.42807   0.18799   0.95872   0.00000  Uiso   1.00
H153   H     0.36320   0.26941   1.02511   0.00000  Uiso   1.00
C154   C     0.02525   0.48716   0.35964   0.00000  Uiso   1.00
C155   C     0.03758   0.55763   0.34720   0.00000  Uiso   1.00
C156   C     0.06399   0.57246   0.32234   0.00000  Uiso   1.00
C157   C     0.07646   0.51262   0.31004   0.00000  Uiso   1.00
C158   C     0.06404   0.44039   0.32239   0.00000  Uiso   1.00
C159   C     0.03765   0.42896   0.34725   0.00000  Uiso   1.00
H160   H     0.02867   0.60218   0.35737   0.00000  Uiso   1.00
H161   H     0.09810   0.52339   0.29113   0.00000  Uiso   1.00
H162   H     0.02879   0.37559   0.35746   0.00000  Uiso   1.00
O163   O     0.98954   0.40125   0.93105   0.00000  Uiso   1.00
O164   O     0.85217   0.46766   0.95580   0.00000  Uiso   1.00
O165   O     0.98971   0.53616   0.93116   0.00000  Uiso   1.00
O166   O     0.85232   0.33230   0.95582   0.00000  Uiso   1.00
O167   O     0.92630   0.36952   0.99019   0.00000  Uiso   1.00
O168   O     1.06356   0.57337   0.96556   0.00000  Uiso   1.00
O169   O     0.92604   0.50415   0.99020   0.00000  Uiso   1.00
O170   O     1.06348   0.43790   0.96543   0.00000  Uiso   1.00
Cu171  Cu    0.90676   0.42729   0.93644   0.00000  Uiso   1.00
Cu172  Cu    1.00904   0.47832   0.98486   0.00000  Uiso   1.00
C173   C     1.05081   0.40973   0.94351   0.00000  Uiso   1.00
C174   C     0.86476   0.49569   0.97774   0.00000  Uiso   1.00
C175   C     1.05096   0.58892   0.94365   0.00000  Uiso   1.00
C176   C     0.86502   0.31676   0.97773   0.00000  Uiso   1.00
O177   O     0.52059   0.80222   0.28916   0.00000  Uiso   1.00
O178   O     0.65843   0.73587   0.26474   0.00000  Uiso   1.00
O179   O     0.52066   0.66701   0.28917   0.00000  Uiso   1.00
O180   O     0.65856   0.87120   0.26478   0.00000  Uiso   1.00
O181   O     0.73201   0.90825   0.29925   0.00000  Uiso   1.00
O182   O     0.59416   0.70399   0.32364   0.00000  Uiso   1.00
O183   O     0.73195   0.77234   0.29920   0.00000  Uiso   1.00
O184   O     0.59402   0.83862   0.32364   0.00000  Uiso   1.00
Cu185  Cu    0.57568   0.76216   0.26990   0.00000  Uiso   1.00
Cu186  Cu    0.67717   0.81288   0.31844   0.00000  Uiso   1.00
C187   C     0.53287   0.83016   0.31110   0.00000  Uiso   1.00
C188   C     0.71936   0.74394   0.27731   0.00000  Uiso   1.00
C189   C     0.53302   0.65130   0.31110   0.00000  Uiso   1.00
C190   C     0.71950   0.92405   0.27735   0.00000  Uiso   1.00
O191   O     0.32443   0.06979   0.59756   0.00000  Uiso   1.00
O192   O     0.18704   0.13613   0.62231   0.00000  Uiso   1.00
O193   O     0.32443   0.20455   0.59761   0.00000  Uiso   1.00
O194   O     0.18715   0.00066   0.62223   0.00000  Uiso   1.00
O195   O     0.26106   0.03779   0.65661   0.00000  Uiso   1.00
O196   O     0.39831   0.24175   0.63201   0.00000  Uiso   1.00
O197   O     0.26089   0.17267   0.65671   0.00000  Uiso   1.00
O198   O     0.39834   0.10638   0.63195   0.00000  Uiso   1.00
Cu199  Cu    0.24155   0.09573   0.60292   0.00000  Uiso   1.00
Cu200  Cu    0.34378   0.14672   0.65134   0.00000  Uiso   1.00
C201   C     0.38568   0.07823   0.61003   0.00000  Uiso   1.00
C202   C     0.19967   0.16428   0.64423   0.00000  Uiso   1.00
C203   C     0.38569   0.25730   0.61009   0.00000  Uiso   1.00
C204   C     0.19989  -0.01501   0.64411   0.00000  Uiso   1.00
O205   O     0.33722   0.43783   0.96546   0.00000  Uiso   1.00
O206   O     0.54111   0.50455   0.99015   0.00000  Uiso   1.00
O207   O     0.47257   0.57339   0.96541   0.00000  Uiso   1.00
O208   O     0.40635   0.36985   0.99037   0.00000  Uiso   1.00
O209   O     0.44297   0.33235   0.95603   0.00000  Uiso   1.00
O210   O     0.50910   0.53593   0.93104   0.00000  Uiso   1.00
O211   O     0.57834   0.46775   0.95580   0.00000  Uiso   1.00
O212   O     0.37441   0.40091   0.93111   0.00000  Uiso   1.00
Cu213  Cu    0.43223   0.47857   0.98484   0.00000  Uiso   1.00
Cu214  Cu    0.48325   0.42708   0.93649   0.00000  Uiso   1.00
C215   C     0.32166   0.40951   0.94355   0.00000  Uiso   1.00
C216   C     0.59386   0.49596   0.97771   0.00000  Uiso   1.00
C217   C     0.50059   0.58878   0.94347   0.00000  Uiso   1.00
C218   C     0.41496   0.31702   0.97797   0.00000  Uiso   1.00
O219   O     0.17624   0.86966   0.26480   0.00000  Uiso   1.00
O220   O     0.11022   0.66427   0.28902   0.00000  Uiso   1.00
O221   O     0.04080   0.73524   0.26526   0.00000  Uiso   1.00
O222   O     0.24529   0.80063   0.28919   0.00000  Uiso   1.00
O223   O     0.20803   0.83675   0.32362   0.00000  Uiso   1.00
O224   O     0.00490   0.76970   0.29839   0.00000  Uiso   1.00
O225   O     0.07375   0.70104   0.32344   0.00000  Uiso   1.00
O226   O     0.13939   0.90616   0.29926   0.00000  Uiso   1.00
Cu227  Cu    0.14977   0.76037   0.27007   0.00000  Uiso   1.00
Cu228  Cu    0.09905   0.80993   0.31814   0.00000  Uiso   1.00
C229   C     0.16776   0.92233   0.27736   0.00000  Uiso   1.00
C230   C     0.08250   0.64825   0.31100   0.00000  Uiso   1.00
C231   C    -0.01004   0.74257   0.27738   0.00000  Uiso   1.00
C232   C     0.26096   0.82871   0.31111   0.00000  Uiso   1.00
O233   O     0.67217   0.10640   0.63191   0.00000  Uiso   1.00
O234   O     0.87609   0.17319   0.65660   0.00000  Uiso   1.00
O235   O     0.80751   0.24182   0.63172   0.00000  Uiso   1.00
O236   O     0.74123   0.03821   0.65668   0.00000  Uiso   1.00
O237   O     0.77783   0.00075   0.62233   0.00000  Uiso   1.00
O238   O     0.84408   0.20436   0.59736   0.00000  Uiso   1.00
O239   O     0.91328   0.13631   0.62225   0.00000  Uiso   1.00
O240   O     0.70934   0.06950   0.59756   0.00000  Uiso   1.00
Cu241  Cu    0.76724   0.14708   0.65123   0.00000  Uiso   1.00
Cu242  Cu    0.81824   0.09560   0.60288   0.00000  Uiso   1.00
C243   C     0.65658   0.07806   0.61002   0.00000  Uiso   1.00
C244   C     0.92885   0.16463   0.64415   0.00000  Uiso   1.00
C245   C     0.83550   0.25718   0.60978   0.00000  Uiso   1.00
C246   C     0.74965  -0.01469   0.64425   0.00000  Uiso   1.00
O247   O     0.47269   0.84722   0.96554   0.00000  Uiso   1.00
O248   O     0.40664   0.98473   0.99052   0.00000  Uiso   1.00
O249   O     0.33735   0.84736   0.96571   0.00000  Uiso   1.00
O250   O     0.54137   0.98451   0.99030   0.00000  Uiso   1.00
O251   O     0.57846   1.05853   0.95594   0.00000  Uiso   1.00
O252   O     0.37452   0.92141   0.93135   0.00000  Uiso   1.00
O253   O     0.44312   1.05870   0.95615   0.00000  Uiso   1.00
O254   O     0.50918   0.92126   0.93118   0.00000  Uiso   1.00
Cu255  Cu    0.43245   0.90176   0.98502   0.00000  Uiso   1.00
Cu256  Cu    0.48335   1.00420   0.93665   0.00000  Uiso   1.00
C257   C     0.50068   0.85988   0.94360   0.00000  Uiso   1.00
C258   C     0.41517   1.04610   0.97809   0.00000  Uiso   1.00
C259   C     0.32179   0.86007   0.94380   0.00000  Uiso   1.00
C260   C     0.59410   1.04580   0.97783   0.00000  Uiso   1.00
O261   O     0.13948   0.18207   0.29932   0.00000  Uiso   1.00
O262   O     0.07387   0.32159   0.32354   0.00000  Uiso   1.00
O263   O     0.00499   0.18395   0.29850   0.00000  Uiso   1.00
O264   O     0.20817   0.32003   0.32370   0.00000  Uiso   1.00
O265   O     0.24537   0.39341   0.28927   0.00000  Uiso   1.00
O266   O     0.04091   0.25428   0.26538   0.00000  Uiso   1.00
O267   O     0.11028   0.39474   0.28910   0.00000  Uiso   1.00
O268   O     0.17634   0.25546   0.26487   0.00000  Uiso   1.00
Cu269  Cu    0.09916   0.23795   0.31824   0.00000  Uiso   1.00
Cu270  Cu    0.14985   0.33822   0.27016   0.00000  Uiso   1.00
C271   C     0.16784   0.19429   0.27742   0.00000  Uiso   1.00
C272   C     0.08258   0.38309   0.31109   0.00000  Uiso   1.00
C273   C    -0.00992   0.19609   0.27749   0.00000  Uiso   1.00
C274   C     0.26110   0.38097   0.31118   0.00000  Uiso   1.00
O275   O     0.74138   0.65304   0.65675   0.00000  Uiso   1.00
O276   O     0.80747   0.51556   0.63176   0.00000  Uiso   1.00
O277   O     0.87626   0.65276   0.65656   0.00000  Uiso   1.00
O278   O     0.67220   0.51569   0.63199   0.00000  Uiso   1.00
O279   O     0.70929   0.58969   0.59763   0.00000  Uiso   1.00
O280   O     0.91331   0.72680   0.62220   0.00000  Uiso   1.00
O281   O     0.84395   0.58957   0.59739   0.00000  Uiso   1.00
O282   O     0.77785   0.72700   0.62237   0.00000  Uiso   1.00
Cu283  Cu    0.76732   0.57012   0.65128   0.00000  Uiso   1.00
Cu284  Cu    0.81816   0.67252   0.60290   0.00000  Uiso   1.00
C285   C     0.74975   0.71432   0.64430   0.00000  Uiso   1.00
C286   C     0.83541   0.52818   0.60981   0.00000  Uiso   1.00
C287   C     0.92902   0.71398   0.64407   0.00000  Uiso   1.00
C288   C     0.65658   0.52838   0.61009   0.00000  Uiso   1.00
C289   C     0.14845   0.33390   0.86795   0.00000  Uiso   1.00
C290   C     0.14140   0.31964   0.84597   0.00000  Uiso   1.00
C291   C     0.13369   0.30386   0.81959   0.00000  Uiso   1.00
C292   C     0.19004   0.36263   0.80297   0.00000  Uiso   1.00
C293   C     0.18236   0.34736   0.77730   0.00000  Uiso   1.00
C294   C     0.11818   0.27313   0.76790   0.00000  Uiso   1.00
C295   C     0.06290   0.21570   0.78482   0.00000  Uiso   1.00
C296   C     0.07036   0.23052   0.80975   0.00000  Uiso   1.00
C297   C     0.11018   0.25678   0.74155   0.00000  Uiso   1.00
C298   C     0.10286   0.24194   0.71961   0.00000  Uiso   1.00
H299   H     0.23984   0.42016   0.80980   0.00000  Uiso   1.00
H300   H     0.22642   0.39336   0.76486   0.00000  Uiso   1.00
N301   N    -0.00128   0.14239   0.77895   0.00000  Uiso   1.00
N302   N     0.01188   0.16856   0.82293   0.00000  Uiso   1.00
C303   C     0.43580  -0.09220   0.38637   0.00000  Uiso   1.00
C304   C     0.44329  -0.07709   0.40829   0.00000  Uiso   1.00
C305   C     0.45152  -0.06043   0.43461   0.00000  Uiso   1.00
C306   C     0.51538   0.01420   0.44390   0.00000  Uiso   1.00
C307   C     0.52331   0.02976   0.46955   0.00000  Uiso   1.00
C308   C     0.46753  -0.02911   0.48625   0.00000  Uiso   1.00
C309   C     0.40451  -0.10285   0.47652   0.00000  Uiso   1.00
C310   C     0.39680  -0.11795   0.45162   0.00000  Uiso   1.00
C311   C     0.47550  -0.01303   0.51260   0.00000  Uiso   1.00
C312   C     0.48275   0.00150   0.53455   0.00000  Uiso   1.00
H313   H     0.55900   0.06027   0.43139   0.00000  Uiso   1.00
H314   H     0.57285   0.08759   0.47630   0.00000  Uiso   1.00
N315   N     0.34657  -0.16495   0.48980   0.00000  Uiso   1.00
N316   N     0.33299  -0.19163   0.44585   0.00000  Uiso   1.00
C317   C     0.76634   0.56995   0.05339   0.00000  Uiso   1.00
C318   C     0.77326   0.58373   0.07539   0.00000  Uiso   1.00
C319   C     0.78105   0.59900   0.10178   0.00000  Uiso   1.00
C320   C     0.79989   0.67611   0.11135   0.00000  Uiso   1.00
C321   C     0.80770   0.69139   0.13709   0.00000  Uiso   1.00
C322   C     0.79690   0.63007   0.15411   0.00000  Uiso   1.00
C323   C     0.77807   0.55357   0.14465   0.00000  Uiso   1.00
C324   C     0.77017   0.53813   0.11863   0.00000  Uiso   1.00
C325   C     0.80573   0.64676   0.18042   0.00000  Uiso   1.00
C326   C     0.81370   0.66210   0.20233   0.00000  Uiso   1.00
H327   H     0.80872   0.72489   0.09889   0.00000  Uiso   1.00
H328   H     0.82238   0.75154   0.14369   0.00000  Uiso   1.00
N329   N     0.76570   0.48791   0.15769   0.00000  Uiso   1.00
N330   N     0.75216   0.46148   0.11321   0.00000  Uiso   1.00
C331   C     0.10445   0.80937   0.71923   0.00000  Uiso   1.00
C332   C     0.11204   0.80160   0.74112   0.00000  Uiso   1.00
C333   C     0.12023   0.79301   0.76742   0.00000  Uiso   1.00
C334   C     0.06818   0.80108   0.78442   0.00000  Uiso   1.00
C335   C     0.07575   0.79340   0.81009   0.00000  Uiso   1.00
C336   C     0.13572   0.77744   0.81975   0.00000  Uiso   1.00
C337   C     0.19068   0.76886   0.80210   0.00000  Uiso   1.00
C338   C     0.18336   0.77623   0.77733   0.00000  Uiso   1.00
C339   C     0.14293   0.76935   0.84612   0.00000  Uiso   1.00
C340   C     0.14956   0.76214   0.86810   0.00000  Uiso   1.00
H341   H     0.02117   0.81351   0.77781   0.00000  Uiso   1.00
H342   H     0.03429   0.80003   0.82250   0.00000  Uiso   1.00
N343   N     0.25101   0.75370   0.80794   0.00000  Uiso   1.00
N344   N     0.23802   0.76682   0.76397   0.00000  Uiso   1.00
C345   C     0.48331   0.43064   0.53456   0.00000  Uiso   1.00
C346   C     0.47608   0.43783   0.51261   0.00000  Uiso   1.00
C347   C     0.46790   0.44587   0.48627   0.00000  Uiso   1.00
C348   C     0.51804   0.43572   0.46915   0.00000  Uiso   1.00
C349   C     0.51035   0.44300   0.44423   0.00000  Uiso   1.00
C350   C     0.45193   0.46092   0.43462   0.00000  Uiso   1.00
C351   C     0.40082   0.47140   0.45143   0.00000  Uiso   1.00
C352   C     0.40872   0.46390   0.47708   0.00000  Uiso   1.00
C353   C     0.44394   0.46905   0.40827   0.00000  Uiso   1.00
C354   C     0.43647   0.47651   0.38634   0.00000  Uiso   1.00
N355   N     0.57711   0.41844   0.47480   0.00000  Uiso   1.00
N356   N     0.56356   0.43132   0.43084   0.00000  Uiso   1.00
H357   H     0.35493   0.48538   0.44476   0.00000  Uiso   1.00
H358   H     0.36875   0.47216   0.48968   0.00000  Uiso   1.00
C359   C     0.76788   0.14349   0.05328   0.00000  Uiso   1.00
C360   C     0.77524   0.13640   0.07523   0.00000  Uiso   1.00
C361   C     0.78350   0.12848   0.10157   0.00000  Uiso   1.00
C362   C     0.79425   0.06572   0.11124   0.00000  Uiso   1.00
C363   C     0.80204   0.05827   0.13727   0.00000  Uiso   1.00
C364   C     0.79916   0.11346   0.15392   0.00000  Uiso   1.00
C365   C     0.78827   0.17679   0.14415   0.00000  Uiso   1.00
C366   C     0.78054   0.18415   0.11839   0.00000  Uiso   1.00
C367   C     0.80752   0.10630   0.18029   0.00000  Uiso   1.00
C368   C     0.81504   0.09937   0.20224   0.00000  Uiso   1.00
N369   N     0.79854   0.00718   0.09840   0.00000  Uiso   1.00
N370   N     0.81192  -0.00555   0.14289   0.00000  Uiso   1.00
H371   H     0.78575   0.22085   0.15645   0.00000  Uiso   1.00
H372   H     0.77219   0.23364   0.11162   0.00000  Uiso   1.00
C373   C     0.57615   0.76251   0.86789   0.00000  Uiso   1.00
C374   C     0.59086   0.77015   0.84593   0.00000  Uiso   1.00
C375   C     0.60747   0.77884   0.81958   0.00000  Uiso   1.00
C376   C     0.54751   0.72886   0.80236   0.00000  Uiso   1.00
C377   C     0.56290   0.73678   0.77746   0.00000  Uiso   1.00
C378   C     0.63939   0.79530   0.76794   0.00000  Uiso   1.00
C379   C     0.70064   0.84638   0.78486   0.00000  Uiso   1.00
C380   C     0.68479   0.83822   0.81050   0.00000  Uiso   1.00
C381   C     0.65599   0.80332   0.74159   0.00000  Uiso   1.00
C382   C     0.67117   0.81074   0.71966   0.00000  Uiso   1.00
N383   N     0.47110   0.66963   0.80789   0.00000  Uiso   1.00
N384   N     0.49827   0.68358   0.76397   0.00000  Uiso   1.00
H385   H     0.76060   0.89240   0.77829   0.00000  Uiso   1.00
H386   H     0.73281   0.87814   0.82317   0.00000  Uiso   1.00
C387   C     1.00487   0.47714   0.38575   0.00000  Uiso   1.00
C388   C     0.98971   0.46985   0.40769   0.00000  Uiso   1.00
C389   C     0.97321   0.46206   0.43406   0.00000  Uiso   1.00
C390   C     1.03493   0.51242   0.45096   0.00000  Uiso   1.00
C391   C     1.01918   0.50455   0.47661   0.00000  Uiso   1.00
C392   C     0.94148   0.44617   0.48573   0.00000  Uiso   1.00
C393   C     0.88106   0.39689   0.46852   0.00000  Uiso   1.00
C394   C     0.89636   0.40454   0.44360   0.00000  Uiso   1.00
C395   C     0.92498   0.43776   0.51209   0.00000  Uiso   1.00
C396   C     0.91038   0.43033   0.53406   0.00000  Uiso   1.00
H397   H     1.09519   0.55767   0.44437   0.00000  Uiso   1.00
H398   H     1.06758   0.54391   0.48926   0.00000  Uiso   1.00
N399   N     0.80425   0.33865   0.47407   0.00000  Uiso   1.00
N400   N     0.83125   0.35212   0.43014   0.00000  Uiso   1.00
C401   C     0.24669   0.09789   0.20215   0.00000  Uiso   1.00
C402   C     0.26178   0.10540   0.18021   0.00000  Uiso   1.00
C403   C     0.27816   0.11342   0.15383   0.00000  Uiso   1.00
C404   C     0.21674   0.06233   0.13696   0.00000  Uiso   1.00
C405   C     0.23240   0.07021   0.11131   0.00000  Uiso   1.00
C406   C     0.30971   0.12932   0.10215   0.00000  Uiso   1.00
C407   C     0.36982   0.17943   0.11933   0.00000  Uiso   1.00
C408   C     0.35460   0.17177   0.14425   0.00000  Uiso   1.00
C409   C     0.32617   0.13748   0.07578   0.00000  Uiso   1.00
C410   C     0.34065   0.14462   0.05381   0.00000  Uiso   1.00
H411   H     0.15679   0.01648   0.14358   0.00000  Uiso   1.00
H412   H     0.18425   0.03023   0.09868   0.00000  Uiso   1.00
N413   N     0.44625   0.23846   0.11373   0.00000  Uiso   1.00
N414   N     0.41940   0.22497   0.15768   0.00000  Uiso   1.00
S415   S     0.41683   0.62249   0.78211   0.00000  Uiso   1.00
S416   S    -0.05374   0.09038   0.80446   0.00000  Uiso   1.00
S417   S     0.30000   0.74841   0.78234   0.00000  Uiso   1.00
S418   S     0.28118   0.75637   0.47143   0.00000  Uiso   1.00
S419   S     0.62437   0.41095   0.44910   0.00000  Uiso   1.00
S420   S     0.74947   0.29213   0.44831   0.00000  Uiso   1.00
S421   S     0.81197  -0.05746   0.11721   0.00000  Uiso   1.00
S422   S     0.74447   0.40691   0.13908   0.00000  Uiso   1.00
S423   S     0.50077   0.28571   0.13947   0.00000  Uiso   1.00
loop_
_geom_bond_atom_site_label_1
_geom_bond_atom_site_label_2
_geom_bond_distance
_geom_bond_site_symmetry_2
_ccdc_geom_bond_type
C1     C2      1.401   .     A
C1     C6      1.401   .     A
C1     C401    1.452   .     S
C2     C3      1.411   .     A
C2     H7      1.084   .     S
C3     C4      1.421   .     A
C3     C229    1.505   1_545 A
C4     C5      1.422   .     A
C4     H8      1.083   .     S
C5     C6      1.411   .     A
C5     C271    1.505   .     S
C6     H9      1.084   .     S
C10    C11     1.401   .     A
C10    C15     1.402   .     A
C10    C396    1.452   .     S
C11    C12     1.411   .     A
C11    H16     1.084   .     S
C12    C13     1.419   .     A
C12    C286    1.502   .     S
C13    C14     1.419   .     A
C13    H17     1.083   .     S
C14    C15     1.411   .     A
C14    C245    1.503   .     S
C15    H18     1.084   .     S
C19    C20     1.402   .     A
C19    C24     1.401   .     A
C19    C373    1.451   .     S
C20    C21     1.410   .     A
C20    H25     1.084   .     S
C21    C22     1.420   .     A
C21    C217    1.502   .     S
C22    C23     1.420   .     A
C22    H26     1.083   .     S
C23    C24     1.410   .     A
C23    C257    1.502   .     S
C24    H27     1.084   .     S
C28    C29     1.400   .     A
C28    C33     1.401   .     A
C28    C368    1.450   .     S
C29    C30     1.410   .     A
C29    H34     1.084   .     S
C30    C31     1.420   .     A
C30    C190    1.502   1_545 A
C31    C32     1.421   .     A
C31    H35     1.083   .     S
C32    C33     1.410   .     A
C32    C273    1.504   1_655 S
C33    H36     1.084   .     S
C37    C38     1.400   .     A
C37    C42     1.400   .     A
C37    C345    1.450   .     S
C38    C39     1.411   .     A
C38    H43     1.084   .     S
C39    C40     1.419   .     A
C39    C203    1.501   .     S
C40    C41     1.420   .     A
C40    H44     1.083   .     S
C41    C42     1.410   .     A
C41    C288    1.501   .     S
C42    H45     1.084   .     S
C46    C47     1.400   .     A
C46    C51     1.400   .     A
C46    C340    1.450   .     S
C47    C48     1.410   .     A
C47    H52     1.084   .     S
C48    C49     1.420   .     A
C48    C175    1.501   1_455 A
C49    C50     1.419   .     A
C49    H53     1.083   .     S
C50    C51     1.410   .     A
C50    C259    1.501   .     S
C51    H54     1.084   .     S
C55    C56     1.401   .     A
C55    C60     1.400   .     A
C55    C326    1.451   .     S
C56    C57     1.411   .     A
C56    H61     1.084   .     S
C57    C58     1.421   .     A
C57    C231    1.504   1_655 S
C58    C59     1.420   .     A
C58    H62     1.083   .     S
C59    C60     1.410   .     A
C59    C188    1.503   .     S
C60    H63     1.084   .     S
C64    C65     1.401   .     A
C64    C69     1.401   .     A
C64    C312    1.451   .     S
C65    C66     1.410   .     A
C65    H70     1.084   .     S
C66    C67     1.419   .     A
C66    C201    1.502   .     S
C67    C68     1.419   .     A
C67    H71     1.083   .     S
C68    C69     1.410   .     A
C68    C243    1.502   .     S
C69    H72     1.084   .     S
C73    C74     1.401   .     A
C73    C78     1.401   .     A
C73    C289    1.451   .     S
C74    C75     1.410   .     A
C74    H79     1.084   .     S
C75    C76     1.419   .     A
C75    C173    1.502   1_455 A
C76    C77     1.419   .     A
C76    H80     1.083   .     S
C77    C78     1.410   .     A
C77    C215    1.502   .     S
C78    H81     1.084   .     S
C82    C83     1.401   .     A
C82    C87     1.401   .     A
C82    C298    1.451   .     S
C83    C84     1.410   .     A
C83    H88     1.084   .     S
C84    C85     1.419   .     A
C84    C202    1.501   .     S
C85    C86     1.419   .     A
C85    H89     1.083   .     S
C86    C87     1.410   .     A
C86    C244    1.502   1_455 A
C87    H90     1.084   .     S
C91    C92     1.401   .     A
C91    C96     1.401   .     A
C91    C317    1.450   1_556 S
C92    C93     1.410   .     A
C92    H97     1.084   .     S
C93    C94     1.420   .     A
C93    C174    1.502   .     S
C94    C95     1.420   .     A
C94    H98     1.083   .     S
C95    C96     1.410   .     A
C95    C216    1.502   .     S
C96    H99     1.084   .     S
C100   C101    1.401   .     A
C100   C105    1.400   .     A
C100   C303    1.450   1_565 A
C101   C102    1.410   .     A
C101   H106    1.084   .     S
C102   C103    1.420   .     A
C102   C232    1.502   .     S
C103   C104    1.420   .     A
C103   H107    1.083   .     S
C104   C105    1.410   .     A
C104   C187    1.502   .     S
C105   H108    1.084   .     S
C109   C110    1.400   .     A
C109   C114    1.401   .     A
C109   C331    1.450   .     S
C110   C111    1.410   .     A
C110   H115    1.084   .     S
C111   C112    1.419   .     A
C111   C204    1.501   1_565 S
C112   C113    1.419   .     A
C112   H116    1.083   .     S
C113   C114    1.410   .     A
C113   C287    1.501   1_455 S
C114   H117    1.084   .     S
C118   C119    1.400   .     A
C118   C123    1.400   .     A
C118   C359    1.451   1_556 A
C119   C120    1.410   .     A
C119   H124    1.084   .     S
C120   C121    1.419   .     A
C120   C176    1.501   .     S
C121   C122    1.419   .     A
C121   H125    1.083   .     S
C122   C123    1.410   .     A
C122   C260    1.501   1_545 A
C123   H126    1.084   .     S
C127   C128    1.400   .     A
C127   C132    1.400   .     A
C127   C354    1.450   .     S
C128   C129    1.410   .     A
C128   H133    1.084   .     S
C129   C130    1.420   .     A
C129   C189    1.501   .     S
C130   C131    1.420   .     A
C130   H134    1.083   .     S
C131   C132    1.410   .     A
C131   C274    1.502   .     S
C132   H135    1.084   .     S
C136   C137    1.401   .     A
C136   C141    1.401   .     A
C136   C382    1.452   .     S
C137   C138    1.411   .     A
C137   H142    1.084   .     S
C138   C139    1.420   .     A
C138   C285    1.502   .     S
C139   C140    1.419   .     A
C139   H143    1.083   .     S
C140   C141    1.411   .     A
C140   C246    1.502   1_565 S
C141   H144    1.084   .     S
C145   C146    1.401   .     A
C145   C150    1.402   .     A
C145   C410    1.452   1_556 A
C146   C147    1.411   .     A
C146   H151    1.084   .     S
C147   C148    1.420   .     A
C147   C258    1.502   1_545 S
C148   C149    1.419   .     A
C148   H152    1.083   .     S
C149   C150    1.411   .     A
C149   C218    1.502   .     S
C150   H153    1.084   .     S
C154   C155    1.400   .     A
C154   C159    1.400   .     A
C154   C387    1.452   1_455 A
C155   C156    1.414   .     A
C155   H160    1.084   .     S
C156   C157    1.426   .     A
C156   C230    1.427   .     S
C157   C158    1.426   .     A
C157   H161    1.083   .     S
C158   C159    1.414   .     A
C158   C272    1.427   .     S
C159   H162    1.084   .     S
O163   Cu171   1.876   .     S
O163   C173    1.276   .     A
O164   Cu171   1.875   .     S
O164   C174    1.273   .     A
O165   Cu171   1.876   .     S
O165   C175    1.276   .     A
O166   Cu171   1.875   .     S
O166   C176    1.273   .     A
O167   Cu172   1.875   .     S
O167   C176    1.276   .     A
O168   Cu172   1.874   .     S
O168   C175    1.272   .     A
O169   Cu172   1.877   .     S
O169   C174    1.276   .     A
O170   Cu172   1.875   .     S
O170   C173    1.273   .     A
C173   C75     1.502   1_655 A
C175   C48     1.501   1_655 A
O177   Cu185   1.875   .     S
O177   C187    1.273   .     A
O178   Cu185   1.877   .     S
O178   C188    1.276   .     A
O179   Cu185   1.875   .     S
O179   C189    1.273   .     A
O180   Cu185   1.877   .     S
O180   C190    1.276   .     A
O181   Cu186   1.875   .     S
O181   C190    1.273   .     A
O182   Cu186   1.876   .     S
O182   C189    1.276   .     A
O183   Cu186   1.876   .     S
O183   C188    1.273   .     A
O184   Cu186   1.877   .     S
O184   C187    1.276   .     A
C190   C30     1.502   1_565 A
O191   Cu199   1.876   .     S
O191   C201    1.276   .     A
O192   Cu199   1.875   .     S
O192   C202    1.273   .     A
O193   Cu199   1.876   .     S
O193   C203    1.276   .     A
O194   Cu199   1.874   .     S
O194   C204    1.272   .     A
O195   Cu200   1.876   .     S
O195   C204    1.276   .     A
O196   Cu200   1.875   .     S
O196   C203    1.273   .     A
O197   Cu200   1.877   .     S
O197   C202    1.276   .     A
O198   Cu200   1.875   .     S
O198   C201    1.273   .     A
C204   C111    1.501   1_545 S
O205   Cu213   1.875   .     S
O205   C215    1.273   .     A
O206   Cu213   1.877   .     S
O206   C216    1.275   .     A
O207   Cu213   1.875   .     S
O207   C217    1.273   .     A
O208   Cu213   1.876   .     S
O208   C218    1.276   .     A
O209   Cu214   1.877   .     S
O209   C218    1.273   .     A
O210   Cu214   1.878   .     S
O210   C217    1.276   .     A
O211   Cu214   1.875   .     S
O211   C216    1.273   .     A
O212   Cu214   1.875   .     S
O212   C215    1.276   .     A
O219   Cu227   1.881   .     S
O219   C229    1.277   .     A
O220   Cu227   1.880   .     S
O220   C230    1.274   .     A
O221   Cu227   1.879   .     S
O221   C231    1.224   .     A
O222   Cu227   1.876   .     S
O222   C232    1.273   .     A
O223   Cu228   1.875   .     S
O223   C232    1.275   .     A
O224   Cu228   1.875   .     S
O224   C231    1.221   .     A
O225   Cu228   1.880   .     S
O225   C230    1.278   .     A
O226   Cu228   1.878   .     S
O226   C229    1.273   .     A
C229   C3      1.505   1_565 A
C231   C57     1.504   1_455 S
O233   Cu241   1.875   .     S
O233   C243    1.272   .     A
O234   Cu241   1.876   .     S
O234   C244    1.276   .     A
O235   Cu241   1.876   .     S
O235   C245    1.273   .     A
O236   Cu241   1.877   .     S
O236   C246    1.276   .     A
O237   Cu242   1.876   .     S
O237   C246    1.273   .     A
O238   Cu242   1.877   .     S
O238   C245    1.276   .     A
O239   Cu242   1.876   .     S
O239   C244    1.273   .     A
O240   Cu242   1.876   .     S
O240   C243    1.276   .     A
C244   C86     1.502   1_655 A
C246   C140    1.502   1_545 S
O247   Cu255   1.876   .     S
O247   C257    1.273   .     A
O248   Cu255   1.877   .     S
O248   C258    1.276   .     A
O249   Cu255   1.875   .     S
O249   C259    1.273   .     A
O250   Cu255   1.876   .     S
O250   C260    1.276   .     A
O251   Cu256   1.874   .     S
O251   C260    1.273   .     A
O252   Cu256   1.875   .     S
O252   C259    1.276   .     A
O253   Cu256   1.876   .     S
O253   C258    1.273   .     A
O254   Cu256   1.877   .     S
O254   C257    1.276   .     A
C258   C147    1.502   1_565 S
C260   C122    1.501   1_565 A
O261   Cu269   1.879   .     S
O261   C271    1.273   .     A
O262   Cu269   1.881   .     S
O262   C272    1.278   .     A
O263   Cu269   1.875   .     S
O263   C273    1.220   .     A
O264   Cu269   1.875   .     S
O264   C274    1.275   .     A
O265   Cu270   1.875   .     S
O265   C274    1.273   .     A
O266   Cu270   1.879   .     S
O266   C273    1.224   .     A
O267   Cu270   1.879   .     S
O267   C272    1.274   .     A
O268   Cu270   1.880   .     S
O268   C271    1.277   .     A
C273   C32     1.504   1_455 S
O275   Cu283   1.878   .     S
O275   C285    1.276   .     A
O276   Cu283   1.876   .     S
O276   C286    1.273   .     A
O277   Cu283   1.876   .     S
O277   C287    1.276   .     A
O278   Cu283   1.874   .     S
O278   C288    1.273   .     A
O279   Cu284   1.876   .     S
O279   C288    1.276   .     A
O280   Cu284   1.875   .     S
O280   C287    1.273   .     A
O281   Cu284   1.877   .     S
O281   C286    1.276   .     A
O282   Cu284   1.876   .     S
O282   C285    1.273   .     A
C287   C113    1.501   1_655 S
C289   C290    1.213   .     T
C290   C291    1.451   .     S
C291   C292    1.409   .     A
C291   C296    1.402   .     A
C292   C293    1.412   .     A
C292   H299    1.083   .     S
C293   C294    1.408   .     A
C293   H300    1.083   .     S
C294   C295    1.402   .     A
C294   C297    1.452   .     S
C295   C296    1.371   .     A
C295   N301    1.341   .     A
C296   N302    1.341   .     A
C297   C298    1.212   .     T
N301   S416    1.696   .     A
N302   S416    1.695   .     A
C303   C304    1.212   .     T
C303   C100    1.450   1_545 A
C304   C305    1.451   .     S
C305   C306    1.408   .     A
C305   C310    1.402   .     A
C306   C307    1.412   .     A
C306   H313    1.083   .     S
C307   C308    1.409   .     A
C307   H314    1.083   .     S
C308   C309    1.402   .     A
C308   C311    1.451   .     S
C309   C310    1.371   .     A
C309   N315    1.341   .     A
C310   N316    1.341   .     A
C311   C312    1.212   .     T
N315   S418    1.696   1_545 A
N316   S418    1.695   1_545 S
C317   C318    1.212   .     T
C317   C91     1.450   1_554 S
C318   C319    1.451   .     S
C319   C320    1.410   .     A
C319   C324    1.398   .     A
C320   C321    1.416   .     A
C320   H327    1.083   .     S
C321   C322    1.410   .     A
C321   H328    1.083   .     S
C322   C323    1.397   .     A
C322   C325    1.450   .     S
C323   C324    1.431   .     A
C323   N329    1.339   .     A
C324   N330    1.340   .     A
C325   C326    1.212   .     T
N329   S422    1.700   .     A
N330   S422    1.700   .     A
C331   C332    1.211   .     T
C332   C333    1.450   .     S
C333   C334    1.407   .     A
C333   C338    1.475   .     A
C334   C335    1.412   .     A
C334   H341    1.083   .     S
C335   C336    1.406   .     A
C335   H342    1.083   .     S
C336   C337    1.476   .     A
C336   C339    1.450   .     S
C337   C338    1.362   .     A
C337   N343    1.340   .     A
C338   N344    1.340   .     A
C339   C340    1.211   .     T
N343   S417    1.695   .     A
N344   S417    1.696   .     A
C345   C346    1.212   .     T
C346   C347    1.451   .     S
C347   C348    1.403   .     A
C347   C352    1.408   .     A
C348   C349    1.371   .     A
C348   N355    1.341   .     A
C349   C350    1.402   .     A
C349   N356    1.341   .     A
C350   C351    1.408   .     A
C350   C353    1.451   .     S
C351   C352    1.411   .     A
C351   H357    1.083   .     S
C352   H358    1.083   .     S
C353   C354    1.212   .     T
N355   S419    1.695   .     A
N356   S419    1.695   .     A
C359   C360    1.212   .     T
C359   C118    1.451   1_554 A
C360   C361    1.450   .     S
C361   C362    1.397   .     A
C361   C366    1.411   .     A
C362   C363    1.431   .     A
C362   N369    1.339   .     A
C363   C364    1.397   .     A
C363   N370    1.340   .     A
C364   C365    1.410   .     A
C364   C367    1.450   .     S
C365   C366    1.416   .     A
C365   H371    1.083   .     S
C366   H372    1.083   .     S
C367   C368    1.212   .     T
N369   S421    1.700   .     A
N370   S421    1.700   .     A
C373   C374    1.213   .     T
C374   C375    1.452   .     S
C375   C376    1.403   .     A
C375   C380    1.408   .     A
C376   C377    1.371   .     A
C376   N383    1.341   .     A
C377   C378    1.402   .     A
C377   N384    1.341   .     A
C378   C379    1.409   .     A
C378   C381    1.452   .     S
C379   C380    1.412   .     A
C379   H385    1.083   .     S
C380   H386    1.083   .     S
C381   C382    1.213   .     T
N383   S415    1.695   .     A
N384   S415    1.696   .     A
C387   C388    1.213   .     T
C387   C154    1.452   1_655 A
C388   C389    1.453   .     S
C389   C390    1.409   .     A
C389   C394    1.402   .     A
C390   C391    1.412   .     A
C390   H397    1.083   .     S
C391   C392    1.409   .     A
C391   H398    1.083   .     S
C392   C393    1.403   .     A
C392   C395    1.453   .     S
C393   C394    1.372   .     A
C393   N399    1.341   .     A
C394   N400    1.341   .     A
C395   C396    1.213   .     T
N399   S420    1.695   .     A
N400   S420    1.696   .     A
C401   C402    1.213   .     T
C402   C403    1.453   .     S
C403   C404    1.409   .     A
C403   C408    1.402   .     A
C404   C405    1.412   .     A
C404   H411    1.083   .     S
C405   C406    1.408   .     A
C405   H412    1.083   .     S
C406   C407    1.403   .     A
C406   C409    1.453   .     S
C407   C408    1.372   .     A
C407   N413    1.341   .     A
C408   N414    1.341   .     A
C409   C410    1.213   .     T
C410   C145    1.452   1_554 A
N413   S423    1.695   .     A
N414   S423    1.696   .     A
S418   N315    1.696   1_565 A
S418   N316    1.695   1_565 S
