data_image0
_cell_length_a       16.6144
_cell_length_b       32.782
_cell_length_c       17.8662
_cell_angle_alpha    90
_cell_angle_beta     90
_cell_angle_gamma    90

_symmetry_space_group_name_H-M    P 1
_symmetry_int_tables_number       1

loop_
  _symmetry_equiv_pos_as_xyz
  'x, y, z'

loop_
  _atom_site_label
  _atom_site_occupancy
  _atom_site_fract_x
  _atom_site_fract_y
  _atom_site_fract_z
  _atom_site_thermal_displace_type
  _atom_site_B_iso_or_equiv
  _atom_site_type_symbol
  Cd1      1.0000 0.20494  0.16256  0.70299  Biso   1.000  Cd
  Cd2      1.0000 0.29722  0.13065  0.52748  Biso   1.000  Cd
  Cd3      1.0000 0.79506  0.33744  0.70299  Biso   1.000  Cd
  Cd4      1.0000 0.70278  0.36935  0.52748  Biso   1.000  Cd
  Cd5      1.0000 0.20494  0.83744  0.79701  Biso   1.000  Cd
  Cd6      1.0000 0.29722  0.86935  0.97252  Biso   1.000  Cd
  Cd7      1.0000 0.79506  0.66256  0.79701  Biso   1.000  Cd
  Cd8      1.0000 0.70278  0.63065  0.97252  Biso   1.000  Cd
  Cd9      1.0000 0.79506  0.83744  0.29701  Biso   1.000  Cd
  Cd10     1.0000 0.70278  0.86935  0.47252  Biso   1.000  Cd
  Cd11     1.0000 0.20494  0.66256  0.29701  Biso   1.000  Cd
  Cd12     1.0000 0.29722  0.63065  0.47252  Biso   1.000  Cd
  Cd13     1.0000 0.79506  0.16256  0.20299  Biso   1.000  Cd
  Cd14     1.0000 0.70278  0.13065  0.02748  Biso   1.000  Cd
  Cd15     1.0000 0.20494  0.33744  0.20299  Biso   1.000  Cd
  Cd16     1.0000 0.29722  0.36935  0.02748  Biso   1.000  Cd
  H1       1.0000 0.88300  0.24030  0.77970  Biso   1.000  H
  H2       1.0000 0.81890  0.24080  0.89330  Biso   1.000  H
  H3       1.0000 0.73980  0.12650  0.85640  Biso   1.000  H
  H4       1.0000 0.80720  0.12550  0.74450  Biso   1.000  H
  H5       1.0000 0.95590  0.17270  0.68950  Biso   1.000  H
  H6       1.0000 0.91210  0.21290  0.66510  Biso   1.000  H
  H7       1.0000 0.79670  0.24580  0.56900  Biso   1.000  H
  H8       1.0000 0.71670  0.22430  0.59370  Biso   1.000  H
  H9       1.0000 0.78810  0.22860  0.65050  Biso   1.000  H
  H10      1.0000 0.95030  0.11100  0.69530  Biso   1.000  H
  H11      1.0000 0.95220  0.07460  0.63830  Biso   1.000  H
  H12      1.0000 0.01010  0.11190  0.62740  Biso   1.000  H
  H13      1.0000 0.71860  0.10840  0.41410  Biso   1.000  H
  H14      1.0000 0.79730  0.12020  0.37070  Biso   1.000  H
  H15      1.0000 0.79160  0.07810  0.41220  Biso   1.000  H
  H16      1.0000 0.74240  0.18570  0.40710  Biso   1.000  H
  H17      1.0000 0.72200  0.21580  0.47250  Biso   1.000  H
  H18      1.0000 0.61970  0.18600  0.35130  Biso   1.000  H
  H19      1.0000 0.48420  0.16680  0.35490  Biso   1.000  H
  H20      1.0000 0.50250  0.12560  0.55530  Biso   1.000  H
  H21      1.0000 0.63050  0.15530  0.57020  Biso   1.000  H
  H22      1.0000 0.95890  0.06270  0.52020  Biso   1.000  H
  H23      1.0000 0.91420  0.07150  0.44450  Biso   1.000  H
  H24      1.0000 0.78960  0.04950  0.59750  Biso   1.000  H
  H25      1.0000 0.71860  0.99180  0.61600  Biso   1.000  H
  H26      1.0000 0.83980  0.93900  0.44570  Biso   1.000  H
  H27      1.0000 0.90760  0.00100  0.42860  Biso   1.000  H
  H28      1.0000 0.00940  0.21760  0.52540  Biso   1.000  H
  H29      1.0000 0.92250  0.21550  0.42580  Biso   1.000  H
  H30      1.0000 0.02500  0.11180  0.35550  Biso   1.000  H
  H31      1.0000 0.10950  0.11310  0.46290  Biso   1.000  H
  H32      1.0000 0.33060  0.01010  0.62130  Biso   1.000  H
  H33      1.0000 0.31380  0.05590  0.83170  Biso   1.000  H
  H34      1.0000 0.44250  0.23100  0.54860  Biso   1.000  H
  H35      1.0000 0.44220  0.23210  0.77170  Biso   1.000  H
  H36      1.0000 0.11700  0.25970  0.77970  Biso   1.000  H
  H37      1.0000 0.18110  0.25920  0.89330  Biso   1.000  H
  H38      1.0000 0.26020  0.37350  0.85640  Biso   1.000  H
  H39      1.0000 0.19280  0.37450  0.74450  Biso   1.000  H
  H40      1.0000 0.04410  0.32730  0.68950  Biso   1.000  H
  H41      1.0000 0.08790  0.28710  0.66510  Biso   1.000  H
  H42      1.0000 0.20330  0.25420  0.56900  Biso   1.000  H
  H43      1.0000 0.28330  0.27570  0.59370  Biso   1.000  H
  H44      1.0000 0.21190  0.27140  0.65050  Biso   1.000  H
  H45      1.0000 0.04970  0.38900  0.69530  Biso   1.000  H
  H46      1.0000 0.04780  0.42540  0.63830  Biso   1.000  H
  H47      1.0000 0.98990  0.38810  0.62740  Biso   1.000  H
  H48      1.0000 0.28140  0.39160  0.41410  Biso   1.000  H
  H49      1.0000 0.20270  0.37980  0.37070  Biso   1.000  H
  H50      1.0000 0.20840  0.42190  0.41220  Biso   1.000  H
  H51      1.0000 0.25760  0.31430  0.40710  Biso   1.000  H
  H52      1.0000 0.27800  0.28420  0.47250  Biso   1.000  H
  H53      1.0000 0.38030  0.31400  0.35130  Biso   1.000  H
  H54      1.0000 0.51580  0.33320  0.35490  Biso   1.000  H
  H55      1.0000 0.49750  0.37440  0.55530  Biso   1.000  H
  H56      1.0000 0.36950  0.34470  0.57020  Biso   1.000  H
  H57      1.0000 0.04110  0.43730  0.52020  Biso   1.000  H
  H58      1.0000 0.08580  0.42850  0.44450  Biso   1.000  H
  H59      1.0000 0.21040  0.45050  0.59750  Biso   1.000  H
  H60      1.0000 0.28140  0.50820  0.61600  Biso   1.000  H
  H61      1.0000 0.16020  0.56100  0.44570  Biso   1.000  H
  H62      1.0000 0.09240  0.49900  0.42860  Biso   1.000  H
  H63      1.0000 0.99060  0.28240  0.52540  Biso   1.000  H
  H64      1.0000 0.07750  0.28450  0.42580  Biso   1.000  H
  H65      1.0000 0.97500  0.38820  0.35550  Biso   1.000  H
  H66      1.0000 0.89050  0.38690  0.46290  Biso   1.000  H
  H67      1.0000 0.66940  0.48990  0.62130  Biso   1.000  H
  H68      1.0000 0.68620  0.44410  0.83170  Biso   1.000  H
  H69      1.0000 0.55750  0.26900  0.54860  Biso   1.000  H
  H70      1.0000 0.55780  0.26790  0.77170  Biso   1.000  H
  H71      1.0000 0.88300  0.75970  0.72030  Biso   1.000  H
  H72      1.0000 0.81890  0.75920  0.60670  Biso   1.000  H
  H73      1.0000 0.73980  0.87350  0.64360  Biso   1.000  H
  H74      1.0000 0.80720  0.87450  0.75550  Biso   1.000  H
  H75      1.0000 0.95590  0.82730  0.81050  Biso   1.000  H
  H76      1.0000 0.91210  0.78710  0.83490  Biso   1.000  H
  H77      1.0000 0.79670  0.75420  0.93100  Biso   1.000  H
  H78      1.0000 0.71670  0.77570  0.90630  Biso   1.000  H
  H79      1.0000 0.78810  0.77140  0.84950  Biso   1.000  H
  H80      1.0000 0.95030  0.88900  0.80470  Biso   1.000  H
  H81      1.0000 0.95220  0.92540  0.86170  Biso   1.000  H
  H82      1.0000 0.01010  0.88810  0.87260  Biso   1.000  H
  H83      1.0000 0.71860  0.89160  0.08590  Biso   1.000  H
  H84      1.0000 0.79730  0.87980  0.12930  Biso   1.000  H
  H85      1.0000 0.79160  0.92190  0.08780  Biso   1.000  H
  H86      1.0000 0.74240  0.81430  0.09290  Biso   1.000  H
  H87      1.0000 0.72200  0.78420  0.02750  Biso   1.000  H
  H88      1.0000 0.61970  0.81400  0.14870  Biso   1.000  H
  H89      1.0000 0.48420  0.83320  0.14510  Biso   1.000  H
  H90      1.0000 0.50250  0.87440  0.94470  Biso   1.000  H
  H91      1.0000 0.63050  0.84470  0.92980  Biso   1.000  H
  H92      1.0000 0.95890  0.93730  0.97980  Biso   1.000  H
  H93      1.0000 0.91420  0.92850  0.05550  Biso   1.000  H
  H94      1.0000 0.78960  0.95050  0.90250  Biso   1.000  H
  H95      1.0000 0.71860  0.00820  0.88400  Biso   1.000  H
  H96      1.0000 0.83980  0.06100  0.05430  Biso   1.000  H
  H97      1.0000 0.90760  0.99900  0.07140  Biso   1.000  H
  H98      1.0000 0.00940  0.78240  0.97460  Biso   1.000  H
  H99      1.0000 0.92250  0.78450  0.07420  Biso   1.000  H
  H100     1.0000 0.02500  0.88820  0.14450  Biso   1.000  H
  H101     1.0000 0.10950  0.88690  0.03710  Biso   1.000  H
  H102     1.0000 0.33060  0.98990  0.87870  Biso   1.000  H
  H103     1.0000 0.31380  0.94410  0.66830  Biso   1.000  H
  H104     1.0000 0.44250  0.76900  0.95140  Biso   1.000  H
  H105     1.0000 0.44220  0.76790  0.72830  Biso   1.000  H
  H106     1.0000 0.11700  0.74030  0.72030  Biso   1.000  H
  H107     1.0000 0.18110  0.74080  0.60670  Biso   1.000  H
  H108     1.0000 0.26020  0.62650  0.64360  Biso   1.000  H
  H109     1.0000 0.19280  0.62550  0.75550  Biso   1.000  H
  H110     1.0000 0.04410  0.67270  0.81050  Biso   1.000  H
  H111     1.0000 0.08790  0.71290  0.83490  Biso   1.000  H
  H112     1.0000 0.20330  0.74580  0.93100  Biso   1.000  H
  H113     1.0000 0.28330  0.72430  0.90630  Biso   1.000  H
  H114     1.0000 0.21190  0.72860  0.84950  Biso   1.000  H
  H115     1.0000 0.04970  0.61100  0.80470  Biso   1.000  H
  H116     1.0000 0.04780  0.57460  0.86170  Biso   1.000  H
  H117     1.0000 0.98990  0.61190  0.87260  Biso   1.000  H
  H118     1.0000 0.28140  0.60840  0.08590  Biso   1.000  H
  H119     1.0000 0.20270  0.62020  0.12930  Biso   1.000  H
  H120     1.0000 0.20840  0.57810  0.08780  Biso   1.000  H
  H121     1.0000 0.25760  0.68570  0.09290  Biso   1.000  H
  H122     1.0000 0.27800  0.71580  0.02750  Biso   1.000  H
  H123     1.0000 0.38030  0.68600  0.14870  Biso   1.000  H
  H124     1.0000 0.51580  0.66680  0.14510  Biso   1.000  H
  H125     1.0000 0.49750  0.62560  0.94470  Biso   1.000  H
  H126     1.0000 0.36950  0.65530  0.92980  Biso   1.000  H
  H127     1.0000 0.04110  0.56270  0.97980  Biso   1.000  H
  H128     1.0000 0.08580  0.57150  0.05550  Biso   1.000  H
  H129     1.0000 0.21040  0.54950  0.90250  Biso   1.000  H
  H130     1.0000 0.28140  0.49180  0.88400  Biso   1.000  H
  H131     1.0000 0.16020  0.43900  0.05430  Biso   1.000  H
  H132     1.0000 0.09240  0.50100  0.07140  Biso   1.000  H
  H133     1.0000 0.99060  0.71760  0.97460  Biso   1.000  H
  H134     1.0000 0.07750  0.71550  0.07420  Biso   1.000  H
  H135     1.0000 0.97500  0.61180  0.14450  Biso   1.000  H
  H136     1.0000 0.89050  0.61310  0.03710  Biso   1.000  H
  H137     1.0000 0.66940  0.51010  0.87870  Biso   1.000  H
  H138     1.0000 0.68620  0.55590  0.66830  Biso   1.000  H
  H139     1.0000 0.55750  0.73100  0.95140  Biso   1.000  H
  H140     1.0000 0.55780  0.73210  0.72830  Biso   1.000  H
  H141     1.0000 0.11700  0.75970  0.22030  Biso   1.000  H
  H142     1.0000 0.18110  0.75920  0.10670  Biso   1.000  H
  H143     1.0000 0.26020  0.87350  0.14360  Biso   1.000  H
  H144     1.0000 0.19280  0.87450  0.25550  Biso   1.000  H
  H145     1.0000 0.04410  0.82730  0.31050  Biso   1.000  H
  H146     1.0000 0.08790  0.78710  0.33490  Biso   1.000  H
  H147     1.0000 0.20330  0.75420  0.43100  Biso   1.000  H
  H148     1.0000 0.28330  0.77570  0.40630  Biso   1.000  H
  H149     1.0000 0.21190  0.77140  0.34950  Biso   1.000  H
  H150     1.0000 0.04970  0.88900  0.30470  Biso   1.000  H
  H151     1.0000 0.04780  0.92540  0.36170  Biso   1.000  H
  H152     1.0000 0.98990  0.88810  0.37260  Biso   1.000  H
  H153     1.0000 0.28140  0.89160  0.58590  Biso   1.000  H
  H154     1.0000 0.20270  0.87980  0.62930  Biso   1.000  H
  H155     1.0000 0.20840  0.92190  0.58780  Biso   1.000  H
  H156     1.0000 0.25760  0.81430  0.59290  Biso   1.000  H
  H157     1.0000 0.27800  0.78420  0.52750  Biso   1.000  H
  H158     1.0000 0.38030  0.81400  0.64870  Biso   1.000  H
  H159     1.0000 0.51580  0.83320  0.64510  Biso   1.000  H
  H160     1.0000 0.49750  0.87440  0.44470  Biso   1.000  H
  H161     1.0000 0.36950  0.84470  0.42980  Biso   1.000  H
  H162     1.0000 0.04110  0.93730  0.47980  Biso   1.000  H
  H163     1.0000 0.08580  0.92850  0.55550  Biso   1.000  H
  H164     1.0000 0.21040  0.95050  0.40250  Biso   1.000  H
  H165     1.0000 0.28140  0.00820  0.38400  Biso   1.000  H
  H166     1.0000 0.16020  0.06100  0.55430  Biso   1.000  H
  H167     1.0000 0.09240  0.99900  0.57140  Biso   1.000  H
  H168     1.0000 0.99060  0.78240  0.47460  Biso   1.000  H
  H169     1.0000 0.07750  0.78450  0.57420  Biso   1.000  H
  H170     1.0000 0.97500  0.88820  0.64450  Biso   1.000  H
  H171     1.0000 0.89050  0.88690  0.53710  Biso   1.000  H
  H172     1.0000 0.66940  0.98990  0.37870  Biso   1.000  H
  H173     1.0000 0.68620  0.94410  0.16830  Biso   1.000  H
  H174     1.0000 0.55750  0.76900  0.45140  Biso   1.000  H
  H175     1.0000 0.55780  0.76790  0.22830  Biso   1.000  H
  H176     1.0000 0.88300  0.74030  0.22030  Biso   1.000  H
  H177     1.0000 0.81890  0.74080  0.10670  Biso   1.000  H
  H178     1.0000 0.73980  0.62650  0.14360  Biso   1.000  H
  H179     1.0000 0.80720  0.62550  0.25550  Biso   1.000  H
  H180     1.0000 0.95590  0.67270  0.31050  Biso   1.000  H
  H181     1.0000 0.91210  0.71290  0.33490  Biso   1.000  H
  H182     1.0000 0.79670  0.74580  0.43100  Biso   1.000  H
  H183     1.0000 0.71670  0.72430  0.40630  Biso   1.000  H
  H184     1.0000 0.78810  0.72860  0.34950  Biso   1.000  H
  H185     1.0000 0.95030  0.61100  0.30470  Biso   1.000  H
  H186     1.0000 0.95220  0.57460  0.36170  Biso   1.000  H
  H187     1.0000 0.01010  0.61190  0.37260  Biso   1.000  H
  H188     1.0000 0.71860  0.60840  0.58590  Biso   1.000  H
  H189     1.0000 0.79730  0.62020  0.62930  Biso   1.000  H
  H190     1.0000 0.79160  0.57810  0.58780  Biso   1.000  H
  H191     1.0000 0.74240  0.68570  0.59290  Biso   1.000  H
  H192     1.0000 0.72200  0.71580  0.52750  Biso   1.000  H
  H193     1.0000 0.61970  0.68600  0.64870  Biso   1.000  H
  H194     1.0000 0.48420  0.66680  0.64510  Biso   1.000  H
  H195     1.0000 0.50250  0.62560  0.44470  Biso   1.000  H
  H196     1.0000 0.63050  0.65530  0.42980  Biso   1.000  H
  H197     1.0000 0.95890  0.56270  0.47980  Biso   1.000  H
  H198     1.0000 0.91420  0.57150  0.55550  Biso   1.000  H
  H199     1.0000 0.78960  0.54950  0.40250  Biso   1.000  H
  H200     1.0000 0.71860  0.49180  0.38400  Biso   1.000  H
  H201     1.0000 0.83980  0.43900  0.55430  Biso   1.000  H
  H202     1.0000 0.90760  0.50100  0.57140  Biso   1.000  H
  H203     1.0000 0.00940  0.71760  0.47460  Biso   1.000  H
  H204     1.0000 0.92250  0.71550  0.57420  Biso   1.000  H
  H205     1.0000 0.02500  0.61180  0.64450  Biso   1.000  H
  H206     1.0000 0.10950  0.61310  0.53710  Biso   1.000  H
  H207     1.0000 0.33060  0.51010  0.37870  Biso   1.000  H
  H208     1.0000 0.31380  0.55590  0.16830  Biso   1.000  H
  H209     1.0000 0.44250  0.73100  0.45140  Biso   1.000  H
  H210     1.0000 0.44220  0.73210  0.22830  Biso   1.000  H
  H211     1.0000 0.11700  0.24030  0.27970  Biso   1.000  H
  H212     1.0000 0.18110  0.24080  0.39330  Biso   1.000  H
  H213     1.0000 0.26020  0.12650  0.35640  Biso   1.000  H
  H214     1.0000 0.19280  0.12550  0.24450  Biso   1.000  H
  H215     1.0000 0.04410  0.17270  0.18950  Biso   1.000  H
  H216     1.0000 0.08790  0.21290  0.16510  Biso   1.000  H
  H217     1.0000 0.20330  0.24580  0.06900  Biso   1.000  H
  H218     1.0000 0.28330  0.22430  0.09370  Biso   1.000  H
  H219     1.0000 0.21190  0.22860  0.15050  Biso   1.000  H
  H220     1.0000 0.04970  0.11100  0.19530  Biso   1.000  H
  H221     1.0000 0.04780  0.07460  0.13830  Biso   1.000  H
  H222     1.0000 0.98990  0.11190  0.12740  Biso   1.000  H
  H223     1.0000 0.28140  0.10840  0.91410  Biso   1.000  H
  H224     1.0000 0.20270  0.12020  0.87070  Biso   1.000  H
  H225     1.0000 0.20840  0.07810  0.91220  Biso   1.000  H
  H226     1.0000 0.25760  0.18570  0.90710  Biso   1.000  H
  H227     1.0000 0.27800  0.21580  0.97250  Biso   1.000  H
  H228     1.0000 0.38030  0.18600  0.85130  Biso   1.000  H
  H229     1.0000 0.51580  0.16680  0.85490  Biso   1.000  H
  H230     1.0000 0.49750  0.12560  0.05530  Biso   1.000  H
  H231     1.0000 0.36950  0.15530  0.07020  Biso   1.000  H
  H232     1.0000 0.04110  0.06270  0.02020  Biso   1.000  H
  H233     1.0000 0.08580  0.07150  0.94450  Biso   1.000  H
  H234     1.0000 0.21040  0.04950  0.09750  Biso   1.000  H
  H235     1.0000 0.28140  0.99180  0.11600  Biso   1.000  H
  H236     1.0000 0.16020  0.93900  0.94570  Biso   1.000  H
  H237     1.0000 0.09240  0.00100  0.92860  Biso   1.000  H
  H238     1.0000 0.99060  0.21760  0.02540  Biso   1.000  H
  H239     1.0000 0.07750  0.21550  0.92580  Biso   1.000  H
  H240     1.0000 0.97500  0.11180  0.85550  Biso   1.000  H
  H241     1.0000 0.89050  0.11310  0.96290  Biso   1.000  H
  H242     1.0000 0.66940  0.01010  0.12130  Biso   1.000  H
  H243     1.0000 0.68620  0.05590  0.33170  Biso   1.000  H
  H244     1.0000 0.55750  0.23100  0.04860  Biso   1.000  H
  H245     1.0000 0.55780  0.23210  0.27170  Biso   1.000  H
  H246     1.0000 0.88300  0.25970  0.27970  Biso   1.000  H
  H247     1.0000 0.81890  0.25920  0.39330  Biso   1.000  H
  H248     1.0000 0.73980  0.37350  0.35640  Biso   1.000  H
  H249     1.0000 0.80720  0.37450  0.24450  Biso   1.000  H
  H250     1.0000 0.95590  0.32730  0.18950  Biso   1.000  H
  H251     1.0000 0.91210  0.28710  0.16510  Biso   1.000  H
  H252     1.0000 0.79670  0.25420  0.06900  Biso   1.000  H
  H253     1.0000 0.71670  0.27570  0.09370  Biso   1.000  H
  H254     1.0000 0.78810  0.27140  0.15050  Biso   1.000  H
  H255     1.0000 0.95030  0.38900  0.19530  Biso   1.000  H
  H256     1.0000 0.95220  0.42540  0.13830  Biso   1.000  H
  H257     1.0000 0.01010  0.38810  0.12740  Biso   1.000  H
  H258     1.0000 0.71860  0.39160  0.91410  Biso   1.000  H
  H259     1.0000 0.79730  0.37980  0.87070  Biso   1.000  H
  H260     1.0000 0.79160  0.42190  0.91220  Biso   1.000  H
  H261     1.0000 0.74240  0.31430  0.90710  Biso   1.000  H
  H262     1.0000 0.72200  0.28420  0.97250  Biso   1.000  H
  H263     1.0000 0.61970  0.31400  0.85130  Biso   1.000  H
  H264     1.0000 0.48420  0.33320  0.85490  Biso   1.000  H
  H265     1.0000 0.50250  0.37440  0.05530  Biso   1.000  H
  H266     1.0000 0.63050  0.34470  0.07020  Biso   1.000  H
  H267     1.0000 0.95890  0.43730  0.02020  Biso   1.000  H
  H268     1.0000 0.91420  0.42850  0.94450  Biso   1.000  H
  H269     1.0000 0.78960  0.45050  0.09750  Biso   1.000  H
  H270     1.0000 0.71860  0.50820  0.11600  Biso   1.000  H
  H271     1.0000 0.83980  0.56100  0.94570  Biso   1.000  H
  H272     1.0000 0.90760  0.49900  0.92860  Biso   1.000  H
  H273     1.0000 0.00940  0.28240  0.02540  Biso   1.000  H
  H274     1.0000 0.92250  0.28450  0.92580  Biso   1.000  H
  H275     1.0000 0.02500  0.38820  0.85550  Biso   1.000  H
  H276     1.0000 0.10950  0.38690  0.96290  Biso   1.000  H
  H277     1.0000 0.33060  0.48990  0.12130  Biso   1.000  H
  H278     1.0000 0.31380  0.44410  0.33170  Biso   1.000  H
  H279     1.0000 0.44250  0.26900  0.04860  Biso   1.000  H
  H280     1.0000 0.44220  0.26790  0.27170  Biso   1.000  H
  C1       1.0000 0.85480  0.21736  0.79550  Biso   1.000  C
  C2       1.0000 0.81630  0.21769  0.86330  Biso   1.000  C
  C3       1.0000 0.77330  0.18365  0.88770  Biso   1.000  C
  C4       1.0000 0.76940  0.14920  0.84140  Biso   1.000  C
  C5       1.0000 0.80890  0.14880  0.77430  Biso   1.000  C
  C6       1.0000 0.90370  0.18464  0.67900  Biso   1.000  C
  C7       1.0000 0.86620  0.16269  0.61540  Biso   1.000  C
  C8       1.0000 0.89480  0.12453  0.59700  Biso   1.000  C
  C9       1.0000 0.86710  0.10605  0.53290  Biso   1.000  C
  C10      1.0000 0.80980  0.12580  0.48420  Biso   1.000  C
  C11      1.0000 0.78090  0.16415  0.50950  Biso   1.000  C
  C12      1.0000 0.80900  0.18180  0.57180  Biso   1.000  C
  C13      1.0000 0.77420  0.22434  0.59890  Biso   1.000  C
  C14      1.0000 0.95750  0.10363  0.64370  Biso   1.000  C
  C15      1.0000 0.77630  0.10635  0.41380  Biso   1.000  C
  C16      1.0000 0.72250  0.18725  0.45810  Biso   1.000  C
  C17      1.0000 0.59710  0.17560  0.39500  Biso   1.000  C
  C18      1.0000 0.51580  0.16310  0.39730  Biso   1.000  C
  C19      1.0000 0.48220  0.14600  0.45810  Biso   1.000  C
  C20      1.0000 0.52450  0.14050  0.51600  Biso   1.000  C
  C21      1.0000 0.60430  0.15590  0.52420  Biso   1.000  C
  C22      1.0000 0.90650  0.06723  0.49780  Biso   1.000  C
  C23      1.0000 0.79860  0.02710  0.56670  Biso   1.000  C
  C24      1.0000 0.75720  0.99256  0.57830  Biso   1.000  C
  C25      1.0000 0.77110  0.95681  0.53400  Biso   1.000  C
  C26      1.0000 0.82850  0.96100  0.47690  Biso   1.000  C
  C27      1.0000 0.86950  0.99851  0.46650  Biso   1.000  C
  C28      1.0000 0.11820  0.16621  0.57350  Biso   1.000  C
  C29      1.0000 0.06640  0.16510  0.50500  Biso   1.000  C
  C30      1.0000 0.01170  0.19569  0.49230  Biso   1.000  C
  C31      1.0000 0.96040  0.19496  0.43230  Biso   1.000  C
  C32      1.0000 0.96570  0.16370  0.38220  Biso   1.000  C
  C33      1.0000 0.02100  0.13266  0.39050  Biso   1.000  C
  C34      1.0000 0.07220  0.13380  0.45500  Biso   1.000  C
  C35      1.0000 0.90830  0.16092  0.31730  Biso   1.000  C
  C36      1.0000 0.30640  0.07780  0.67840  Biso   1.000  C
  C37      1.0000 0.31680  0.03874  0.72090  Biso   1.000  C
  C38      1.0000 0.32290  0.00580  0.67220  Biso   1.000  C
  C39      1.0000 0.31720  0.03361  0.79970  Biso   1.000  C
  C40      1.0000 0.35280  0.20252  0.65940  Biso   1.000  C
  C41      1.0000 0.46530  0.23872  0.59410  Biso   1.000  C
  C42      1.0000 0.42830  0.22713  0.65970  Biso   1.000  C
  C43      1.0000 0.46560  0.23920  0.72620  Biso   1.000  C
  C44      1.0000 0.14520  0.28264  0.79550  Biso   1.000  C
  C45      1.0000 0.18370  0.28231  0.86330  Biso   1.000  C
  C46      1.0000 0.22670  0.31635  0.88770  Biso   1.000  C
  C47      1.0000 0.23060  0.35080  0.84140  Biso   1.000  C
  C48      1.0000 0.19110  0.35120  0.77430  Biso   1.000  C
  C49      1.0000 0.09630  0.31536  0.67900  Biso   1.000  C
  C50      1.0000 0.13380  0.33731  0.61540  Biso   1.000  C
  C51      1.0000 0.10520  0.37547  0.59700  Biso   1.000  C
  C52      1.0000 0.13290  0.39395  0.53290  Biso   1.000  C
  C53      1.0000 0.19020  0.37420  0.48420  Biso   1.000  C
  C54      1.0000 0.21910  0.33585  0.50950  Biso   1.000  C
  C55      1.0000 0.19100  0.31820  0.57180  Biso   1.000  C
  C56      1.0000 0.22580  0.27566  0.59890  Biso   1.000  C
  C57      1.0000 0.04250  0.39637  0.64370  Biso   1.000  C
  C58      1.0000 0.22370  0.39365  0.41380  Biso   1.000  C
  C59      1.0000 0.27750  0.31275  0.45810  Biso   1.000  C
  C60      1.0000 0.40290  0.32440  0.39500  Biso   1.000  C
  C61      1.0000 0.48420  0.33690  0.39730  Biso   1.000  C
  C62      1.0000 0.51780  0.35400  0.45810  Biso   1.000  C
  C63      1.0000 0.47550  0.35950  0.51600  Biso   1.000  C
  C64      1.0000 0.39570  0.34410  0.52420  Biso   1.000  C
  C65      1.0000 0.09350  0.43277  0.49780  Biso   1.000  C
  C66      1.0000 0.20140  0.47290  0.56670  Biso   1.000  C
  C67      1.0000 0.24280  0.50744  0.57830  Biso   1.000  C
  C68      1.0000 0.22890  0.54319  0.53400  Biso   1.000  C
  C69      1.0000 0.17150  0.53900  0.47690  Biso   1.000  C
  C70      1.0000 0.13050  0.50149  0.46650  Biso   1.000  C
  C71      1.0000 0.88180  0.33379  0.57350  Biso   1.000  C
  C72      1.0000 0.93360  0.33490  0.50500  Biso   1.000  C
  C73      1.0000 0.98830  0.30431  0.49230  Biso   1.000  C
  C74      1.0000 0.03960  0.30504  0.43230  Biso   1.000  C
  C75      1.0000 0.03430  0.33630  0.38220  Biso   1.000  C
  C76      1.0000 0.97900  0.36734  0.39050  Biso   1.000  C
  C77      1.0000 0.92780  0.36620  0.45500  Biso   1.000  C
  C78      1.0000 0.09170  0.33908  0.31730  Biso   1.000  C
  C79      1.0000 0.69360  0.42220  0.67840  Biso   1.000  C
  C80      1.0000 0.68320  0.46126  0.72090  Biso   1.000  C
  C81      1.0000 0.67710  0.49420  0.67220  Biso   1.000  C
  C82      1.0000 0.68280  0.46639  0.79970  Biso   1.000  C
  C83      1.0000 0.64720  0.29748  0.65940  Biso   1.000  C
  C84      1.0000 0.53470  0.26128  0.59410  Biso   1.000  C
  C85      1.0000 0.57170  0.27287  0.65970  Biso   1.000  C
  C86      1.0000 0.53440  0.26080  0.72620  Biso   1.000  C
  C87      1.0000 0.85480  0.78264  0.70450  Biso   1.000  C
  C88      1.0000 0.81630  0.78231  0.63670  Biso   1.000  C
  C89      1.0000 0.77330  0.81635  0.61230  Biso   1.000  C
  C90      1.0000 0.76940  0.85080  0.65860  Biso   1.000  C
  C91      1.0000 0.80890  0.85120  0.72570  Biso   1.000  C
  C92      1.0000 0.90370  0.81536  0.82100  Biso   1.000  C
  C93      1.0000 0.86620  0.83731  0.88460  Biso   1.000  C
  C94      1.0000 0.89480  0.87547  0.90300  Biso   1.000  C
  C95      1.0000 0.86710  0.89395  0.96710  Biso   1.000  C
  C96      1.0000 0.80980  0.87420  0.01580  Biso   1.000  C
  C97      1.0000 0.78090  0.83585  0.99050  Biso   1.000  C
  C98      1.0000 0.80900  0.81820  0.92820  Biso   1.000  C
  C99      1.0000 0.77420  0.77566  0.90110  Biso   1.000  C
  C100     1.0000 0.95750  0.89637  0.85630  Biso   1.000  C
  C101     1.0000 0.77630  0.89365  0.08620  Biso   1.000  C
  C102     1.0000 0.72250  0.81275  0.04190  Biso   1.000  C
  C103     1.0000 0.59710  0.82440  0.10500  Biso   1.000  C
  C104     1.0000 0.51580  0.83690  0.10270  Biso   1.000  C
  C105     1.0000 0.48220  0.85400  0.04190  Biso   1.000  C
  C106     1.0000 0.52450  0.85950  0.98400  Biso   1.000  C
  C107     1.0000 0.60430  0.84410  0.97580  Biso   1.000  C
  C108     1.0000 0.90650  0.93277  0.00220  Biso   1.000  C
  C109     1.0000 0.79860  0.97290  0.93330  Biso   1.000  C
  C110     1.0000 0.75720  0.00744  0.92170  Biso   1.000  C
  C111     1.0000 0.77110  0.04319  0.96600  Biso   1.000  C
  C112     1.0000 0.82850  0.03900  0.02310  Biso   1.000  C
  C113     1.0000 0.86950  0.00149  0.03350  Biso   1.000  C
  C114     1.0000 0.11820  0.83379  0.92650  Biso   1.000  C
  C115     1.0000 0.06640  0.83490  0.99500  Biso   1.000  C
  C116     1.0000 0.01170  0.80431  0.00770  Biso   1.000  C
  C117     1.0000 0.96040  0.80504  0.06770  Biso   1.000  C
  C118     1.0000 0.96570  0.83630  0.11780  Biso   1.000  C
  C119     1.0000 0.02100  0.86734  0.10950  Biso   1.000  C
  C120     1.0000 0.07220  0.86620  0.04500  Biso   1.000  C
  C121     1.0000 0.90830  0.83908  0.18270  Biso   1.000  C
  C122     1.0000 0.30640  0.92220  0.82160  Biso   1.000  C
  C123     1.0000 0.31680  0.96126  0.77910  Biso   1.000  C
  C124     1.0000 0.32290  0.99420  0.82780  Biso   1.000  C
  C125     1.0000 0.31720  0.96639  0.70030  Biso   1.000  C
  C126     1.0000 0.35280  0.79748  0.84060  Biso   1.000  C
  C127     1.0000 0.46530  0.76128  0.90590  Biso   1.000  C
  C128     1.0000 0.42830  0.77287  0.84030  Biso   1.000  C
  C129     1.0000 0.46560  0.76080  0.77380  Biso   1.000  C
  C130     1.0000 0.14520  0.71736  0.70450  Biso   1.000  C
  C131     1.0000 0.18370  0.71769  0.63670  Biso   1.000  C
  C132     1.0000 0.22670  0.68365  0.61230  Biso   1.000  C
  C133     1.0000 0.23060  0.64920  0.65860  Biso   1.000  C
  C134     1.0000 0.19110  0.64880  0.72570  Biso   1.000  C
  C135     1.0000 0.09630  0.68464  0.82100  Biso   1.000  C
  C136     1.0000 0.13380  0.66269  0.88460  Biso   1.000  C
  C137     1.0000 0.10520  0.62453  0.90300  Biso   1.000  C
  C138     1.0000 0.13290  0.60605  0.96710  Biso   1.000  C
  C139     1.0000 0.19020  0.62580  0.01580  Biso   1.000  C
  C140     1.0000 0.21910  0.66415  0.99050  Biso   1.000  C
  C141     1.0000 0.19100  0.68180  0.92820  Biso   1.000  C
  C142     1.0000 0.22580  0.72434  0.90110  Biso   1.000  C
  C143     1.0000 0.04250  0.60363  0.85630  Biso   1.000  C
  C144     1.0000 0.22370  0.60635  0.08620  Biso   1.000  C
  C145     1.0000 0.27750  0.68725  0.04190  Biso   1.000  C
  C146     1.0000 0.40290  0.67560  0.10500  Biso   1.000  C
  C147     1.0000 0.48420  0.66310  0.10270  Biso   1.000  C
  C148     1.0000 0.51780  0.64600  0.04190  Biso   1.000  C
  C149     1.0000 0.47550  0.64050  0.98400  Biso   1.000  C
  C150     1.0000 0.39570  0.65590  0.97580  Biso   1.000  C
  C151     1.0000 0.09350  0.56723  0.00220  Biso   1.000  C
  C152     1.0000 0.20140  0.52710  0.93330  Biso   1.000  C
  C153     1.0000 0.24280  0.49256  0.92170  Biso   1.000  C
  C154     1.0000 0.22890  0.45681  0.96600  Biso   1.000  C
  C155     1.0000 0.17150  0.46100  0.02310  Biso   1.000  C
  C156     1.0000 0.13050  0.49851  0.03350  Biso   1.000  C
  C157     1.0000 0.88180  0.66621  0.92650  Biso   1.000  C
  C158     1.0000 0.93360  0.66510  0.99500  Biso   1.000  C
  C159     1.0000 0.98830  0.69569  0.00770  Biso   1.000  C
  C160     1.0000 0.03960  0.69496  0.06770  Biso   1.000  C
  C161     1.0000 0.03430  0.66370  0.11780  Biso   1.000  C
  C162     1.0000 0.97900  0.63266  0.10950  Biso   1.000  C
  C163     1.0000 0.92780  0.63380  0.04500  Biso   1.000  C
  C164     1.0000 0.09170  0.66092  0.18270  Biso   1.000  C
  C165     1.0000 0.69360  0.57780  0.82160  Biso   1.000  C
  C166     1.0000 0.68320  0.53874  0.77910  Biso   1.000  C
  C167     1.0000 0.67710  0.50580  0.82780  Biso   1.000  C
  C168     1.0000 0.68280  0.53361  0.70030  Biso   1.000  C
  C169     1.0000 0.64720  0.70252  0.84060  Biso   1.000  C
  C170     1.0000 0.53470  0.73872  0.90590  Biso   1.000  C
  C171     1.0000 0.57170  0.72713  0.84030  Biso   1.000  C
  C172     1.0000 0.53440  0.73920  0.77380  Biso   1.000  C
  C173     1.0000 0.14520  0.78264  0.20450  Biso   1.000  C
  C174     1.0000 0.18370  0.78231  0.13670  Biso   1.000  C
  C175     1.0000 0.22670  0.81635  0.11230  Biso   1.000  C
  C176     1.0000 0.23060  0.85080  0.15860  Biso   1.000  C
  C177     1.0000 0.19110  0.85120  0.22570  Biso   1.000  C
  C178     1.0000 0.09630  0.81536  0.32100  Biso   1.000  C
  C179     1.0000 0.13380  0.83731  0.38460  Biso   1.000  C
  C180     1.0000 0.10520  0.87547  0.40300  Biso   1.000  C
  C181     1.0000 0.13290  0.89395  0.46710  Biso   1.000  C
  C182     1.0000 0.19020  0.87420  0.51580  Biso   1.000  C
  C183     1.0000 0.21910  0.83585  0.49050  Biso   1.000  C
  C184     1.0000 0.19100  0.81820  0.42820  Biso   1.000  C
  C185     1.0000 0.22580  0.77566  0.40110  Biso   1.000  C
  C186     1.0000 0.04250  0.89637  0.35630  Biso   1.000  C
  C187     1.0000 0.22370  0.89365  0.58620  Biso   1.000  C
  C188     1.0000 0.27750  0.81275  0.54190  Biso   1.000  C
  C189     1.0000 0.40290  0.82440  0.60500  Biso   1.000  C
  C190     1.0000 0.48420  0.83690  0.60270  Biso   1.000  C
  C191     1.0000 0.51780  0.85400  0.54190  Biso   1.000  C
  C192     1.0000 0.47550  0.85950  0.48400  Biso   1.000  C
  C193     1.0000 0.39570  0.84410  0.47580  Biso   1.000  C
  C194     1.0000 0.09350  0.93277  0.50220  Biso   1.000  C
  C195     1.0000 0.20140  0.97290  0.43330  Biso   1.000  C
  C196     1.0000 0.24280  0.00744  0.42170  Biso   1.000  C
  C197     1.0000 0.22890  0.04319  0.46600  Biso   1.000  C
  C198     1.0000 0.17150  0.03900  0.52310  Biso   1.000  C
  C199     1.0000 0.13050  0.00149  0.53350  Biso   1.000  C
  C200     1.0000 0.88180  0.83379  0.42650  Biso   1.000  C
  C201     1.0000 0.93360  0.83490  0.49500  Biso   1.000  C
  C202     1.0000 0.98830  0.80431  0.50770  Biso   1.000  C
  C203     1.0000 0.03960  0.80504  0.56770  Biso   1.000  C
  C204     1.0000 0.03430  0.83630  0.61780  Biso   1.000  C
  C205     1.0000 0.97900  0.86734  0.60950  Biso   1.000  C
  C206     1.0000 0.92780  0.86620  0.54500  Biso   1.000  C
  C207     1.0000 0.09170  0.83908  0.68270  Biso   1.000  C
  C208     1.0000 0.69360  0.92220  0.32160  Biso   1.000  C
  C209     1.0000 0.68320  0.96126  0.27910  Biso   1.000  C
  C210     1.0000 0.67710  0.99420  0.32780  Biso   1.000  C
  C211     1.0000 0.68280  0.96639  0.20030  Biso   1.000  C
  C212     1.0000 0.64720  0.79748  0.34060  Biso   1.000  C
  C213     1.0000 0.53470  0.76128  0.40590  Biso   1.000  C
  C214     1.0000 0.57170  0.77287  0.34030  Biso   1.000  C
  C215     1.0000 0.53440  0.76080  0.27380  Biso   1.000  C
  C216     1.0000 0.85480  0.71736  0.20450  Biso   1.000  C
  C217     1.0000 0.81630  0.71769  0.13670  Biso   1.000  C
  C218     1.0000 0.77330  0.68365  0.11230  Biso   1.000  C
  C219     1.0000 0.76940  0.64920  0.15860  Biso   1.000  C
  C220     1.0000 0.80890  0.64880  0.22570  Biso   1.000  C
  C221     1.0000 0.90370  0.68464  0.32100  Biso   1.000  C
  C222     1.0000 0.86620  0.66269  0.38460  Biso   1.000  C
  C223     1.0000 0.89480  0.62453  0.40300  Biso   1.000  C
  C224     1.0000 0.86710  0.60605  0.46710  Biso   1.000  C
  C225     1.0000 0.80980  0.62580  0.51580  Biso   1.000  C
  C226     1.0000 0.78090  0.66415  0.49050  Biso   1.000  C
  C227     1.0000 0.80900  0.68180  0.42820  Biso   1.000  C
  C228     1.0000 0.77420  0.72434  0.40110  Biso   1.000  C
  C229     1.0000 0.95750  0.60363  0.35630  Biso   1.000  C
  C230     1.0000 0.77630  0.60635  0.58620  Biso   1.000  C
  C231     1.0000 0.72250  0.68725  0.54190  Biso   1.000  C
  C232     1.0000 0.59710  0.67560  0.60500  Biso   1.000  C
  C233     1.0000 0.51580  0.66310  0.60270  Biso   1.000  C
  C234     1.0000 0.48220  0.64600  0.54190  Biso   1.000  C
  C235     1.0000 0.52450  0.64050  0.48400  Biso   1.000  C
  C236     1.0000 0.60430  0.65590  0.47580  Biso   1.000  C
  C237     1.0000 0.90650  0.56723  0.50220  Biso   1.000  C
  C238     1.0000 0.79860  0.52710  0.43330  Biso   1.000  C
  C239     1.0000 0.75720  0.49256  0.42170  Biso   1.000  C
  C240     1.0000 0.77110  0.45681  0.46600  Biso   1.000  C
  C241     1.0000 0.82850  0.46100  0.52310  Biso   1.000  C
  C242     1.0000 0.86950  0.49851  0.53350  Biso   1.000  C
  C243     1.0000 0.11820  0.66621  0.42650  Biso   1.000  C
  C244     1.0000 0.06640  0.66510  0.49500  Biso   1.000  C
  C245     1.0000 0.01170  0.69569  0.50770  Biso   1.000  C
  C246     1.0000 0.96040  0.69496  0.56770  Biso   1.000  C
  C247     1.0000 0.96570  0.66370  0.61780  Biso   1.000  C
  C248     1.0000 0.02100  0.63266  0.60950  Biso   1.000  C
  C249     1.0000 0.07220  0.63380  0.54500  Biso   1.000  C
  C250     1.0000 0.90830  0.66092  0.68270  Biso   1.000  C
  C251     1.0000 0.30640  0.57780  0.32160  Biso   1.000  C
  C252     1.0000 0.31680  0.53874  0.27910  Biso   1.000  C
  C253     1.0000 0.32290  0.50580  0.32780  Biso   1.000  C
  C254     1.0000 0.31720  0.53361  0.20030  Biso   1.000  C
  C255     1.0000 0.35280  0.70252  0.34060  Biso   1.000  C
  C256     1.0000 0.46530  0.73872  0.40590  Biso   1.000  C
  C257     1.0000 0.42830  0.72713  0.34030  Biso   1.000  C
  C258     1.0000 0.46560  0.73920  0.27380  Biso   1.000  C
  C259     1.0000 0.14520  0.21736  0.29550  Biso   1.000  C
  C260     1.0000 0.18370  0.21769  0.36330  Biso   1.000  C
  C261     1.0000 0.22670  0.18365  0.38770  Biso   1.000  C
  C262     1.0000 0.23060  0.14920  0.34140  Biso   1.000  C
  C263     1.0000 0.19110  0.14880  0.27430  Biso   1.000  C
  C264     1.0000 0.09630  0.18464  0.17900  Biso   1.000  C
  C265     1.0000 0.13380  0.16269  0.11540  Biso   1.000  C
  C266     1.0000 0.10520  0.12453  0.09700  Biso   1.000  C
  C267     1.0000 0.13290  0.10605  0.03290  Biso   1.000  C
  C268     1.0000 0.19020  0.12580  0.98420  Biso   1.000  C
  C269     1.0000 0.21910  0.16415  0.00950  Biso   1.000  C
  C270     1.0000 0.19100  0.18180  0.07180  Biso   1.000  C
  C271     1.0000 0.22580  0.22434  0.09890  Biso   1.000  C
  C272     1.0000 0.04250  0.10363  0.14370  Biso   1.000  C
  C273     1.0000 0.22370  0.10635  0.91380  Biso   1.000  C
  C274     1.0000 0.27750  0.18725  0.95810  Biso   1.000  C
  C275     1.0000 0.40290  0.17560  0.89500  Biso   1.000  C
  C276     1.0000 0.48420  0.16310  0.89730  Biso   1.000  C
  C277     1.0000 0.51780  0.14600  0.95810  Biso   1.000  C
  C278     1.0000 0.47550  0.14050  0.01600  Biso   1.000  C
  C279     1.0000 0.39570  0.15590  0.02420  Biso   1.000  C
  C280     1.0000 0.09350  0.06723  0.99780  Biso   1.000  C
  C281     1.0000 0.20140  0.02710  0.06670  Biso   1.000  C
  C282     1.0000 0.24280  0.99256  0.07830  Biso   1.000  C
  C283     1.0000 0.22890  0.95681  0.03400  Biso   1.000  C
  C284     1.0000 0.17150  0.96100  0.97690  Biso   1.000  C
  C285     1.0000 0.13050  0.99851  0.96650  Biso   1.000  C
  C286     1.0000 0.88180  0.16621  0.07350  Biso   1.000  C
  C287     1.0000 0.93360  0.16510  0.00500  Biso   1.000  C
  C288     1.0000 0.98830  0.19569  0.99230  Biso   1.000  C
  C289     1.0000 0.03960  0.19496  0.93230  Biso   1.000  C
  C290     1.0000 0.03430  0.16370  0.88220  Biso   1.000  C
  C291     1.0000 0.97900  0.13266  0.89050  Biso   1.000  C
  C292     1.0000 0.92780  0.13380  0.95500  Biso   1.000  C
  C293     1.0000 0.09170  0.16092  0.81730  Biso   1.000  C
  C294     1.0000 0.69360  0.07780  0.17840  Biso   1.000  C
  C295     1.0000 0.68320  0.03874  0.22090  Biso   1.000  C
  C296     1.0000 0.67710  0.00580  0.17220  Biso   1.000  C
  C297     1.0000 0.68280  0.03361  0.29970  Biso   1.000  C
  C298     1.0000 0.64720  0.20252  0.15940  Biso   1.000  C
  C299     1.0000 0.53470  0.23872  0.09410  Biso   1.000  C
  C300     1.0000 0.57170  0.22713  0.15970  Biso   1.000  C
  C301     1.0000 0.53440  0.23920  0.22620  Biso   1.000  C
  C302     1.0000 0.85480  0.28264  0.29550  Biso   1.000  C
  C303     1.0000 0.81630  0.28231  0.36330  Biso   1.000  C
  C304     1.0000 0.77330  0.31635  0.38770  Biso   1.000  C
  C305     1.0000 0.76940  0.35080  0.34140  Biso   1.000  C
  C306     1.0000 0.80890  0.35120  0.27430  Biso   1.000  C
  C307     1.0000 0.90370  0.31536  0.17900  Biso   1.000  C
  C308     1.0000 0.86620  0.33731  0.11540  Biso   1.000  C
  C309     1.0000 0.89480  0.37547  0.09700  Biso   1.000  C
  C310     1.0000 0.86710  0.39395  0.03290  Biso   1.000  C
  C311     1.0000 0.80980  0.37420  0.98420  Biso   1.000  C
  C312     1.0000 0.78090  0.33585  0.00950  Biso   1.000  C
  C313     1.0000 0.80900  0.31820  0.07180  Biso   1.000  C
  C314     1.0000 0.77420  0.27566  0.09890  Biso   1.000  C
  C315     1.0000 0.95750  0.39637  0.14370  Biso   1.000  C
  C316     1.0000 0.77630  0.39365  0.91380  Biso   1.000  C
  C317     1.0000 0.72250  0.31275  0.95810  Biso   1.000  C
  C318     1.0000 0.59710  0.32440  0.89500  Biso   1.000  C
  C319     1.0000 0.51580  0.33690  0.89730  Biso   1.000  C
  C320     1.0000 0.48220  0.35400  0.95810  Biso   1.000  C
  C321     1.0000 0.52450  0.35950  0.01600  Biso   1.000  C
  C322     1.0000 0.60430  0.34410  0.02420  Biso   1.000  C
  C323     1.0000 0.90650  0.43277  0.99780  Biso   1.000  C
  C324     1.0000 0.79860  0.47290  0.06670  Biso   1.000  C
  C325     1.0000 0.75720  0.50744  0.07830  Biso   1.000  C
  C326     1.0000 0.77110  0.54319  0.03400  Biso   1.000  C
  C327     1.0000 0.82850  0.53900  0.97690  Biso   1.000  C
  C328     1.0000 0.86950  0.50149  0.96650  Biso   1.000  C
  C329     1.0000 0.11820  0.33379  0.07350  Biso   1.000  C
  C330     1.0000 0.06640  0.33490  0.00500  Biso   1.000  C
  C331     1.0000 0.01170  0.30431  0.99230  Biso   1.000  C
  C332     1.0000 0.96040  0.30504  0.93230  Biso   1.000  C
  C333     1.0000 0.96570  0.33630  0.88220  Biso   1.000  C
  C334     1.0000 0.02100  0.36734  0.89050  Biso   1.000  C
  C335     1.0000 0.07220  0.36620  0.95500  Biso   1.000  C
  C336     1.0000 0.90830  0.33908  0.81730  Biso   1.000  C
  C337     1.0000 0.30640  0.42220  0.17840  Biso   1.000  C
  C338     1.0000 0.31680  0.46126  0.22090  Biso   1.000  C
  C339     1.0000 0.32290  0.49420  0.17220  Biso   1.000  C
  C340     1.0000 0.31720  0.46639  0.29970  Biso   1.000  C
  C341     1.0000 0.35280  0.29748  0.15940  Biso   1.000  C
  C342     1.0000 0.46530  0.26128  0.09410  Biso   1.000  C
  C343     1.0000 0.42830  0.27287  0.15970  Biso   1.000  C
  C344     1.0000 0.46560  0.26080  0.22620  Biso   1.000  C
  N1       1.0000 0.85190  0.18293  0.74990  Biso   1.000  N
  N2       1.0000 0.64190  0.17205  0.45990  Biso   1.000  N
  N3       1.0000 0.85380  0.02972  0.51020  Biso   1.000  N
  N4       1.0000 0.14810  0.31707  0.74990  Biso   1.000  N
  N5       1.0000 0.35810  0.32795  0.45990  Biso   1.000  N
  N6       1.0000 0.14620  0.47028  0.51020  Biso   1.000  N
  N7       1.0000 0.85190  0.81707  0.75010  Biso   1.000  N
  N8       1.0000 0.64190  0.82795  0.04010  Biso   1.000  N
  N9       1.0000 0.85380  0.97028  0.98980  Biso   1.000  N
  N10      1.0000 0.14810  0.68293  0.75010  Biso   1.000  N
  N11      1.0000 0.35810  0.67205  0.04010  Biso   1.000  N
  N12      1.0000 0.14620  0.52972  0.98980  Biso   1.000  N
  N13      1.0000 0.14810  0.81707  0.25010  Biso   1.000  N
  N14      1.0000 0.35810  0.82795  0.54010  Biso   1.000  N
  N15      1.0000 0.14620  0.97028  0.48980  Biso   1.000  N
  N16      1.0000 0.85190  0.68293  0.25010  Biso   1.000  N
  N17      1.0000 0.64190  0.67205  0.54010  Biso   1.000  N
  N18      1.0000 0.85380  0.52972  0.48980  Biso   1.000  N
  N19      1.0000 0.14810  0.18293  0.24990  Biso   1.000  N
  N20      1.0000 0.35810  0.17205  0.95990  Biso   1.000  N
  N21      1.0000 0.14620  0.02972  0.01020  Biso   1.000  N
  N22      1.0000 0.85190  0.31707  0.24990  Biso   1.000  N
  N23      1.0000 0.64190  0.32795  0.95990  Biso   1.000  N
  N24      1.0000 0.85380  0.47028  0.01020  Biso   1.000  N
  O1       1.0000 0.74330  0.18104  0.95380  Biso   1.000  O
  O2       1.0000 0.40980  0.12982  0.45650  Biso   1.000  O
  O3       1.0000 0.73720  0.92364  0.54350  Biso   1.000  O
  O4       1.0000 0.16710  0.13638  0.58150  Biso   1.000  O
  O5       1.0000 0.11070  0.19304  0.61960  Biso   1.000  O
  O6       1.0000 0.91390  0.13260  0.26790  Biso   1.000  O
  O7       1.0000 0.85340  0.18818  0.30900  Biso   1.000  O
  O8       1.0000 0.32670  0.08618  0.61490  Biso   1.000  O
  O9       1.0000 0.27610  0.10717  0.72560  Biso   1.000  O
  O10      1.0000 0.33430  0.18353  0.60420  Biso   1.000  O
  O11      1.0000 0.31380  0.20187  0.72020  Biso   1.000  O
  O12      1.0000 0.25670  0.31896  0.95380  Biso   1.000  O
  O13      1.0000 0.59020  0.37018  0.45650  Biso   1.000  O
  O14      1.0000 0.26280  0.57636  0.54350  Biso   1.000  O
  O15      1.0000 0.83290  0.36362  0.58150  Biso   1.000  O
  O16      1.0000 0.88930  0.30696  0.61960  Biso   1.000  O
  O17      1.0000 0.08610  0.36740  0.26790  Biso   1.000  O
  O18      1.0000 0.14660  0.31182  0.30900  Biso   1.000  O
  O19      1.0000 0.67330  0.41382  0.61490  Biso   1.000  O
  O20      1.0000 0.72390  0.39283  0.72560  Biso   1.000  O
  O21      1.0000 0.66570  0.31647  0.60420  Biso   1.000  O
  O22      1.0000 0.68620  0.29813  0.72020  Biso   1.000  O
  O23      1.0000 0.74330  0.81896  0.54620  Biso   1.000  O
  O24      1.0000 0.40980  0.87018  0.04350  Biso   1.000  O
  O25      1.0000 0.73720  0.07636  0.95650  Biso   1.000  O
  O26      1.0000 0.16710  0.86362  0.91850  Biso   1.000  O
  O27      1.0000 0.11070  0.80696  0.88040  Biso   1.000  O
  O28      1.0000 0.91390  0.86740  0.23210  Biso   1.000  O
  O29      1.0000 0.85340  0.81182  0.19100  Biso   1.000  O
  O30      1.0000 0.32670  0.91382  0.88510  Biso   1.000  O
  O31      1.0000 0.27610  0.89283  0.77440  Biso   1.000  O
  O32      1.0000 0.33430  0.81647  0.89580  Biso   1.000  O
  O33      1.0000 0.31380  0.79813  0.77980  Biso   1.000  O
  O34      1.0000 0.25670  0.68104  0.54620  Biso   1.000  O
  O35      1.0000 0.59020  0.62982  0.04350  Biso   1.000  O
  O36      1.0000 0.26280  0.42364  0.95650  Biso   1.000  O
  O37      1.0000 0.83290  0.63638  0.91850  Biso   1.000  O
  O38      1.0000 0.88930  0.69304  0.88040  Biso   1.000  O
  O39      1.0000 0.08610  0.63260  0.23210  Biso   1.000  O
  O40      1.0000 0.14660  0.68818  0.19100  Biso   1.000  O
  O41      1.0000 0.67330  0.58618  0.88510  Biso   1.000  O
  O42      1.0000 0.72390  0.60717  0.77440  Biso   1.000  O
  O43      1.0000 0.66570  0.68353  0.89580  Biso   1.000  O
  O44      1.0000 0.68620  0.70187  0.77980  Biso   1.000  O
  O45      1.0000 0.25670  0.81896  0.04620  Biso   1.000  O
  O46      1.0000 0.59020  0.87018  0.54350  Biso   1.000  O
  O47      1.0000 0.26280  0.07636  0.45650  Biso   1.000  O
  O48      1.0000 0.83290  0.86362  0.41850  Biso   1.000  O
  O49      1.0000 0.88930  0.80696  0.38040  Biso   1.000  O
  O50      1.0000 0.08610  0.86740  0.73210  Biso   1.000  O
  O51      1.0000 0.14660  0.81182  0.69100  Biso   1.000  O
  O52      1.0000 0.67330  0.91382  0.38510  Biso   1.000  O
  O53      1.0000 0.72390  0.89283  0.27440  Biso   1.000  O
  O54      1.0000 0.66570  0.81647  0.39580  Biso   1.000  O
  O55      1.0000 0.68620  0.79813  0.27980  Biso   1.000  O
  O56      1.0000 0.74330  0.68104  0.04620  Biso   1.000  O
  O57      1.0000 0.40980  0.62982  0.54350  Biso   1.000  O
  O58      1.0000 0.73720  0.42364  0.45650  Biso   1.000  O
  O59      1.0000 0.16710  0.63638  0.41850  Biso   1.000  O
  O60      1.0000 0.11070  0.69304  0.38040  Biso   1.000  O
  O61      1.0000 0.91390  0.63260  0.73210  Biso   1.000  O
  O62      1.0000 0.85340  0.68818  0.69100  Biso   1.000  O
  O63      1.0000 0.32670  0.58618  0.38510  Biso   1.000  O
  O64      1.0000 0.27610  0.60717  0.27440  Biso   1.000  O
  O65      1.0000 0.33430  0.68353  0.39580  Biso   1.000  O
  O66      1.0000 0.31380  0.70187  0.27980  Biso   1.000  O
  O67      1.0000 0.25670  0.18104  0.45380  Biso   1.000  O
  O68      1.0000 0.59020  0.12982  0.95650  Biso   1.000  O
  O69      1.0000 0.26280  0.92364  0.04350  Biso   1.000  O
  O70      1.0000 0.83290  0.13638  0.08150  Biso   1.000  O
  O71      1.0000 0.88930  0.19304  0.11960  Biso   1.000  O
  O72      1.0000 0.08610  0.13260  0.76790  Biso   1.000  O
  O73      1.0000 0.14660  0.18818  0.80900  Biso   1.000  O
  O74      1.0000 0.67330  0.08618  0.11490  Biso   1.000  O
  O75      1.0000 0.72390  0.10717  0.22560  Biso   1.000  O
  O76      1.0000 0.66570  0.18353  0.10420  Biso   1.000  O
  O77      1.0000 0.68620  0.20187  0.22020  Biso   1.000  O
  O78      1.0000 0.74330  0.31896  0.45380  Biso   1.000  O
  O79      1.0000 0.40980  0.37018  0.95650  Biso   1.000  O
  O80      1.0000 0.73720  0.57636  0.04350  Biso   1.000  O
  O81      1.0000 0.16710  0.36362  0.08150  Biso   1.000  O
  O82      1.0000 0.11070  0.30696  0.11960  Biso   1.000  O
  O83      1.0000 0.91390  0.36740  0.76790  Biso   1.000  O
  O84      1.0000 0.85340  0.31182  0.80900  Biso   1.000  O
  O85      1.0000 0.32670  0.41382  0.11490  Biso   1.000  O
  O86      1.0000 0.27610  0.39283  0.22560  Biso   1.000  O
  O87      1.0000 0.33430  0.31647  0.10420  Biso   1.000  O
  O88      1.0000 0.31380  0.29813  0.22020  Biso   1.000  O
