data_image0
_cell_length_a       25.122
_cell_length_b       25.122
_cell_length_c       23.412
_cell_angle_alpha    90
_cell_angle_beta     90
_cell_angle_gamma    90

_symmetry_space_group_name_H-M    "P 1"
_symmetry_int_tables_number       1

loop_
  _symmetry_equiv_pos_as_xyz
  'x, y, z'

loop_
  _atom_site_label
  _atom_site_occupancy
  _atom_site_fract_x
  _atom_site_fract_y
  _atom_site_fract_z
  _atom_site_thermal_displace_type
  _atom_site_B_iso_or_equiv
  _atom_site_type_symbol
  C1       1.0000 0.59800  0.15000  0.12000  Biso   1.000  C
  C2       1.0000 0.61000  0.19800  0.15400  Biso   1.000  C
  C3       1.0000 0.57800  0.22400  0.18500  Biso   1.000  C
  H1       1.0000 0.54400  0.20980  0.19000  Biso   1.000  H
  C4       1.0000 0.73460  0.46580  0.17630  Biso   1.000  C
  H2       1.0000 0.70610  0.46680  0.14840  Biso   1.000  H
  H3       1.0000 0.75570  0.43390  0.17090  Biso   1.000  H
  C5       1.0000 0.77020  0.51880  0.17490  Biso   1.000  C
  H4       1.0000 0.78430  0.52800  0.21220  Biso   1.000  H
  H5       1.0000 0.79880  0.51680  0.14720  Biso   1.000  H
  C6       1.0000 0.75100  0.60100  0.14300  Biso   1.000  C
  H6       1.0000 0.74900  0.60410  0.10210  Biso   1.000  H
  H7       1.0000 0.78890  0.59920  0.15260  Biso   1.000  H
  C7       1.0000 0.73200  0.65000  0.16600  Biso   1.000  C
  H8       1.0000 0.69650  0.65510  0.15190  Biso   1.000  H
  H9       1.0000 0.75430  0.67810  0.15100  Biso   1.000  H
  C8       1.0000 0.70400  0.65500  0.40100  Biso   1.000  C
  H10      1.0000 0.66620  0.65090  0.41010  Biso   1.000  H
  H11      1.0000 0.71560  0.68970  0.41480  Biso   1.000  H
  C9       1.0000 0.74000  0.60700  0.42700  Biso   1.000  C
  H12      1.0000 0.77390  0.60360  0.40770  Biso   1.000  H
  H13      1.0000 0.74520  0.61010  0.46770  Biso   1.000  H
  C10      1.0000 0.73000  0.51400  0.42400  Biso   1.000  C
  H14      1.0000 0.73580  0.51090  0.46470  Biso   1.000  H
  H15      1.0000 0.76480  0.51530  0.40510  Biso   1.000  H
  C11      1.0000 0.69900  0.47100  0.40200  Biso   1.000  C
  H16      1.0000 0.71170  0.43720  0.41700  Biso   1.000  H
  H17      1.0000 0.66170  0.47500  0.41390  Biso   1.000  H
  C12      1.0000 0.64500  0.82400  0.20700  Biso   1.000  C
  C13      1.0000 0.59400  0.83000  0.19200  Biso   1.000  C
  H18      1.0000 0.56820  0.80610  0.20520  Biso   1.000  H
  C14      1.0000 0.58000  0.87400  0.15600  Biso   1.000  C
  H19      1.0000 0.54540  0.87740  0.14320  Biso   1.000  H
  C15      1.0000 0.61500  0.91000  0.14000  Biso   1.000  C
  C16      1.0000 0.66400  0.90700  0.15800  Biso   1.000  C
  H20      1.0000 0.68680  0.93440  0.14930  Biso   1.000  H
  C17      1.0000 0.68500  0.86200  0.19200  Biso   1.000  C
  H21      1.0000 0.72040  0.85860  0.20190  Biso   1.000  H
  C18      1.0000 0.59900  0.95900  0.10600  Biso   1.000  C
  C19      1.0000 0.49940  0.19250  0.01170  Biso   1.000  C
  H22      1.0000 0.51890  0.18420  0.04430  Biso   1.000  H
  C20      1.0000 0.44010  0.23830  0.06910  Biso   1.000  C
  H23      1.0000 0.41760  0.26900  0.07210  Biso   1.000  H
  H24      1.0000 0.46660  0.23940  0.09870  Biso   1.000  H
  H25      1.0000 0.41910  0.20670  0.07310  Biso   1.000  H
  C21      1.0000 0.43650  0.25820  0.96060  Biso   1.000  C
  H26      1.0000 0.46020  0.25550  0.92850  Biso   1.000  H
  H27      1.0000 0.42610  0.29470  0.96570  Biso   1.000  H
  H28      1.0000 0.40550  0.23680  0.95380  Biso   1.000  H
  C22      1.0000 0.55100  0.09900  0.83100  Biso   1.000  C
  H29      1.0000 0.58710  0.10330  0.84000  Biso   1.000  H
  C23      1.0000 0.48540  0.09370  0.76020  Biso   1.000  C
  H30      1.0000 0.48030  0.08010  0.72230  Biso   1.000  H
  H31      1.0000 0.47880  0.13130  0.76050  Biso   1.000  H
  H32      1.0000 0.46120  0.07640  0.78590  Biso   1.000  H
  C24      1.0000 0.57300  0.07000  0.73100  Biso   1.000  C
  H33      1.0000 0.55190  0.05870  0.69910  Biso   1.000  H
  H34      1.0000 0.59600  0.04090  0.74240  Biso   1.000  H
  H35      1.0000 0.59430  0.09990  0.72050  Biso   1.000  H
  N1       1.0000 0.46540  0.23820  0.01530  Biso   1.000  N
  N2       1.0000 0.53900  0.08400  0.77800  Biso   1.000  N
  O1       1.0000 0.63400  0.12200  0.10000  Biso   1.000  O
  O2       1.0000 0.54800  0.13800  0.11800  Biso   1.000  O
  O3       1.0000 0.71600  0.47000  0.23100  Biso   1.000  O
  O4       1.0000 0.72900  0.55300  0.15800  Biso   1.000  O
  O5       1.0000 0.73100  0.65400  0.22600  Biso   1.000  O
  O6       1.0000 0.71200  0.65100  0.34200  Biso   1.000  O
  O7       1.0000 0.70200  0.56000  0.41200  Biso   1.000  O
  O8       1.0000 0.70300  0.47200  0.34100  Biso   1.000  O
  O9       1.0000 0.56300  0.16600  0.49000  Biso   1.000  O
  O10      1.0000 0.62100  0.11600  0.44400  Biso   1.000  O
  O11      1.0000 0.54560  0.96000  0.46500  Biso   1.000  O
  O12      1.0000 0.47700  0.92700  0.42200  Biso   1.000  O
  O13      1.0000 0.63300  0.99100  0.09200  Biso   1.000  O
  O14      1.0000 0.54900  0.96200  0.09340  Biso   1.000  O
  O15      1.0000 0.50540  0.16430  0.97190  Biso   1.000  O
  O16      1.0000 0.51700  0.10600  0.86800  Biso   1.000  O
  C25      1.0000 0.66100  0.22000  0.15200  Biso   1.000  C
  H36      1.0000 0.68820  0.20190  0.13190  Biso   1.000  H
  C26      1.0000 0.67200  0.26800  0.17900  Biso   1.000  C
  H37      1.0000 0.70400  0.28420  0.17180  Biso   1.000  H
  C27      1.0000 0.64000  0.29100  0.21300  Biso   1.000  C
  C28      1.0000 0.59100  0.27300  0.21400  Biso   1.000  C
  H38      1.0000 0.56430  0.29140  0.23350  Biso   1.000  H
  C29      1.0000 0.65600  0.33800  0.24800  Biso   1.000  C
  C30      1.0000 0.67800  0.38200  0.22400  Biso   1.000  C
  H39      1.0000 0.68440  0.38170  0.18510  Biso   1.000  H
  C31      1.0000 0.69200  0.42500  0.25200  Biso   1.000  C
  C32      1.0000 0.68500  0.42500  0.31300  Biso   1.000  C
  C33      1.0000 0.66100  0.38500  0.34100  Biso   1.000  C
  H40      1.0000 0.65410  0.38770  0.37970  Biso   1.000  H
  C34      1.0000 0.64500  0.33800  0.30900  Biso   1.000  C
  C35      1.0000 0.63300  0.29100  0.34200  Biso   1.000  C
  C36      1.0000 0.59200  0.29300  0.38100  Biso   1.000  C
  H41      1.0000 0.57120  0.32290  0.38490  Biso   1.000  H
  C37      1.0000 0.58300  0.24900  0.41300  Biso   1.000  C
  H42      1.0000 0.55600  0.25100  0.44060  Biso   1.000  H
  C38      1.0000 0.60700  0.20500  0.41000  Biso   1.000  C
  C39      1.0000 0.64500  0.20100  0.37100  Biso   1.000  C
  H43      1.0000 0.66380  0.16960  0.36740  Biso   1.000  H
  C40      1.0000 0.65800  0.24400  0.33500  Biso   1.000  C
  H44      1.0000 0.68370  0.23900  0.30670  Biso   1.000  H
  C41      1.0000 0.59600  0.15700  0.45000  Biso   1.000  C
  C42      1.0000 0.69600  0.69100  0.31200  Biso   1.000  C
  C43      1.0000 0.70500  0.69300  0.25100  Biso   1.000  C
  C44      1.0000 0.68600  0.73300  0.22200  Biso   1.000  C
  H45      1.0000 0.68750  0.72970  0.18280  Biso   1.000  H
  C45      1.0000 0.66200  0.78100  0.24400  Biso   1.000  C
  C46      1.0000 0.65100  0.77800  0.30300  Biso   1.000  C
  C47      1.0000 0.66700  0.73500  0.33700  Biso   1.000  C
  H46      1.0000 0.65880  0.73480  0.37530  Biso   1.000  H
  C48      1.0000 0.61800  0.82000  0.33000  Biso   1.000  C
  C49      1.0000 0.56700  0.81700  0.32900  Biso   1.000  C
  H47      1.0000 0.55060  0.79260  0.30580  Biso   1.000  H
  C50      1.0000 0.53500  0.85200  0.36400  Biso   1.000  C
  H48      1.0000 0.49870  0.84660  0.36640  Biso   1.000  H
  C51      1.0000 0.56000  0.89400  0.39500  Biso   1.000  C
  C52      1.0000 0.61400  0.89700  0.39600  Biso   1.000  C
  H49      1.0000 0.63280  0.91910  0.42050  Biso   1.000  H
  C53      1.0000 0.64100  0.86100  0.35600  Biso   1.000  C
  H50      1.0000 0.67650  0.86830  0.34690  Biso   1.000  H
  C54      1.0000 0.52600  0.92900  0.42900  Biso   1.000  C
  O17      1.0000 0.54600  0.06500  0.03300  Biso   1.000  O
  Zn1      1.0000 0.53750  0.09300  0.95150  Biso   1.000  Zn
  Zn2      1.0000 0.61930  0.05820  0.05450  Biso   1.000  Zn
  C55      1.0000 0.40200  0.85000  0.12000  Biso   1.000  C
  C56      1.0000 0.39000  0.80200  0.15400  Biso   1.000  C
  C57      1.0000 0.42200  0.77600  0.18500  Biso   1.000  C
  H51      1.0000 0.45600  0.79020  0.19000  Biso   1.000  H
  C58      1.0000 0.26540  0.53420  0.17630  Biso   1.000  C
  H52      1.0000 0.29390  0.53320  0.14840  Biso   1.000  H
  H53      1.0000 0.24430  0.56610  0.17090  Biso   1.000  H
  C59      1.0000 0.22980  0.48120  0.17490  Biso   1.000  C
  H54      1.0000 0.21570  0.47200  0.21220  Biso   1.000  H
  H55      1.0000 0.20120  0.48320  0.14720  Biso   1.000  H
  C60      1.0000 0.24900  0.39900  0.14300  Biso   1.000  C
  H56      1.0000 0.25100  0.39590  0.10210  Biso   1.000  H
  H57      1.0000 0.21110  0.40080  0.15260  Biso   1.000  H
  C61      1.0000 0.26800  0.35000  0.16600  Biso   1.000  C
  H58      1.0000 0.30350  0.34490  0.15190  Biso   1.000  H
  H59      1.0000 0.24570  0.32190  0.15100  Biso   1.000  H
  C62      1.0000 0.29600  0.34500  0.40100  Biso   1.000  C
  H60      1.0000 0.33380  0.34910  0.41010  Biso   1.000  H
  H61      1.0000 0.28440  0.31030  0.41480  Biso   1.000  H
  C63      1.0000 0.26000  0.39300  0.42700  Biso   1.000  C
  H62      1.0000 0.22610  0.39640  0.40770  Biso   1.000  H
  H63      1.0000 0.25480  0.38990  0.46770  Biso   1.000  H
  C64      1.0000 0.27000  0.48600  0.42400  Biso   1.000  C
  H64      1.0000 0.26420  0.48910  0.46470  Biso   1.000  H
  H65      1.0000 0.23520  0.48470  0.40510  Biso   1.000  H
  C65      1.0000 0.30100  0.52900  0.40200  Biso   1.000  C
  H66      1.0000 0.28830  0.56280  0.41700  Biso   1.000  H
  H67      1.0000 0.33830  0.52500  0.41390  Biso   1.000  H
  C66      1.0000 0.35500  0.17600  0.20700  Biso   1.000  C
  C67      1.0000 0.40600  0.17000  0.19200  Biso   1.000  C
  H68      1.0000 0.43180  0.19390  0.20520  Biso   1.000  H
  C68      1.0000 0.42000  0.12600  0.15600  Biso   1.000  C
  H69      1.0000 0.45460  0.12260  0.14320  Biso   1.000  H
  C69      1.0000 0.38500  0.09000  0.14000  Biso   1.000  C
  C70      1.0000 0.33600  0.09300  0.15800  Biso   1.000  C
  H70      1.0000 0.31320  0.06560  0.14930  Biso   1.000  H
  C71      1.0000 0.31500  0.13800  0.19200  Biso   1.000  C
  H71      1.0000 0.27960  0.14140  0.20190  Biso   1.000  H
  C72      1.0000 0.40100  0.04100  0.10600  Biso   1.000  C
  C73      1.0000 0.50060  0.80750  0.01170  Biso   1.000  C
  H72      1.0000 0.48110  0.81580  0.04430  Biso   1.000  H
  C74      1.0000 0.55990  0.76170  0.06910  Biso   1.000  C
  H73      1.0000 0.58240  0.73100  0.07210  Biso   1.000  H
  H74      1.0000 0.53340  0.76060  0.09870  Biso   1.000  H
  H75      1.0000 0.58090  0.79330  0.07310  Biso   1.000  H
  C75      1.0000 0.56350  0.74180  0.96060  Biso   1.000  C
  H76      1.0000 0.53980  0.74450  0.92850  Biso   1.000  H
  H77      1.0000 0.57390  0.70530  0.96570  Biso   1.000  H
  H78      1.0000 0.59450  0.76320  0.95380  Biso   1.000  H
  C76      1.0000 0.44900  0.90100  0.83100  Biso   1.000  C
  H79      1.0000 0.41290  0.89670  0.84000  Biso   1.000  H
  C77      1.0000 0.51460  0.90630  0.76020  Biso   1.000  C
  H80      1.0000 0.51970  0.91990  0.72230  Biso   1.000  H
  H81      1.0000 0.52120  0.86870  0.76050  Biso   1.000  H
  H82      1.0000 0.53880  0.92360  0.78590  Biso   1.000  H
  C78      1.0000 0.42700  0.93000  0.73100  Biso   1.000  C
  H83      1.0000 0.44810  0.94130  0.69910  Biso   1.000  H
  H84      1.0000 0.40400  0.95910  0.74240  Biso   1.000  H
  H85      1.0000 0.40570  0.90010  0.72050  Biso   1.000  H
  N3       1.0000 0.53460  0.76180  0.01530  Biso   1.000  N
  N4       1.0000 0.46100  0.91600  0.77800  Biso   1.000  N
  O18      1.0000 0.36600  0.87800  0.10000  Biso   1.000  O
  O19      1.0000 0.45200  0.86200  0.11800  Biso   1.000  O
  O20      1.0000 0.28400  0.53000  0.23100  Biso   1.000  O
  O21      1.0000 0.27100  0.44700  0.15800  Biso   1.000  O
  O22      1.0000 0.26900  0.34600  0.22600  Biso   1.000  O
  O23      1.0000 0.28800  0.34900  0.34200  Biso   1.000  O
  O24      1.0000 0.29800  0.44000  0.41200  Biso   1.000  O
  O25      1.0000 0.29700  0.52800  0.34100  Biso   1.000  O
  O26      1.0000 0.43700  0.83400  0.49000  Biso   1.000  O
  O27      1.0000 0.37900  0.88400  0.44400  Biso   1.000  O
  O28      1.0000 0.45440  0.04000  0.46500  Biso   1.000  O
  O29      1.0000 0.52300  0.07300  0.42200  Biso   1.000  O
  O30      1.0000 0.36700  0.00900  0.09200  Biso   1.000  O
  O31      1.0000 0.45100  0.03800  0.09340  Biso   1.000  O
  O32      1.0000 0.49460  0.83570  0.97190  Biso   1.000  O
  O33      1.0000 0.48300  0.89400  0.86800  Biso   1.000  O
  C79      1.0000 0.33900  0.78000  0.15200  Biso   1.000  C
  H86      1.0000 0.31180  0.79810  0.13190  Biso   1.000  H
  C80      1.0000 0.32800  0.73200  0.17900  Biso   1.000  C
  H87      1.0000 0.29600  0.71580  0.17180  Biso   1.000  H
  C81      1.0000 0.36000  0.70900  0.21300  Biso   1.000  C
  C82      1.0000 0.40900  0.72700  0.21400  Biso   1.000  C
  H88      1.0000 0.43570  0.70860  0.23350  Biso   1.000  H
  C83      1.0000 0.34400  0.66200  0.24800  Biso   1.000  C
  C84      1.0000 0.32200  0.61800  0.22400  Biso   1.000  C
  H89      1.0000 0.31560  0.61830  0.18510  Biso   1.000  H
  C85      1.0000 0.30800  0.57500  0.25200  Biso   1.000  C
  C86      1.0000 0.31500  0.57500  0.31300  Biso   1.000  C
  C87      1.0000 0.33900  0.61500  0.34100  Biso   1.000  C
  H90      1.0000 0.34590  0.61230  0.37970  Biso   1.000  H
  C88      1.0000 0.35500  0.66200  0.30900  Biso   1.000  C
  C89      1.0000 0.36700  0.70900  0.34200  Biso   1.000  C
  C90      1.0000 0.40800  0.70700  0.38100  Biso   1.000  C
  H91      1.0000 0.42880  0.67710  0.38490  Biso   1.000  H
  C91      1.0000 0.41700  0.75100  0.41300  Biso   1.000  C
  H92      1.0000 0.44400  0.74900  0.44060  Biso   1.000  H
  C92      1.0000 0.39300  0.79500  0.41000  Biso   1.000  C
  C93      1.0000 0.35500  0.79900  0.37100  Biso   1.000  C
  H93      1.0000 0.33620  0.83040  0.36740  Biso   1.000  H
  C94      1.0000 0.34200  0.75600  0.33500  Biso   1.000  C
  H94      1.0000 0.31630  0.76100  0.30670  Biso   1.000  H
  C95      1.0000 0.40400  0.84300  0.45000  Biso   1.000  C
  C96      1.0000 0.30400  0.30900  0.31200  Biso   1.000  C
  C97      1.0000 0.29500  0.30700  0.25100  Biso   1.000  C
  C98      1.0000 0.31400  0.26700  0.22200  Biso   1.000  C
  H95      1.0000 0.31250  0.27030  0.18280  Biso   1.000  H
  C99      1.0000 0.33800  0.21900  0.24400  Biso   1.000  C
  C100     1.0000 0.34900  0.22200  0.30300  Biso   1.000  C
  C101     1.0000 0.33300  0.26500  0.33700  Biso   1.000  C
  H96      1.0000 0.34120  0.26520  0.37530  Biso   1.000  H
  C102     1.0000 0.38200  0.18000  0.33000  Biso   1.000  C
  C103     1.0000 0.43300  0.18300  0.32900  Biso   1.000  C
  H97      1.0000 0.44940  0.20740  0.30580  Biso   1.000  H
  C104     1.0000 0.46500  0.14800  0.36400  Biso   1.000  C
  H98      1.0000 0.50130  0.15340  0.36640  Biso   1.000  H
  C105     1.0000 0.44000  0.10600  0.39500  Biso   1.000  C
  C106     1.0000 0.38600  0.10300  0.39600  Biso   1.000  C
  H99      1.0000 0.36720  0.08090  0.42050  Biso   1.000  H
  C107     1.0000 0.35900  0.13900  0.35600  Biso   1.000  C
  H100     1.0000 0.32350  0.13170  0.34690  Biso   1.000  H
  C108     1.0000 0.47400  0.07100  0.42900  Biso   1.000  C
  O34      1.0000 0.45400  0.93500  0.03300  Biso   1.000  O
  Zn3      1.0000 0.46250  0.90700  0.95150  Biso   1.000  Zn
  Zn4      1.0000 0.38070  0.94180  0.05450  Biso   1.000  Zn
  C109     1.0000 0.35000  0.90200  0.62000  Biso   1.000  C
  C110     1.0000 0.30200  0.89000  0.65400  Biso   1.000  C
  C111     1.0000 0.27600  0.92200  0.68500  Biso   1.000  C
  H101     1.0000 0.29020  0.95600  0.69000  Biso   1.000  H
  C112     1.0000 0.03420  0.76540  0.67630  Biso   1.000  C
  H102     1.0000 0.03320  0.79390  0.64840  Biso   1.000  H
  H103     1.0000 0.06610  0.74430  0.67090  Biso   1.000  H
  C113     1.0000 0.98120  0.72980  0.67490  Biso   1.000  C
  H104     1.0000 0.97200  0.71570  0.71220  Biso   1.000  H
  H105     1.0000 0.98320  0.70120  0.64720  Biso   1.000  H
  C114     1.0000 0.89900  0.74900  0.64300  Biso   1.000  C
  H106     1.0000 0.89590  0.75100  0.60210  Biso   1.000  H
  H107     1.0000 0.90080  0.71110  0.65260  Biso   1.000  H
  C115     1.0000 0.85000  0.76800  0.66600  Biso   1.000  C
  H108     1.0000 0.84490  0.80350  0.65190  Biso   1.000  H
  H109     1.0000 0.82190  0.74570  0.65100  Biso   1.000  H
  C116     1.0000 0.84500  0.79600  0.90100  Biso   1.000  C
  H110     1.0000 0.84910  0.83380  0.91010  Biso   1.000  H
  H111     1.0000 0.81030  0.78440  0.91480  Biso   1.000  H
  C117     1.0000 0.89300  0.76000  0.92700  Biso   1.000  C
  H112     1.0000 0.89640  0.72610  0.90770  Biso   1.000  H
  H113     1.0000 0.88990  0.75480  0.96770  Biso   1.000  H
  C118     1.0000 0.98600  0.77000  0.92400  Biso   1.000  C
  H114     1.0000 0.98910  0.76420  0.96470  Biso   1.000  H
  H115     1.0000 0.98470  0.73520  0.90510  Biso   1.000  H
  C119     1.0000 0.02900  0.80100  0.90200  Biso   1.000  C
  H116     1.0000 0.06280  0.78830  0.91700  Biso   1.000  H
  H117     1.0000 0.02500  0.83830  0.91390  Biso   1.000  H
  C120     1.0000 0.67600  0.85500  0.70700  Biso   1.000  C
  C121     1.0000 0.67000  0.90600  0.69200  Biso   1.000  C
  H118     1.0000 0.69390  0.93180  0.70520  Biso   1.000  H
  C122     1.0000 0.62600  0.92000  0.65600  Biso   1.000  C
  H119     1.0000 0.62260  0.95460  0.64320  Biso   1.000  H
  C123     1.0000 0.59000  0.88500  0.64000  Biso   1.000  C
  C124     1.0000 0.59300  0.83600  0.65800  Biso   1.000  C
  H120     1.0000 0.56560  0.81320  0.64930  Biso   1.000  H
  C125     1.0000 0.63800  0.81500  0.69200  Biso   1.000  C
  H121     1.0000 0.64140  0.77960  0.70190  Biso   1.000  H
  C126     1.0000 0.54100  0.90100  0.60600  Biso   1.000  C
  C127     1.0000 0.30750  0.00060  0.51170  Biso   1.000  C
  H122     1.0000 0.31580  0.98110  0.54430  Biso   1.000  H
  C128     1.0000 0.26170  0.05990  0.56910  Biso   1.000  C
  H123     1.0000 0.23100  0.08240  0.57210  Biso   1.000  H
  H124     1.0000 0.26060  0.03340  0.59870  Biso   1.000  H
  H125     1.0000 0.29330  0.08090  0.57310  Biso   1.000  H
  C129     1.0000 0.24180  0.06350  0.46060  Biso   1.000  C
  H126     1.0000 0.24450  0.03980  0.42850  Biso   1.000  H
  H127     1.0000 0.20530  0.07390  0.46570  Biso   1.000  H
  H128     1.0000 0.26320  0.09450  0.45380  Biso   1.000  H
  C130     1.0000 0.40100  0.94900  0.33100  Biso   1.000  C
  H129     1.0000 0.39670  0.91290  0.34000  Biso   1.000  H
  C131     1.0000 0.40630  0.01460  0.26020  Biso   1.000  C
  H130     1.0000 0.41990  0.01970  0.22230  Biso   1.000  H
  H131     1.0000 0.36870  0.02120  0.26050  Biso   1.000  H
  H132     1.0000 0.42360  0.03880  0.28590  Biso   1.000  H
  C132     1.0000 0.43000  0.92700  0.23100  Biso   1.000  C
  H133     1.0000 0.44130  0.94810  0.19910  Biso   1.000  H
  H134     1.0000 0.45910  0.90400  0.24240  Biso   1.000  H
  H135     1.0000 0.40010  0.90570  0.22050  Biso   1.000  H
  N5       1.0000 0.26180  0.03460  0.51530  Biso   1.000  N
  N6       1.0000 0.41600  0.96100  0.27800  Biso   1.000  N
  O35      1.0000 0.37800  0.86600  0.60000  Biso   1.000  O
  O36      1.0000 0.36200  0.95200  0.61800  Biso   1.000  O
  O37      1.0000 0.03000  0.78400  0.73100  Biso   1.000  O
  O38      1.0000 0.94700  0.77100  0.65800  Biso   1.000  O
  O39      1.0000 0.84600  0.76900  0.72600  Biso   1.000  O
  O40      1.0000 0.84900  0.78800  0.84200  Biso   1.000  O
  O41      1.0000 0.94000  0.79800  0.91200  Biso   1.000  O
  O42      1.0000 0.02800  0.79700  0.84100  Biso   1.000  O
  O43      1.0000 0.33400  0.93700  0.99000  Biso   1.000  O
  O44      1.0000 0.38400  0.87900  0.94400  Biso   1.000  O
  O45      1.0000 0.54000  0.95440  0.96500  Biso   1.000  O
  O46      1.0000 0.57300  0.02300  0.92200  Biso   1.000  O
  O47      1.0000 0.50900  0.86700  0.59200  Biso   1.000  O
  O48      1.0000 0.53800  0.95100  0.59340  Biso   1.000  O
  O49      1.0000 0.33570  0.99460  0.47190  Biso   1.000  O
  O50      1.0000 0.39400  0.98300  0.36800  Biso   1.000  O
  C133     1.0000 0.28000  0.83900  0.65200  Biso   1.000  C
  H136     1.0000 0.29810  0.81180  0.63190  Biso   1.000  H
  C134     1.0000 0.23200  0.82800  0.67900  Biso   1.000  C
  H137     1.0000 0.21580  0.79600  0.67180  Biso   1.000  H
  C135     1.0000 0.20900  0.86000  0.71300  Biso   1.000  C
  C136     1.0000 0.22700  0.90900  0.71400  Biso   1.000  C
  H138     1.0000 0.20860  0.93570  0.73350  Biso   1.000  H
  C137     1.0000 0.16200  0.84400  0.74800  Biso   1.000  C
  C138     1.0000 0.11800  0.82200  0.72400  Biso   1.000  C
  H139     1.0000 0.11830  0.81560  0.68510  Biso   1.000  H
  C139     1.0000 0.07500  0.80800  0.75200  Biso   1.000  C
  C140     1.0000 0.07500  0.81500  0.81300  Biso   1.000  C
  C141     1.0000 0.11500  0.83900  0.84100  Biso   1.000  C
  H140     1.0000 0.11230  0.84590  0.87970  Biso   1.000  H
  C142     1.0000 0.16200  0.85500  0.80900  Biso   1.000  C
  C143     1.0000 0.20900  0.86700  0.84200  Biso   1.000  C
  C144     1.0000 0.20700  0.90800  0.88100  Biso   1.000  C
  H141     1.0000 0.17710  0.92880  0.88490  Biso   1.000  H
  C145     1.0000 0.25100  0.91700  0.91300  Biso   1.000  C
  H142     1.0000 0.24900  0.94400  0.94060  Biso   1.000  H
  C146     1.0000 0.29500  0.89300  0.91000  Biso   1.000  C
  C147     1.0000 0.29900  0.85500  0.87100  Biso   1.000  C
  H143     1.0000 0.33040  0.83620  0.86740  Biso   1.000  H
  C148     1.0000 0.25600  0.84200  0.83500  Biso   1.000  C
  H144     1.0000 0.26100  0.81630  0.80670  Biso   1.000  H
  C149     1.0000 0.34300  0.90400  0.95000  Biso   1.000  C
  C150     1.0000 0.80900  0.80400  0.81200  Biso   1.000  C
  C151     1.0000 0.80700  0.79500  0.75100  Biso   1.000  C
  C152     1.0000 0.76700  0.81400  0.72200  Biso   1.000  C
  H145     1.0000 0.77030  0.81250  0.68280  Biso   1.000  H
  C153     1.0000 0.71900  0.83800  0.74400  Biso   1.000  C
  C154     1.0000 0.72200  0.84900  0.80300  Biso   1.000  C
  C155     1.0000 0.76500  0.83300  0.83700  Biso   1.000  C
  H146     1.0000 0.76520  0.84120  0.87530  Biso   1.000  H
  C156     1.0000 0.68000  0.88200  0.83000  Biso   1.000  C
  C157     1.0000 0.68300  0.93300  0.82900  Biso   1.000  C
  H147     1.0000 0.70740  0.94940  0.80580  Biso   1.000  H
  C158     1.0000 0.64800  0.96500  0.86400  Biso   1.000  C
  H148     1.0000 0.65340  0.00130  0.86640  Biso   1.000  H
  C159     1.0000 0.60600  0.94000  0.89500  Biso   1.000  C
  C160     1.0000 0.60300  0.88600  0.89600  Biso   1.000  C
  H149     1.0000 0.58090  0.86720  0.92050  Biso   1.000  H
  C161     1.0000 0.63900  0.85900  0.85600  Biso   1.000  C
  H150     1.0000 0.63170  0.82350  0.84690  Biso   1.000  H
  C162     1.0000 0.57100  0.97400  0.92900  Biso   1.000  C
  O51      1.0000 0.43500  0.95400  0.53300  Biso   1.000  O
  Zn5      1.0000 0.40700  0.96250  0.45150  Biso   1.000  Zn
  Zn6      1.0000 0.44180  0.88070  0.55450  Biso   1.000  Zn
  C163     1.0000 0.65000  0.09800  0.62000  Biso   1.000  C
  C164     1.0000 0.69800  0.11000  0.65400  Biso   1.000  C
  C165     1.0000 0.72400  0.07800  0.68500  Biso   1.000  C
  H151     1.0000 0.70980  0.04400  0.69000  Biso   1.000  H
  C166     1.0000 0.96580  0.23460  0.67630  Biso   1.000  C
  H152     1.0000 0.96680  0.20610  0.64840  Biso   1.000  H
  H153     1.0000 0.93390  0.25570  0.67090  Biso   1.000  H
  C167     1.0000 0.01880  0.27020  0.67490  Biso   1.000  C
  H154     1.0000 0.02800  0.28430  0.71220  Biso   1.000  H
  H155     1.0000 0.01680  0.29880  0.64720  Biso   1.000  H
  C168     1.0000 0.10100  0.25100  0.64300  Biso   1.000  C
  H156     1.0000 0.10410  0.24900  0.60210  Biso   1.000  H
  H157     1.0000 0.09920  0.28890  0.65260  Biso   1.000  H
  C169     1.0000 0.15000  0.23200  0.66600  Biso   1.000  C
  H158     1.0000 0.15510  0.19650  0.65190  Biso   1.000  H
  H159     1.0000 0.17810  0.25430  0.65100  Biso   1.000  H
  C170     1.0000 0.15500  0.20400  0.90100  Biso   1.000  C
  H160     1.0000 0.15090  0.16620  0.91010  Biso   1.000  H
  H161     1.0000 0.18970  0.21560  0.91480  Biso   1.000  H
  C171     1.0000 0.10700  0.24000  0.92700  Biso   1.000  C
  H162     1.0000 0.10360  0.27390  0.90770  Biso   1.000  H
  H163     1.0000 0.11010  0.24520  0.96770  Biso   1.000  H
  C172     1.0000 0.01400  0.23000  0.92400  Biso   1.000  C
  H164     1.0000 0.01090  0.23580  0.96470  Biso   1.000  H
  H165     1.0000 0.01530  0.26480  0.90510  Biso   1.000  H
  C173     1.0000 0.97100  0.19900  0.90200  Biso   1.000  C
  H166     1.0000 0.93720  0.21170  0.91700  Biso   1.000  H
  H167     1.0000 0.97500  0.16170  0.91390  Biso   1.000  H
  C174     1.0000 0.32400  0.14500  0.70700  Biso   1.000  C
  C175     1.0000 0.33000  0.09400  0.69200  Biso   1.000  C
  H168     1.0000 0.30610  0.06820  0.70520  Biso   1.000  H
  C176     1.0000 0.37400  0.08000  0.65600  Biso   1.000  C
  H169     1.0000 0.37740  0.04540  0.64320  Biso   1.000  H
  C177     1.0000 0.41000  0.11500  0.64000  Biso   1.000  C
  C178     1.0000 0.40700  0.16400  0.65800  Biso   1.000  C
  H170     1.0000 0.43440  0.18680  0.64930  Biso   1.000  H
  C179     1.0000 0.36200  0.18500  0.69200  Biso   1.000  C
  H171     1.0000 0.35860  0.22040  0.70190  Biso   1.000  H
  C180     1.0000 0.45900  0.09900  0.60600  Biso   1.000  C
  C181     1.0000 0.69250  0.99940  0.51170  Biso   1.000  C
  H172     1.0000 0.68420  0.01890  0.54430  Biso   1.000  H
  C182     1.0000 0.73830  0.94010  0.56910  Biso   1.000  C
  H173     1.0000 0.76900  0.91760  0.57210  Biso   1.000  H
  H174     1.0000 0.73940  0.96660  0.59870  Biso   1.000  H
  H175     1.0000 0.70670  0.91910  0.57310  Biso   1.000  H
  C183     1.0000 0.75820  0.93650  0.46060  Biso   1.000  C
  H176     1.0000 0.75550  0.96020  0.42850  Biso   1.000  H
  H177     1.0000 0.79470  0.92610  0.46570  Biso   1.000  H
  H178     1.0000 0.73680  0.90550  0.45380  Biso   1.000  H
  C184     1.0000 0.59900  0.05100  0.33100  Biso   1.000  C
  H179     1.0000 0.60330  0.08710  0.34000  Biso   1.000  H
  C185     1.0000 0.59370  0.98540  0.26020  Biso   1.000  C
  H180     1.0000 0.58010  0.98030  0.22230  Biso   1.000  H
  H181     1.0000 0.63130  0.97880  0.26050  Biso   1.000  H
  H182     1.0000 0.57640  0.96120  0.28590  Biso   1.000  H
  C186     1.0000 0.57000  0.07300  0.23100  Biso   1.000  C
  H183     1.0000 0.55870  0.05190  0.19910  Biso   1.000  H
  H184     1.0000 0.54090  0.09600  0.24240  Biso   1.000  H
  H185     1.0000 0.59990  0.09430  0.22050  Biso   1.000  H
  N7       1.0000 0.73820  0.96540  0.51530  Biso   1.000  N
  N8       1.0000 0.58400  0.03900  0.27800  Biso   1.000  N
  O52      1.0000 0.62200  0.13400  0.60000  Biso   1.000  O
  O53      1.0000 0.63800  0.04800  0.61800  Biso   1.000  O
  O54      1.0000 0.97000  0.21600  0.73100  Biso   1.000  O
  O55      1.0000 0.05300  0.22900  0.65800  Biso   1.000  O
  O56      1.0000 0.15400  0.23100  0.72600  Biso   1.000  O
  O57      1.0000 0.15100  0.21200  0.84200  Biso   1.000  O
  O58      1.0000 0.06000  0.20200  0.91200  Biso   1.000  O
  O59      1.0000 0.97200  0.20300  0.84100  Biso   1.000  O
  O60      1.0000 0.66600  0.06300  0.99000  Biso   1.000  O
  O61      1.0000 0.61600  0.12100  0.94400  Biso   1.000  O
  O62      1.0000 0.46000  0.04560  0.96500  Biso   1.000  O
  O63      1.0000 0.42700  0.97700  0.92200  Biso   1.000  O
  O64      1.0000 0.49100  0.13300  0.59200  Biso   1.000  O
  O65      1.0000 0.46200  0.04900  0.59340  Biso   1.000  O
  O66      1.0000 0.66430  0.00540  0.47190  Biso   1.000  O
  O67      1.0000 0.60600  0.01700  0.36800  Biso   1.000  O
  C187     1.0000 0.72000  0.16100  0.65200  Biso   1.000  C
  H186     1.0000 0.70190  0.18820  0.63190  Biso   1.000  H
  C188     1.0000 0.76800  0.17200  0.67900  Biso   1.000  C
  H187     1.0000 0.78420  0.20400  0.67180  Biso   1.000  H
  C189     1.0000 0.79100  0.14000  0.71300  Biso   1.000  C
  C190     1.0000 0.77300  0.09100  0.71400  Biso   1.000  C
  H188     1.0000 0.79140  0.06430  0.73350  Biso   1.000  H
  C191     1.0000 0.83800  0.15600  0.74800  Biso   1.000  C
  C192     1.0000 0.88200  0.17800  0.72400  Biso   1.000  C
  H189     1.0000 0.88170  0.18440  0.68510  Biso   1.000  H
  C193     1.0000 0.92500  0.19200  0.75200  Biso   1.000  C
  C194     1.0000 0.92500  0.18500  0.81300  Biso   1.000  C
  C195     1.0000 0.88500  0.16100  0.84100  Biso   1.000  C
  H190     1.0000 0.88770  0.15410  0.87970  Biso   1.000  H
  C196     1.0000 0.83800  0.14500  0.80900  Biso   1.000  C
  C197     1.0000 0.79100  0.13300  0.84200  Biso   1.000  C
  C198     1.0000 0.79300  0.09200  0.88100  Biso   1.000  C
  H191     1.0000 0.82290  0.07120  0.88490  Biso   1.000  H
  C199     1.0000 0.74900  0.08300  0.91300  Biso   1.000  C
  H192     1.0000 0.75100  0.05600  0.94060  Biso   1.000  H
  C200     1.0000 0.70500  0.10700  0.91000  Biso   1.000  C
  C201     1.0000 0.70100  0.14500  0.87100  Biso   1.000  C
  H193     1.0000 0.66960  0.16380  0.86740  Biso   1.000  H
  C202     1.0000 0.74400  0.15800  0.83500  Biso   1.000  C
  H194     1.0000 0.73900  0.18370  0.80670  Biso   1.000  H
  C203     1.0000 0.65700  0.09600  0.95000  Biso   1.000  C
  C204     1.0000 0.19100  0.19600  0.81200  Biso   1.000  C
  C205     1.0000 0.19300  0.20500  0.75100  Biso   1.000  C
  C206     1.0000 0.23300  0.18600  0.72200  Biso   1.000  C
  H195     1.0000 0.22970  0.18750  0.68280  Biso   1.000  H
  C207     1.0000 0.28100  0.16200  0.74400  Biso   1.000  C
  C208     1.0000 0.27800  0.15100  0.80300  Biso   1.000  C
  C209     1.0000 0.23500  0.16700  0.83700  Biso   1.000  C
  H196     1.0000 0.23480  0.15880  0.87530  Biso   1.000  H
  C210     1.0000 0.32000  0.11800  0.83000  Biso   1.000  C
  C211     1.0000 0.31700  0.06700  0.82900  Biso   1.000  C
  H197     1.0000 0.29260  0.05060  0.80580  Biso   1.000  H
  C212     1.0000 0.35200  0.03500  0.86400  Biso   1.000  C
  H198     1.0000 0.34660  0.99870  0.86640  Biso   1.000  H
  C213     1.0000 0.39400  0.06000  0.89500  Biso   1.000  C
  C214     1.0000 0.39700  0.11400  0.89600  Biso   1.000  C
  H199     1.0000 0.41910  0.13280  0.92050  Biso   1.000  H
  C215     1.0000 0.36100  0.14100  0.85600  Biso   1.000  C
  H200     1.0000 0.36830  0.17650  0.84690  Biso   1.000  H
  C216     1.0000 0.42900  0.02600  0.92900  Biso   1.000  C
  O68      1.0000 0.56500  0.04600  0.53300  Biso   1.000  O
  Zn7      1.0000 0.59300  0.03750  0.45150  Biso   1.000  Zn
  Zn8      1.0000 0.55820  0.11930  0.55450  Biso   1.000  Zn
  Zn9      1.0000 0.50000  0.00000  0.03250  Biso   1.000  Zn
  Zn10     1.0000 0.50000  0.00000  0.53250  Biso   1.000  Zn
  C217     1.0000 0.15000  0.40200  0.88000  Biso   1.000  C
  C218     1.0000 0.19800  0.39000  0.84600  Biso   1.000  C
  C219     1.0000 0.22400  0.42200  0.81500  Biso   1.000  C
  H201     1.0000 0.20980  0.45600  0.81000  Biso   1.000  H
  C220     1.0000 0.46580  0.26540  0.82370  Biso   1.000  C
  H202     1.0000 0.46680  0.29390  0.85160  Biso   1.000  H
  H203     1.0000 0.43390  0.24430  0.82910  Biso   1.000  H
  C221     1.0000 0.51880  0.22980  0.82510  Biso   1.000  C
  H204     1.0000 0.52800  0.21570  0.78780  Biso   1.000  H
  H205     1.0000 0.51680  0.20120  0.85280  Biso   1.000  H
  C222     1.0000 0.60100  0.24900  0.85700  Biso   1.000  C
  H206     1.0000 0.60410  0.25100  0.89790  Biso   1.000  H
  H207     1.0000 0.59920  0.21110  0.84740  Biso   1.000  H
  C223     1.0000 0.65000  0.26800  0.83400  Biso   1.000  C
  H208     1.0000 0.65510  0.30350  0.84810  Biso   1.000  H
  H209     1.0000 0.67810  0.24570  0.84900  Biso   1.000  H
  C224     1.0000 0.65500  0.29600  0.59900  Biso   1.000  C
  H210     1.0000 0.65090  0.33380  0.58990  Biso   1.000  H
  H211     1.0000 0.68970  0.28440  0.58520  Biso   1.000  H
  C225     1.0000 0.60700  0.26000  0.57300  Biso   1.000  C
  H212     1.0000 0.60360  0.22610  0.59230  Biso   1.000  H
  H213     1.0000 0.61010  0.25480  0.53230  Biso   1.000  H
  C226     1.0000 0.51400  0.27000  0.57600  Biso   1.000  C
  H214     1.0000 0.51090  0.26420  0.53530  Biso   1.000  H
  H215     1.0000 0.51530  0.23520  0.59490  Biso   1.000  H
  C227     1.0000 0.47100  0.30100  0.59800  Biso   1.000  C
  H216     1.0000 0.43720  0.28830  0.58300  Biso   1.000  H
  H217     1.0000 0.47500  0.33830  0.58610  Biso   1.000  H
  C228     1.0000 0.82400  0.35500  0.79300  Biso   1.000  C
  C229     1.0000 0.83000  0.40600  0.80800  Biso   1.000  C
  H218     1.0000 0.80610  0.43180  0.79480  Biso   1.000  H
  C230     1.0000 0.87400  0.42000  0.84400  Biso   1.000  C
  H219     1.0000 0.87740  0.45460  0.85680  Biso   1.000  H
  C231     1.0000 0.91000  0.38500  0.86000  Biso   1.000  C
  C232     1.0000 0.90700  0.33600  0.84200  Biso   1.000  C
  H220     1.0000 0.93440  0.31320  0.85070  Biso   1.000  H
  C233     1.0000 0.86200  0.31500  0.80800  Biso   1.000  C
  H221     1.0000 0.85860  0.27960  0.79810  Biso   1.000  H
  C234     1.0000 0.95900  0.40100  0.89400  Biso   1.000  C
  C235     1.0000 0.19250  0.50060  0.98830  Biso   1.000  C
  H222     1.0000 0.18420  0.48110  0.95570  Biso   1.000  H
  C236     1.0000 0.23830  0.55990  0.93090  Biso   1.000  C
  H223     1.0000 0.26900  0.58240  0.92790  Biso   1.000  H
  H224     1.0000 0.23940  0.53340  0.90130  Biso   1.000  H
  H225     1.0000 0.20670  0.58090  0.92690  Biso   1.000  H
  C237     1.0000 0.25820  0.56350  0.03940  Biso   1.000  C
  H226     1.0000 0.25550  0.53980  0.07150  Biso   1.000  H
  H227     1.0000 0.29470  0.57390  0.03430  Biso   1.000  H
  H228     1.0000 0.23680  0.59450  0.04620  Biso   1.000  H
  C238     1.0000 0.09900  0.44900  0.16900  Biso   1.000  C
  H229     1.0000 0.10330  0.41290  0.16000  Biso   1.000  H
  C239     1.0000 0.09370  0.51460  0.23980  Biso   1.000  C
  H230     1.0000 0.08010  0.51970  0.27770  Biso   1.000  H
  H231     1.0000 0.13130  0.52120  0.23950  Biso   1.000  H
  H232     1.0000 0.07640  0.53880  0.21410  Biso   1.000  H
  C240     1.0000 0.07000  0.42700  0.26900  Biso   1.000  C
  H233     1.0000 0.05870  0.44810  0.30090  Biso   1.000  H
  H234     1.0000 0.04090  0.40400  0.25760  Biso   1.000  H
  H235     1.0000 0.09990  0.40570  0.27950  Biso   1.000  H
  N9       1.0000 0.23820  0.53460  0.98470  Biso   1.000  N
  N10      1.0000 0.08400  0.46100  0.22200  Biso   1.000  N
  O69      1.0000 0.12200  0.36600  0.90000  Biso   1.000  O
  O70      1.0000 0.13800  0.45200  0.88200  Biso   1.000  O
  O71      1.0000 0.47000  0.28400  0.76900  Biso   1.000  O
  O72      1.0000 0.55300  0.27100  0.84200  Biso   1.000  O
  O73      1.0000 0.65400  0.26900  0.77400  Biso   1.000  O
  O74      1.0000 0.65100  0.28800  0.65800  Biso   1.000  O
  O75      1.0000 0.56000  0.29800  0.58800  Biso   1.000  O
  O76      1.0000 0.47200  0.29700  0.65900  Biso   1.000  O
  O77      1.0000 0.16600  0.43700  0.51000  Biso   1.000  O
  O78      1.0000 0.11600  0.37900  0.55600  Biso   1.000  O
  O79      1.0000 0.96000  0.45440  0.53500  Biso   1.000  O
  O80      1.0000 0.92700  0.52300  0.57800  Biso   1.000  O
  O81      1.0000 0.99100  0.36700  0.90800  Biso   1.000  O
  O82      1.0000 0.96200  0.45100  0.90660  Biso   1.000  O
  O83      1.0000 0.16430  0.49460  0.02810  Biso   1.000  O
  O84      1.0000 0.10600  0.48300  0.13200  Biso   1.000  O
  C241     1.0000 0.22000  0.33900  0.84800  Biso   1.000  C
  H236     1.0000 0.20190  0.31180  0.86810  Biso   1.000  H
  C242     1.0000 0.26800  0.32800  0.82100  Biso   1.000  C
  H237     1.0000 0.28420  0.29600  0.82820  Biso   1.000  H
  C243     1.0000 0.29100  0.36000  0.78700  Biso   1.000  C
  C244     1.0000 0.27300  0.40900  0.78600  Biso   1.000  C
  H238     1.0000 0.29140  0.43570  0.76650  Biso   1.000  H
  C245     1.0000 0.33800  0.34400  0.75200  Biso   1.000  C
  C246     1.0000 0.38200  0.32200  0.77600  Biso   1.000  C
  H239     1.0000 0.38170  0.31560  0.81490  Biso   1.000  H
  C247     1.0000 0.42500  0.30800  0.74800  Biso   1.000  C
  C248     1.0000 0.42500  0.31500  0.68700  Biso   1.000  C
  C249     1.0000 0.38500  0.33900  0.65900  Biso   1.000  C
  H240     1.0000 0.38770  0.34590  0.62030  Biso   1.000  H
  C250     1.0000 0.33800  0.35500  0.69100  Biso   1.000  C
  C251     1.0000 0.29100  0.36700  0.65800  Biso   1.000  C
  C252     1.0000 0.29300  0.40800  0.61900  Biso   1.000  C
  H241     1.0000 0.32290  0.42880  0.61510  Biso   1.000  H
  C253     1.0000 0.24900  0.41700  0.58700  Biso   1.000  C
  H242     1.0000 0.25100  0.44400  0.55940  Biso   1.000  H
  C254     1.0000 0.20500  0.39300  0.59000  Biso   1.000  C
  C255     1.0000 0.20100  0.35500  0.62900  Biso   1.000  C
  H243     1.0000 0.16960  0.33620  0.63260  Biso   1.000  H
  C256     1.0000 0.24400  0.34200  0.66500  Biso   1.000  C
  H244     1.0000 0.23900  0.31630  0.69330  Biso   1.000  H
  C257     1.0000 0.15700  0.40400  0.55000  Biso   1.000  C
  C258     1.0000 0.69100  0.30400  0.68800  Biso   1.000  C
  C259     1.0000 0.69300  0.29500  0.74900  Biso   1.000  C
  C260     1.0000 0.73300  0.31400  0.77800  Biso   1.000  C
  H245     1.0000 0.72970  0.31250  0.81720  Biso   1.000  H
  C261     1.0000 0.78100  0.33800  0.75600  Biso   1.000  C
  C262     1.0000 0.77800  0.34900  0.69700  Biso   1.000  C
  C263     1.0000 0.73500  0.33300  0.66300  Biso   1.000  C
  H246     1.0000 0.73480  0.34120  0.62470  Biso   1.000  H
  C264     1.0000 0.82000  0.38200  0.67000  Biso   1.000  C
  C265     1.0000 0.81700  0.43300  0.67100  Biso   1.000  C
  H247     1.0000 0.79260  0.44940  0.69420  Biso   1.000  H
  C266     1.0000 0.85200  0.46500  0.63600  Biso   1.000  C
  H248     1.0000 0.84660  0.50130  0.63360  Biso   1.000  H
  C267     1.0000 0.89400  0.44000  0.60500  Biso   1.000  C
  C268     1.0000 0.89700  0.38600  0.60400  Biso   1.000  C
  H249     1.0000 0.91910  0.36720  0.57950  Biso   1.000  H
  C269     1.0000 0.86100  0.35900  0.64400  Biso   1.000  C
  H250     1.0000 0.86830  0.32350  0.65310  Biso   1.000  H
  C270     1.0000 0.92900  0.47400  0.57100  Biso   1.000  C
  O85      1.0000 0.06500  0.45400  0.96700  Biso   1.000  O
  Zn11     1.0000 0.09300  0.46250  0.04850  Biso   1.000  Zn
  Zn12     1.0000 0.05820  0.38070  0.94550  Biso   1.000  Zn
  C271     1.0000 0.85000  0.59800  0.88000  Biso   1.000  C
  C272     1.0000 0.80200  0.61000  0.84600  Biso   1.000  C
  C273     1.0000 0.77600  0.57800  0.81500  Biso   1.000  C
  H251     1.0000 0.79020  0.54400  0.81000  Biso   1.000  H
  C274     1.0000 0.53420  0.73460  0.82370  Biso   1.000  C
  H252     1.0000 0.53320  0.70610  0.85160  Biso   1.000  H
  H253     1.0000 0.56610  0.75570  0.82910  Biso   1.000  H
  C275     1.0000 0.48120  0.77020  0.82510  Biso   1.000  C
  H254     1.0000 0.47200  0.78430  0.78780  Biso   1.000  H
  H255     1.0000 0.48320  0.79880  0.85280  Biso   1.000  H
  C276     1.0000 0.39900  0.75100  0.85700  Biso   1.000  C
  H256     1.0000 0.39590  0.74900  0.89790  Biso   1.000  H
  H257     1.0000 0.40080  0.78890  0.84740  Biso   1.000  H
  C277     1.0000 0.35000  0.73200  0.83400  Biso   1.000  C
  H258     1.0000 0.34490  0.69650  0.84810  Biso   1.000  H
  H259     1.0000 0.32190  0.75430  0.84900  Biso   1.000  H
  C278     1.0000 0.34500  0.70400  0.59900  Biso   1.000  C
  H260     1.0000 0.34910  0.66620  0.58990  Biso   1.000  H
  H261     1.0000 0.31030  0.71560  0.58520  Biso   1.000  H
  C279     1.0000 0.39300  0.74000  0.57300  Biso   1.000  C
  H262     1.0000 0.39640  0.77390  0.59230  Biso   1.000  H
  H263     1.0000 0.38990  0.74520  0.53230  Biso   1.000  H
  C280     1.0000 0.48600  0.73000  0.57600  Biso   1.000  C
  H264     1.0000 0.48910  0.73580  0.53530  Biso   1.000  H
  H265     1.0000 0.48470  0.76480  0.59490  Biso   1.000  H
  C281     1.0000 0.52900  0.69900  0.59800  Biso   1.000  C
  H266     1.0000 0.56280  0.71170  0.58300  Biso   1.000  H
  H267     1.0000 0.52500  0.66170  0.58610  Biso   1.000  H
  C282     1.0000 0.17600  0.64500  0.79300  Biso   1.000  C
  C283     1.0000 0.17000  0.59400  0.80800  Biso   1.000  C
  H268     1.0000 0.19390  0.56820  0.79480  Biso   1.000  H
  C284     1.0000 0.12600  0.58000  0.84400  Biso   1.000  C
  H269     1.0000 0.12260  0.54540  0.85680  Biso   1.000  H
  C285     1.0000 0.09000  0.61500  0.86000  Biso   1.000  C
  C286     1.0000 0.09300  0.66400  0.84200  Biso   1.000  C
  H270     1.0000 0.06560  0.68680  0.85070  Biso   1.000  H
  C287     1.0000 0.13800  0.68500  0.80800  Biso   1.000  C
  H271     1.0000 0.14140  0.72040  0.79810  Biso   1.000  H
  C288     1.0000 0.04100  0.59900  0.89400  Biso   1.000  C
  C289     1.0000 0.80750  0.49940  0.98830  Biso   1.000  C
  H272     1.0000 0.81580  0.51890  0.95570  Biso   1.000  H
  C290     1.0000 0.76170  0.44010  0.93090  Biso   1.000  C
  H273     1.0000 0.73100  0.41760  0.92790  Biso   1.000  H
  H274     1.0000 0.76060  0.46660  0.90130  Biso   1.000  H
  H275     1.0000 0.79330  0.41910  0.92690  Biso   1.000  H
  C291     1.0000 0.74180  0.43650  0.03940  Biso   1.000  C
  H276     1.0000 0.74450  0.46020  0.07150  Biso   1.000  H
  H277     1.0000 0.70530  0.42610  0.03430  Biso   1.000  H
  H278     1.0000 0.76320  0.40550  0.04620  Biso   1.000  H
  C292     1.0000 0.90100  0.55100  0.16900  Biso   1.000  C
  H279     1.0000 0.89670  0.58710  0.16000  Biso   1.000  H
  C293     1.0000 0.90630  0.48540  0.23980  Biso   1.000  C
  H280     1.0000 0.91990  0.48030  0.27770  Biso   1.000  H
  H281     1.0000 0.86870  0.47880  0.23950  Biso   1.000  H
  H282     1.0000 0.92360  0.46120  0.21410  Biso   1.000  H
  C294     1.0000 0.93000  0.57300  0.26900  Biso   1.000  C
  H283     1.0000 0.94130  0.55190  0.30090  Biso   1.000  H
  H284     1.0000 0.95910  0.59600  0.25760  Biso   1.000  H
  H285     1.0000 0.90010  0.59430  0.27950  Biso   1.000  H
  N11      1.0000 0.76180  0.46540  0.98470  Biso   1.000  N
  N12      1.0000 0.91600  0.53900  0.22200  Biso   1.000  N
  O86      1.0000 0.87800  0.63400  0.90000  Biso   1.000  O
  O87      1.0000 0.86200  0.54800  0.88200  Biso   1.000  O
  O88      1.0000 0.53000  0.71600  0.76900  Biso   1.000  O
  O89      1.0000 0.44700  0.72900  0.84200  Biso   1.000  O
  O90      1.0000 0.34600  0.73100  0.77400  Biso   1.000  O
  O91      1.0000 0.34900  0.71200  0.65800  Biso   1.000  O
  O92      1.0000 0.44000  0.70200  0.58800  Biso   1.000  O
  O93      1.0000 0.52800  0.70300  0.65900  Biso   1.000  O
  O94      1.0000 0.83400  0.56300  0.51000  Biso   1.000  O
  O95      1.0000 0.88400  0.62100  0.55600  Biso   1.000  O
  O96      1.0000 0.04000  0.54560  0.53500  Biso   1.000  O
  O97      1.0000 0.07300  0.47700  0.57800  Biso   1.000  O
  O98      1.0000 0.00900  0.63300  0.90800  Biso   1.000  O
  O99      1.0000 0.03800  0.54900  0.90660  Biso   1.000  O
  O100     1.0000 0.83570  0.50540  0.02810  Biso   1.000  O
  O101     1.0000 0.89400  0.51700  0.13200  Biso   1.000  O
  C295     1.0000 0.78000  0.66100  0.84800  Biso   1.000  C
  H286     1.0000 0.79810  0.68820  0.86810  Biso   1.000  H
  C296     1.0000 0.73200  0.67200  0.82100  Biso   1.000  C
  H287     1.0000 0.71580  0.70400  0.82820  Biso   1.000  H
  C297     1.0000 0.70900  0.64000  0.78700  Biso   1.000  C
  C298     1.0000 0.72700  0.59100  0.78600  Biso   1.000  C
  H288     1.0000 0.70860  0.56430  0.76650  Biso   1.000  H
  C299     1.0000 0.66200  0.65600  0.75200  Biso   1.000  C
  C300     1.0000 0.61800  0.67800  0.77600  Biso   1.000  C
  H289     1.0000 0.61830  0.68440  0.81490  Biso   1.000  H
  C301     1.0000 0.57500  0.69200  0.74800  Biso   1.000  C
  C302     1.0000 0.57500  0.68500  0.68700  Biso   1.000  C
  C303     1.0000 0.61500  0.66100  0.65900  Biso   1.000  C
  H290     1.0000 0.61230  0.65410  0.62030  Biso   1.000  H
  C304     1.0000 0.66200  0.64500  0.69100  Biso   1.000  C
  C305     1.0000 0.70900  0.63300  0.65800  Biso   1.000  C
  C306     1.0000 0.70700  0.59200  0.61900  Biso   1.000  C
  H291     1.0000 0.67710  0.57120  0.61510  Biso   1.000  H
  C307     1.0000 0.75100  0.58300  0.58700  Biso   1.000  C
  H292     1.0000 0.74900  0.55600  0.55940  Biso   1.000  H
  C308     1.0000 0.79500  0.60700  0.59000  Biso   1.000  C
  C309     1.0000 0.79900  0.64500  0.62900  Biso   1.000  C
  H293     1.0000 0.83040  0.66380  0.63260  Biso   1.000  H
  C310     1.0000 0.75600  0.65800  0.66500  Biso   1.000  C
  H294     1.0000 0.76100  0.68370  0.69330  Biso   1.000  H
  C311     1.0000 0.84300  0.59600  0.55000  Biso   1.000  C
  C312     1.0000 0.30900  0.69600  0.68800  Biso   1.000  C
  C313     1.0000 0.30700  0.70500  0.74900  Biso   1.000  C
  C314     1.0000 0.26700  0.68600  0.77800  Biso   1.000  C
  H295     1.0000 0.27030  0.68750  0.81720  Biso   1.000  H
  C315     1.0000 0.21900  0.66200  0.75600  Biso   1.000  C
  C316     1.0000 0.22200  0.65100  0.69700  Biso   1.000  C
  C317     1.0000 0.26500  0.66700  0.66300  Biso   1.000  C
  H296     1.0000 0.26520  0.65880  0.62470  Biso   1.000  H
  C318     1.0000 0.18000  0.61800  0.67000  Biso   1.000  C
  C319     1.0000 0.18300  0.56700  0.67100  Biso   1.000  C
  H297     1.0000 0.20740  0.55060  0.69420  Biso   1.000  H
  C320     1.0000 0.14800  0.53500  0.63600  Biso   1.000  C
  H298     1.0000 0.15340  0.49870  0.63360  Biso   1.000  H
  C321     1.0000 0.10600  0.56000  0.60500  Biso   1.000  C
  C322     1.0000 0.10300  0.61400  0.60400  Biso   1.000  C
  H299     1.0000 0.08090  0.63280  0.57950  Biso   1.000  H
  C323     1.0000 0.13900  0.64100  0.64400  Biso   1.000  C
  H300     1.0000 0.13170  0.67650  0.65310  Biso   1.000  H
  C324     1.0000 0.07100  0.52600  0.57100  Biso   1.000  C
  O102     1.0000 0.93500  0.54600  0.96700  Biso   1.000  O
  Zn13     1.0000 0.90700  0.53750  0.04850  Biso   1.000  Zn
  Zn14     1.0000 0.94180  0.61930  0.94550  Biso   1.000  Zn
  C325     1.0000 0.90200  0.65000  0.38000  Biso   1.000  C
  C326     1.0000 0.89000  0.69800  0.34600  Biso   1.000  C
  C327     1.0000 0.92200  0.72400  0.31500  Biso   1.000  C
  H301     1.0000 0.95600  0.70980  0.31000  Biso   1.000  H
  C328     1.0000 0.76540  0.96580  0.32370  Biso   1.000  C
  H302     1.0000 0.79390  0.96680  0.35160  Biso   1.000  H
  H303     1.0000 0.74430  0.93390  0.32910  Biso   1.000  H
  C329     1.0000 0.72980  0.01880  0.32510  Biso   1.000  C
  H304     1.0000 0.71570  0.02800  0.28780  Biso   1.000  H
  H305     1.0000 0.70120  0.01680  0.35280  Biso   1.000  H
  C330     1.0000 0.74900  0.10100  0.35700  Biso   1.000  C
  H306     1.0000 0.75100  0.10410  0.39790  Biso   1.000  H
  H307     1.0000 0.71110  0.09920  0.34740  Biso   1.000  H
  C331     1.0000 0.76800  0.15000  0.33400  Biso   1.000  C
  H308     1.0000 0.80350  0.15510  0.34810  Biso   1.000  H
  H309     1.0000 0.74570  0.17810  0.34900  Biso   1.000  H
  C332     1.0000 0.79600  0.15500  0.09900  Biso   1.000  C
  H310     1.0000 0.83380  0.15090  0.08990  Biso   1.000  H
  H311     1.0000 0.78440  0.18970  0.08520  Biso   1.000  H
  C333     1.0000 0.76000  0.10700  0.07300  Biso   1.000  C
  H312     1.0000 0.72610  0.10360  0.09230  Biso   1.000  H
  H313     1.0000 0.75480  0.11010  0.03230  Biso   1.000  H
  C334     1.0000 0.77000  0.01400  0.07600  Biso   1.000  C
  H314     1.0000 0.76420  0.01090  0.03530  Biso   1.000  H
  H315     1.0000 0.73520  0.01530  0.09490  Biso   1.000  H
  C335     1.0000 0.80100  0.97100  0.09800  Biso   1.000  C
  H316     1.0000 0.78830  0.93720  0.08300  Biso   1.000  H
  H317     1.0000 0.83830  0.97500  0.08610  Biso   1.000  H
  C336     1.0000 0.85500  0.32400  0.29300  Biso   1.000  C
  C337     1.0000 0.90600  0.33000  0.30800  Biso   1.000  C
  H318     1.0000 0.93180  0.30610  0.29480  Biso   1.000  H
  C338     1.0000 0.92000  0.37400  0.34400  Biso   1.000  C
  H319     1.0000 0.95460  0.37740  0.35680  Biso   1.000  H
  C339     1.0000 0.88500  0.41000  0.36000  Biso   1.000  C
  C340     1.0000 0.83600  0.40700  0.34200  Biso   1.000  C
  H320     1.0000 0.81320  0.43440  0.35070  Biso   1.000  H
  C341     1.0000 0.81500  0.36200  0.30800  Biso   1.000  C
  H321     1.0000 0.77960  0.35860  0.29810  Biso   1.000  H
  C342     1.0000 0.90100  0.45900  0.39400  Biso   1.000  C
  C343     1.0000 0.00060  0.69250  0.48830  Biso   1.000  C
  H322     1.0000 0.98110  0.68420  0.45570  Biso   1.000  H
  C344     1.0000 0.05990  0.73830  0.43090  Biso   1.000  C
  H323     1.0000 0.08240  0.76900  0.42790  Biso   1.000  H
  H324     1.0000 0.03340  0.73940  0.40130  Biso   1.000  H
  H325     1.0000 0.08090  0.70670  0.42690  Biso   1.000  H
  C345     1.0000 0.06350  0.75820  0.53940  Biso   1.000  C
  H326     1.0000 0.03980  0.75550  0.57150  Biso   1.000  H
  H327     1.0000 0.07390  0.79470  0.53430  Biso   1.000  H
  H328     1.0000 0.09450  0.73680  0.54620  Biso   1.000  H
  C346     1.0000 0.94900  0.59900  0.66900  Biso   1.000  C
  H329     1.0000 0.91290  0.60330  0.66000  Biso   1.000  H
  C347     1.0000 0.01460  0.59370  0.73980  Biso   1.000  C
  H330     1.0000 0.01970  0.58010  0.77770  Biso   1.000  H
  H331     1.0000 0.02120  0.63130  0.73950  Biso   1.000  H
  H332     1.0000 0.03880  0.57640  0.71410  Biso   1.000  H
  C348     1.0000 0.92700  0.57000  0.76900  Biso   1.000  C
  H333     1.0000 0.94810  0.55870  0.80090  Biso   1.000  H
  H334     1.0000 0.90400  0.54090  0.75760  Biso   1.000  H
  H335     1.0000 0.90570  0.59990  0.77950  Biso   1.000  H
  N13      1.0000 0.03460  0.73820  0.48470  Biso   1.000  N
  N14      1.0000 0.96100  0.58400  0.72200  Biso   1.000  N
  O103     1.0000 0.86600  0.62200  0.40000  Biso   1.000  O
  O104     1.0000 0.95200  0.63800  0.38200  Biso   1.000  O
  O105     1.0000 0.78400  0.97000  0.26900  Biso   1.000  O
  O106     1.0000 0.77100  0.05300  0.34200  Biso   1.000  O
  O107     1.0000 0.76900  0.15400  0.27400  Biso   1.000  O
  O108     1.0000 0.78800  0.15100  0.15800  Biso   1.000  O
  O109     1.0000 0.79800  0.06000  0.08800  Biso   1.000  O
  O110     1.0000 0.79700  0.97200  0.15900  Biso   1.000  O
  O111     1.0000 0.93700  0.66600  0.01000  Biso   1.000  O
  O112     1.0000 0.87900  0.61600  0.05600  Biso   1.000  O
  O113     1.0000 0.95440  0.46000  0.03500  Biso   1.000  O
  O114     1.0000 0.02300  0.42700  0.07800  Biso   1.000  O
  O115     1.0000 0.86700  0.49100  0.40800  Biso   1.000  O
  O116     1.0000 0.95100  0.46200  0.40660  Biso   1.000  O
  O117     1.0000 0.99460  0.66430  0.52810  Biso   1.000  O
  O118     1.0000 0.98300  0.60600  0.63200  Biso   1.000  O
  C349     1.0000 0.83900  0.72000  0.34800  Biso   1.000  C
  H336     1.0000 0.81180  0.70190  0.36810  Biso   1.000  H
  C350     1.0000 0.82800  0.76800  0.32100  Biso   1.000  C
  H337     1.0000 0.79600  0.78420  0.32820  Biso   1.000  H
  C351     1.0000 0.86000  0.79100  0.28700  Biso   1.000  C
  C352     1.0000 0.90900  0.77300  0.28600  Biso   1.000  C
  H338     1.0000 0.93570  0.79140  0.26650  Biso   1.000  H
  C353     1.0000 0.84400  0.83800  0.25200  Biso   1.000  C
  C354     1.0000 0.82200  0.88200  0.27600  Biso   1.000  C
  H339     1.0000 0.81560  0.88170  0.31490  Biso   1.000  H
  C355     1.0000 0.80800  0.92500  0.24800  Biso   1.000  C
  C356     1.0000 0.81500  0.92500  0.18700  Biso   1.000  C
  C357     1.0000 0.83900  0.88500  0.15900  Biso   1.000  C
  H340     1.0000 0.84590  0.88770  0.12030  Biso   1.000  H
  C358     1.0000 0.85500  0.83800  0.19100  Biso   1.000  C
  C359     1.0000 0.86700  0.79100  0.15800  Biso   1.000  C
  C360     1.0000 0.90800  0.79300  0.11900  Biso   1.000  C
  H341     1.0000 0.92880  0.82290  0.11510  Biso   1.000  H
  C361     1.0000 0.91700  0.74900  0.08700  Biso   1.000  C
  H342     1.0000 0.94400  0.75100  0.05940  Biso   1.000  H
  C362     1.0000 0.89300  0.70500  0.09000  Biso   1.000  C
  C363     1.0000 0.85500  0.70100  0.12900  Biso   1.000  C
  H343     1.0000 0.83620  0.66960  0.13260  Biso   1.000  H
  C364     1.0000 0.84200  0.74400  0.16500  Biso   1.000  C
  H344     1.0000 0.81630  0.73900  0.19330  Biso   1.000  H
  C365     1.0000 0.90400  0.65700  0.05000  Biso   1.000  C
  C366     1.0000 0.80400  0.19100  0.18800  Biso   1.000  C
  C367     1.0000 0.79500  0.19300  0.24900  Biso   1.000  C
  C368     1.0000 0.81400  0.23300  0.27800  Biso   1.000  C
  H345     1.0000 0.81250  0.22970  0.31720  Biso   1.000  H
  C369     1.0000 0.83800  0.28100  0.25600  Biso   1.000  C
  C370     1.0000 0.84900  0.27800  0.19700  Biso   1.000  C
  C371     1.0000 0.83300  0.23500  0.16300  Biso   1.000  C
  H346     1.0000 0.84120  0.23480  0.12470  Biso   1.000  H
  C372     1.0000 0.88200  0.32000  0.17000  Biso   1.000  C
  C373     1.0000 0.93300  0.31700  0.17100  Biso   1.000  C
  H347     1.0000 0.94940  0.29260  0.19420  Biso   1.000  H
  C374     1.0000 0.96500  0.35200  0.13600  Biso   1.000  C
  H348     1.0000 0.00130  0.34660  0.13360  Biso   1.000  H
  C375     1.0000 0.94000  0.39400  0.10500  Biso   1.000  C
  C376     1.0000 0.88600  0.39700  0.10400  Biso   1.000  C
  H349     1.0000 0.86720  0.41910  0.07950  Biso   1.000  H
  C377     1.0000 0.85900  0.36100  0.14400  Biso   1.000  C
  H350     1.0000 0.82350  0.36830  0.15310  Biso   1.000  H
  C378     1.0000 0.97400  0.42900  0.07100  Biso   1.000  C
  O119     1.0000 0.95400  0.56500  0.46700  Biso   1.000  O
  Zn15     1.0000 0.96250  0.59300  0.54850  Biso   1.000  Zn
  Zn16     1.0000 0.88070  0.55820  0.44550  Biso   1.000  Zn
  C379     1.0000 0.09800  0.35000  0.38000  Biso   1.000  C
  C380     1.0000 0.11000  0.30200  0.34600  Biso   1.000  C
  C381     1.0000 0.07800  0.27600  0.31500  Biso   1.000  C
  H351     1.0000 0.04400  0.29020  0.31000  Biso   1.000  H
  C382     1.0000 0.23460  0.03420  0.32370  Biso   1.000  C
  H352     1.0000 0.20610  0.03320  0.35160  Biso   1.000  H
  H353     1.0000 0.25570  0.06610  0.32910  Biso   1.000  H
  C383     1.0000 0.27020  0.98120  0.32510  Biso   1.000  C
  H354     1.0000 0.28430  0.97200  0.28780  Biso   1.000  H
  H355     1.0000 0.29880  0.98320  0.35280  Biso   1.000  H
  C384     1.0000 0.25100  0.89900  0.35700  Biso   1.000  C
  H356     1.0000 0.24900  0.89590  0.39790  Biso   1.000  H
  H357     1.0000 0.28890  0.90080  0.34740  Biso   1.000  H
  C385     1.0000 0.23200  0.85000  0.33400  Biso   1.000  C
  H358     1.0000 0.19650  0.84490  0.34810  Biso   1.000  H
  H359     1.0000 0.25430  0.82190  0.34900  Biso   1.000  H
  C386     1.0000 0.20400  0.84500  0.09900  Biso   1.000  C
  H360     1.0000 0.16620  0.84910  0.08990  Biso   1.000  H
  H361     1.0000 0.21560  0.81030  0.08520  Biso   1.000  H
  C387     1.0000 0.24000  0.89300  0.07300  Biso   1.000  C
  H362     1.0000 0.27390  0.89640  0.09230  Biso   1.000  H
  H363     1.0000 0.24520  0.88990  0.03230  Biso   1.000  H
  C388     1.0000 0.23000  0.98600  0.07600  Biso   1.000  C
  H364     1.0000 0.23580  0.98910  0.03530  Biso   1.000  H
  H365     1.0000 0.26480  0.98470  0.09490  Biso   1.000  H
  C389     1.0000 0.19900  0.02900  0.09800  Biso   1.000  C
  H366     1.0000 0.21170  0.06280  0.08300  Biso   1.000  H
  H367     1.0000 0.16170  0.02500  0.08610  Biso   1.000  H
  C390     1.0000 0.14500  0.67600  0.29300  Biso   1.000  C
  C391     1.0000 0.09400  0.67000  0.30800  Biso   1.000  C
  H368     1.0000 0.06820  0.69390  0.29480  Biso   1.000  H
  C392     1.0000 0.08000  0.62600  0.34400  Biso   1.000  C
  H369     1.0000 0.04540  0.62260  0.35680  Biso   1.000  H
  C393     1.0000 0.11500  0.59000  0.36000  Biso   1.000  C
  C394     1.0000 0.16400  0.59300  0.34200  Biso   1.000  C
  H370     1.0000 0.18680  0.56560  0.35070  Biso   1.000  H
  C395     1.0000 0.18500  0.63800  0.30800  Biso   1.000  C
  H371     1.0000 0.22040  0.64140  0.29810  Biso   1.000  H
  C396     1.0000 0.09900  0.54100  0.39400  Biso   1.000  C
  C397     1.0000 0.99940  0.30750  0.48830  Biso   1.000  C
  H372     1.0000 0.01890  0.31580  0.45570  Biso   1.000  H
  C398     1.0000 0.94010  0.26170  0.43090  Biso   1.000  C
  H373     1.0000 0.91760  0.23100  0.42790  Biso   1.000  H
  H374     1.0000 0.96660  0.26060  0.40130  Biso   1.000  H
  H375     1.0000 0.91910  0.29330  0.42690  Biso   1.000  H
  C399     1.0000 0.93650  0.24180  0.53940  Biso   1.000  C
  H376     1.0000 0.96020  0.24450  0.57150  Biso   1.000  H
  H377     1.0000 0.92610  0.20530  0.53430  Biso   1.000  H
  H378     1.0000 0.90550  0.26320  0.54620  Biso   1.000  H
  C400     1.0000 0.05100  0.40100  0.66900  Biso   1.000  C
  H379     1.0000 0.08710  0.39670  0.66000  Biso   1.000  H
  C401     1.0000 0.98540  0.40630  0.73980  Biso   1.000  C
  H380     1.0000 0.98030  0.41990  0.77770  Biso   1.000  H
  H381     1.0000 0.97880  0.36870  0.73950  Biso   1.000  H
  H382     1.0000 0.96120  0.42360  0.71410  Biso   1.000  H
  C402     1.0000 0.07300  0.43000  0.76900  Biso   1.000  C
  H383     1.0000 0.05190  0.44130  0.80090  Biso   1.000  H
  H384     1.0000 0.09600  0.45910  0.75760  Biso   1.000  H
  H385     1.0000 0.09430  0.40010  0.77950  Biso   1.000  H
  N15      1.0000 0.96540  0.26180  0.48470  Biso   1.000  N
  N16      1.0000 0.03900  0.41600  0.72200  Biso   1.000  N
  O120     1.0000 0.13400  0.37800  0.40000  Biso   1.000  O
  O121     1.0000 0.04800  0.36200  0.38200  Biso   1.000  O
  O122     1.0000 0.21600  0.03000  0.26900  Biso   1.000  O
  O123     1.0000 0.22900  0.94700  0.34200  Biso   1.000  O
  O124     1.0000 0.23100  0.84600  0.27400  Biso   1.000  O
  O125     1.0000 0.21200  0.84900  0.15800  Biso   1.000  O
  O126     1.0000 0.20200  0.94000  0.08800  Biso   1.000  O
  O127     1.0000 0.20300  0.02800  0.15900  Biso   1.000  O
  O128     1.0000 0.06300  0.33400  0.01000  Biso   1.000  O
  O129     1.0000 0.12100  0.38400  0.05600  Biso   1.000  O
  O130     1.0000 0.04560  0.54000  0.03500  Biso   1.000  O
  O131     1.0000 0.97700  0.57300  0.07800  Biso   1.000  O
  O132     1.0000 0.13300  0.50900  0.40800  Biso   1.000  O
  O133     1.0000 0.04900  0.53800  0.40660  Biso   1.000  O
  O134     1.0000 0.00540  0.33570  0.52810  Biso   1.000  O
  O135     1.0000 0.01700  0.39400  0.63200  Biso   1.000  O
  C403     1.0000 0.16100  0.28000  0.34800  Biso   1.000  C
  H386     1.0000 0.18820  0.29810  0.36810  Biso   1.000  H
  C404     1.0000 0.17200  0.23200  0.32100  Biso   1.000  C
  H387     1.0000 0.20400  0.21580  0.32820  Biso   1.000  H
  C405     1.0000 0.14000  0.20900  0.28700  Biso   1.000  C
  C406     1.0000 0.09100  0.22700  0.28600  Biso   1.000  C
  H388     1.0000 0.06430  0.20860  0.26650  Biso   1.000  H
  C407     1.0000 0.15600  0.16200  0.25200  Biso   1.000  C
  C408     1.0000 0.17800  0.11800  0.27600  Biso   1.000  C
  H389     1.0000 0.18440  0.11830  0.31490  Biso   1.000  H
  C409     1.0000 0.19200  0.07500  0.24800  Biso   1.000  C
  C410     1.0000 0.18500  0.07500  0.18700  Biso   1.000  C
  C411     1.0000 0.16100  0.11500  0.15900  Biso   1.000  C
  H390     1.0000 0.15410  0.11230  0.12030  Biso   1.000  H
  C412     1.0000 0.14500  0.16200  0.19100  Biso   1.000  C
  C413     1.0000 0.13300  0.20900  0.15800  Biso   1.000  C
  C414     1.0000 0.09200  0.20700  0.11900  Biso   1.000  C
  H391     1.0000 0.07120  0.17710  0.11510  Biso   1.000  H
  C415     1.0000 0.08300  0.25100  0.08700  Biso   1.000  C
  H392     1.0000 0.05600  0.24900  0.05940  Biso   1.000  H
  C416     1.0000 0.10700  0.29500  0.09000  Biso   1.000  C
  C417     1.0000 0.14500  0.29900  0.12900  Biso   1.000  C
  H393     1.0000 0.16380  0.33040  0.13260  Biso   1.000  H
  C418     1.0000 0.15800  0.25600  0.16500  Biso   1.000  C
  H394     1.0000 0.18370  0.26100  0.19330  Biso   1.000  H
  C419     1.0000 0.09600  0.34300  0.05000  Biso   1.000  C
  C420     1.0000 0.19600  0.80900  0.18800  Biso   1.000  C
  C421     1.0000 0.20500  0.80700  0.24900  Biso   1.000  C
  C422     1.0000 0.18600  0.76700  0.27800  Biso   1.000  C
  H395     1.0000 0.18750  0.77030  0.31720  Biso   1.000  H
  C423     1.0000 0.16200  0.71900  0.25600  Biso   1.000  C
  C424     1.0000 0.15100  0.72200  0.19700  Biso   1.000  C
  C425     1.0000 0.16700  0.76500  0.16300  Biso   1.000  C
  H396     1.0000 0.15880  0.76520  0.12470  Biso   1.000  H
  C426     1.0000 0.11800  0.68000  0.17000  Biso   1.000  C
  C427     1.0000 0.06700  0.68300  0.17100  Biso   1.000  C
  H397     1.0000 0.05060  0.70740  0.19420  Biso   1.000  H
  C428     1.0000 0.03500  0.64800  0.13600  Biso   1.000  C
  H398     1.0000 0.99870  0.65340  0.13360  Biso   1.000  H
  C429     1.0000 0.06000  0.60600  0.10500  Biso   1.000  C
  C430     1.0000 0.11400  0.60300  0.10400  Biso   1.000  C
  H399     1.0000 0.13280  0.58090  0.07950  Biso   1.000  H
  C431     1.0000 0.14100  0.63900  0.14400  Biso   1.000  C
  H400     1.0000 0.17650  0.63170  0.15310  Biso   1.000  H
  C432     1.0000 0.02600  0.57100  0.07100  Biso   1.000  C
  O136     1.0000 0.04600  0.43500  0.46700  Biso   1.000  O
  Zn17     1.0000 0.03750  0.40700  0.54850  Biso   1.000  Zn
  Zn18     1.0000 0.11930  0.44180  0.44550  Biso   1.000  Zn
  Zn19     1.0000 0.00000  0.50000  0.96750  Biso   1.000  Zn
  Zn20     1.0000 0.00000  0.50000  0.46750  Biso   1.000  Zn
