data_image0
_cell_length_a       25.2139
_cell_length_b       26.2486
_cell_length_c       26.2486
_cell_angle_alpha    120
_cell_angle_beta     90
_cell_angle_gamma    90

_symmetry_space_group_name_H-M    P 1
_symmetry_int_tables_number       1

loop_
  _symmetry_equiv_pos_as_xyz
  'x, y, z'

loop_
  _atom_site_label
  _atom_site_occupancy
  _atom_site_fract_x
  _atom_site_fract_y
  _atom_site_fract_z
  _atom_site_thermal_displace_type
  _atom_site_B_iso_or_equiv
  _atom_site_type_symbol
  Cu1      1.0000 0.60340  0.92226  0.94264  Biso   1.000  Cu
  Cu2      1.0000 0.68509  0.41945  0.71049  Biso   1.000  Cu
  Cu3      1.0000 0.60340  0.02038  0.07774  Biso   1.000  Cu
  Cu4      1.0000 0.68509  0.29104  0.58055  Biso   1.000  Cu
  Cu5      1.0000 0.60340  0.05736  0.97962  Biso   1.000  Cu
  Cu6      1.0000 0.68509  0.28951  0.70896  Biso   1.000  Cu
  Cu7      1.0000 0.10340  0.07774  0.05736  Biso   1.000  Cu
  Cu8      1.0000 0.18509  0.58055  0.28951  Biso   1.000  Cu
  Cu9      1.0000 0.10340  0.97962  0.92226  Biso   1.000  Cu
  Cu10     1.0000 0.18509  0.70896  0.41945  Biso   1.000  Cu
  Cu11     1.0000 0.10340  0.94264  0.02038  Biso   1.000  Cu
  Cu12     1.0000 0.18509  0.71049  0.29104  Biso   1.000  Cu
  Cu13     1.0000 0.39660  0.97962  0.05736  Biso   1.000  Cu
  Cu14     1.0000 0.31491  0.70896  0.28951  Biso   1.000  Cu
  Cu15     1.0000 0.39660  0.94264  0.92226  Biso   1.000  Cu
  Cu16     1.0000 0.31491  0.71049  0.41945  Biso   1.000  Cu
  Cu17     1.0000 0.39660  0.07774  0.02038  Biso   1.000  Cu
  Cu18     1.0000 0.31491  0.58055  0.29104  Biso   1.000  Cu
  Cu19     1.0000 0.89660  0.02038  0.94264  Biso   1.000  Cu
  Cu20     1.0000 0.81491  0.29104  0.71049  Biso   1.000  Cu
  Cu21     1.0000 0.89660  0.05736  0.07774  Biso   1.000  Cu
  Cu22     1.0000 0.81491  0.28951  0.58055  Biso   1.000  Cu
  Cu23     1.0000 0.89660  0.92226  0.97962  Biso   1.000  Cu
  Cu24     1.0000 0.81491  0.41945  0.70896  Biso   1.000  Cu
  Cu25     1.0000 0.50000  0.00000  0.00000  Biso   1.000  Cu
  Cu26     1.0000 0.00000  0.00000  0.00000  Biso   1.000  Cu
  H1       1.0000 0.54540  0.81040  0.75520  Biso   1.000  H
  H2       1.0000 0.44700  0.92750  0.71670  Biso   1.000  H
  H3       1.0000 0.46710  0.99160  0.75910  Biso   1.000  H
  H4       1.0000 0.41840  0.96670  0.77700  Biso   1.000  H
  H5       1.0000 0.50530  0.79950  0.67260  Biso   1.000  H
  H6       1.0000 0.50650  0.85600  0.66660  Biso   1.000  H
  H7       1.0000 0.45340  0.83630  0.68280  Biso   1.000  H
  H8       1.0000 0.58640  0.78210  0.80390  Biso   1.000  H
  H9       1.0000 0.71390  0.70580  0.92570  Biso   1.000  H
  H10      1.0000 0.62620  0.70260  0.79630  Biso   1.000  H
  H11      1.0000 0.69000  0.86940  0.09310  Biso   1.000  H
  H12      1.0000 0.64890  0.81970  0.05560  Biso   1.000  H
  H13      1.0000 0.65150  0.87640  0.05010  Biso   1.000  H
  H14      1.0000 0.76790  0.88620  0.04390  Biso   1.000  H
  H15      1.0000 0.73070  0.89200  0.99920  Biso   1.000  H
  H16      1.0000 0.77670  0.84550  0.97600  Biso   1.000  H
  H17      1.0000 0.76270  0.80050  0.05830  Biso   1.000  H
  H18      1.0000 0.77360  0.75940  0.99090  Biso   1.000  H
  H19      1.0000 0.72410  0.74830  0.02020  Biso   1.000  H
  H20      1.0000 0.67160  0.62080  0.73980  Biso   1.000  H
  H21      1.0000 0.67310  0.51880  0.68600  Biso   1.000  H
  H22      1.0000 0.67940  0.51320  0.83610  Biso   1.000  H
  H23      1.0000 0.67790  0.61520  0.88990  Biso   1.000  H
  H24      1.0000 0.54540  0.94480  0.18960  Biso   1.000  H
  H25      1.0000 0.44700  0.78920  0.07250  Biso   1.000  H
  H26      1.0000 0.46710  0.76750  0.00840  Biso   1.000  H
  H27      1.0000 0.41840  0.81030  0.03330  Biso   1.000  H
  H28      1.0000 0.50530  0.87310  0.20050  Biso   1.000  H
  H29      1.0000 0.50650  0.81060  0.14400  Biso   1.000  H
  H30      1.0000 0.45340  0.84650  0.16370  Biso   1.000  H
  H31      1.0000 0.58640  0.02180  0.21790  Biso   1.000  H
  H32      1.0000 0.71390  0.21990  0.29420  Biso   1.000  H
  H33      1.0000 0.62620  0.09370  0.29740  Biso   1.000  H
  H34      1.0000 0.69000  0.22370  0.13060  Biso   1.000  H
  H35      1.0000 0.64890  0.23590  0.18030  Biso   1.000  H
  H36      1.0000 0.65150  0.17370  0.12360  Biso   1.000  H
  H37      1.0000 0.76790  0.15770  0.11380  Biso   1.000  H
  H38      1.0000 0.73070  0.10720  0.10800  Biso   1.000  H
  H39      1.0000 0.77670  0.13050  0.15450  Biso   1.000  H
  H40      1.0000 0.76270  0.25780  0.19950  Biso   1.000  H
  H41      1.0000 0.77360  0.23150  0.24060  Biso   1.000  H
  H42      1.0000 0.72410  0.27190  0.25170  Biso   1.000  H
  H43      1.0000 0.67160  0.11900  0.37920  Biso   1.000  H
  H44      1.0000 0.67310  0.16720  0.48120  Biso   1.000  H
  H45      1.0000 0.67940  0.32290  0.48680  Biso   1.000  H
  H46      1.0000 0.67790  0.27470  0.38480  Biso   1.000  H
  H47      1.0000 0.54540  0.24480  0.05520  Biso   1.000  H
  H48      1.0000 0.44700  0.28330  0.21080  Biso   1.000  H
  H49      1.0000 0.46710  0.24090  0.23250  Biso   1.000  H
  H50      1.0000 0.41840  0.22300  0.18970  Biso   1.000  H
  H51      1.0000 0.50530  0.32740  0.12690  Biso   1.000  H
  H52      1.0000 0.50650  0.33340  0.18940  Biso   1.000  H
  H53      1.0000 0.45340  0.31720  0.15350  Biso   1.000  H
  H54      1.0000 0.58640  0.19610  0.97820  Biso   1.000  H
  H55      1.0000 0.71390  0.07430  0.78010  Biso   1.000  H
  H56      1.0000 0.62620  0.20370  0.90630  Biso   1.000  H
  H57      1.0000 0.69000  0.90690  0.77630  Biso   1.000  H
  H58      1.0000 0.64890  0.94440  0.76410  Biso   1.000  H
  H59      1.0000 0.65150  0.94990  0.82630  Biso   1.000  H
  H60      1.0000 0.76790  0.95610  0.84230  Biso   1.000  H
  H61      1.0000 0.73070  0.00080  0.89280  Biso   1.000  H
  H62      1.0000 0.77670  0.02400  0.86950  Biso   1.000  H
  H63      1.0000 0.76270  0.94170  0.74220  Biso   1.000  H
  H64      1.0000 0.77360  0.00910  0.76850  Biso   1.000  H
  H65      1.0000 0.72410  0.97980  0.72810  Biso   1.000  H
  H66      1.0000 0.67160  0.26020  0.88100  Biso   1.000  H
  H67      1.0000 0.67310  0.31400  0.83280  Biso   1.000  H
  H68      1.0000 0.67940  0.16390  0.67710  Biso   1.000  H
  H69      1.0000 0.67790  0.11010  0.72530  Biso   1.000  H
  H70      1.0000 0.04540  0.18960  0.24480  Biso   1.000  H
  H71      1.0000 0.94700  0.07250  0.28330  Biso   1.000  H
  H72      1.0000 0.96710  0.00840  0.24090  Biso   1.000  H
  H73      1.0000 0.91840  0.03330  0.22300  Biso   1.000  H
  H74      1.0000 0.00530  0.20050  0.32740  Biso   1.000  H
  H75      1.0000 0.00650  0.14400  0.33340  Biso   1.000  H
  H76      1.0000 0.95340  0.16370  0.31720  Biso   1.000  H
  H77      1.0000 0.08640  0.21790  0.19610  Biso   1.000  H
  H78      1.0000 0.21390  0.29420  0.07430  Biso   1.000  H
  H79      1.0000 0.12620  0.29740  0.20370  Biso   1.000  H
  H80      1.0000 0.19000  0.13060  0.90690  Biso   1.000  H
  H81      1.0000 0.14890  0.18030  0.94440  Biso   1.000  H
  H82      1.0000 0.15150  0.12360  0.94990  Biso   1.000  H
  H83      1.0000 0.26790  0.11380  0.95610  Biso   1.000  H
  H84      1.0000 0.23070  0.10800  0.00080  Biso   1.000  H
  H85      1.0000 0.27670  0.15450  0.02400  Biso   1.000  H
  H86      1.0000 0.26270  0.19950  0.94170  Biso   1.000  H
  H87      1.0000 0.27360  0.24060  0.00910  Biso   1.000  H
  H88      1.0000 0.22410  0.25170  0.97980  Biso   1.000  H
  H89      1.0000 0.17160  0.37920  0.26020  Biso   1.000  H
  H90      1.0000 0.17310  0.48120  0.31400  Biso   1.000  H
  H91      1.0000 0.17940  0.48680  0.16390  Biso   1.000  H
  H92      1.0000 0.17790  0.38480  0.11010  Biso   1.000  H
  H93      1.0000 0.04540  0.05520  0.81040  Biso   1.000  H
  H94      1.0000 0.94700  0.21080  0.92750  Biso   1.000  H
  H95      1.0000 0.96710  0.23250  0.99160  Biso   1.000  H
  H96      1.0000 0.91840  0.18970  0.96670  Biso   1.000  H
  H97      1.0000 0.00530  0.12690  0.79950  Biso   1.000  H
  H98      1.0000 0.00650  0.18940  0.85600  Biso   1.000  H
  H99      1.0000 0.95340  0.15350  0.83630  Biso   1.000  H
  H100     1.0000 0.08640  0.97820  0.78210  Biso   1.000  H
  H101     1.0000 0.21390  0.78010  0.70580  Biso   1.000  H
  H102     1.0000 0.12620  0.90630  0.70260  Biso   1.000  H
  H103     1.0000 0.19000  0.77630  0.86940  Biso   1.000  H
  H104     1.0000 0.14890  0.76410  0.81970  Biso   1.000  H
  H105     1.0000 0.15150  0.82630  0.87640  Biso   1.000  H
  H106     1.0000 0.26790  0.84230  0.88620  Biso   1.000  H
  H107     1.0000 0.23070  0.89280  0.89200  Biso   1.000  H
  H108     1.0000 0.27670  0.86950  0.84550  Biso   1.000  H
  H109     1.0000 0.26270  0.74220  0.80050  Biso   1.000  H
  H110     1.0000 0.27360  0.76850  0.75940  Biso   1.000  H
  H111     1.0000 0.22410  0.72810  0.74830  Biso   1.000  H
  H112     1.0000 0.17160  0.88100  0.62080  Biso   1.000  H
  H113     1.0000 0.17310  0.83280  0.51880  Biso   1.000  H
  H114     1.0000 0.17940  0.67710  0.51320  Biso   1.000  H
  H115     1.0000 0.17790  0.72530  0.61520  Biso   1.000  H
  H116     1.0000 0.04540  0.75520  0.94480  Biso   1.000  H
  H117     1.0000 0.94700  0.71670  0.78920  Biso   1.000  H
  H118     1.0000 0.96710  0.75910  0.76750  Biso   1.000  H
  H119     1.0000 0.91840  0.77700  0.81030  Biso   1.000  H
  H120     1.0000 0.00530  0.67260  0.87310  Biso   1.000  H
  H121     1.0000 0.00650  0.66660  0.81060  Biso   1.000  H
  H122     1.0000 0.95340  0.68280  0.84650  Biso   1.000  H
  H123     1.0000 0.08640  0.80390  0.02180  Biso   1.000  H
  H124     1.0000 0.21390  0.92570  0.21990  Biso   1.000  H
  H125     1.0000 0.12620  0.79630  0.09370  Biso   1.000  H
  H126     1.0000 0.19000  0.09310  0.22370  Biso   1.000  H
  H127     1.0000 0.14890  0.05560  0.23590  Biso   1.000  H
  H128     1.0000 0.15150  0.05010  0.17370  Biso   1.000  H
  H129     1.0000 0.26790  0.04390  0.15770  Biso   1.000  H
  H130     1.0000 0.23070  0.99920  0.10720  Biso   1.000  H
  H131     1.0000 0.27670  0.97600  0.13050  Biso   1.000  H
  H132     1.0000 0.26270  0.05830  0.25780  Biso   1.000  H
  H133     1.0000 0.27360  0.99090  0.23150  Biso   1.000  H
  H134     1.0000 0.22410  0.02020  0.27190  Biso   1.000  H
  H135     1.0000 0.17160  0.73980  0.11900  Biso   1.000  H
  H136     1.0000 0.17310  0.68600  0.16720  Biso   1.000  H
  H137     1.0000 0.17940  0.83610  0.32290  Biso   1.000  H
  H138     1.0000 0.17790  0.88990  0.27470  Biso   1.000  H
  H139     1.0000 0.45460  0.05520  0.24480  Biso   1.000  H
  H140     1.0000 0.55300  0.21080  0.28330  Biso   1.000  H
  H141     1.0000 0.53290  0.23250  0.24090  Biso   1.000  H
  H142     1.0000 0.58160  0.18970  0.22300  Biso   1.000  H
  H143     1.0000 0.49470  0.12690  0.32740  Biso   1.000  H
  H144     1.0000 0.49350  0.18940  0.33340  Biso   1.000  H
  H145     1.0000 0.54660  0.15350  0.31720  Biso   1.000  H
  H146     1.0000 0.41360  0.97820  0.19610  Biso   1.000  H
  H147     1.0000 0.28610  0.78010  0.07430  Biso   1.000  H
  H148     1.0000 0.37380  0.90630  0.20370  Biso   1.000  H
  H149     1.0000 0.31000  0.77630  0.90690  Biso   1.000  H
  H150     1.0000 0.35110  0.76410  0.94440  Biso   1.000  H
  H151     1.0000 0.34850  0.82630  0.94990  Biso   1.000  H
  H152     1.0000 0.23210  0.84230  0.95610  Biso   1.000  H
  H153     1.0000 0.26930  0.89280  0.00080  Biso   1.000  H
  H154     1.0000 0.22330  0.86950  0.02400  Biso   1.000  H
  H155     1.0000 0.23730  0.74220  0.94170  Biso   1.000  H
  H156     1.0000 0.22640  0.76850  0.00910  Biso   1.000  H
  H157     1.0000 0.27590  0.72810  0.97980  Biso   1.000  H
  H158     1.0000 0.32840  0.88100  0.26020  Biso   1.000  H
  H159     1.0000 0.32690  0.83280  0.31400  Biso   1.000  H
  H160     1.0000 0.32060  0.67710  0.16390  Biso   1.000  H
  H161     1.0000 0.32210  0.72530  0.11010  Biso   1.000  H
  H162     1.0000 0.45460  0.75520  0.81040  Biso   1.000  H
  H163     1.0000 0.55300  0.71670  0.92750  Biso   1.000  H
  H164     1.0000 0.53290  0.75910  0.99160  Biso   1.000  H
  H165     1.0000 0.58160  0.77700  0.96670  Biso   1.000  H
  H166     1.0000 0.49470  0.67260  0.79950  Biso   1.000  H
  H167     1.0000 0.49350  0.66660  0.85600  Biso   1.000  H
  H168     1.0000 0.54660  0.68280  0.83630  Biso   1.000  H
  H169     1.0000 0.41360  0.80390  0.78210  Biso   1.000  H
  H170     1.0000 0.28610  0.92570  0.70580  Biso   1.000  H
  H171     1.0000 0.37380  0.79630  0.70260  Biso   1.000  H
  H172     1.0000 0.31000  0.09310  0.86940  Biso   1.000  H
  H173     1.0000 0.35110  0.05560  0.81970  Biso   1.000  H
  H174     1.0000 0.34850  0.05010  0.87640  Biso   1.000  H
  H175     1.0000 0.23210  0.04390  0.88620  Biso   1.000  H
  H176     1.0000 0.26930  0.99920  0.89200  Biso   1.000  H
  H177     1.0000 0.22330  0.97600  0.84550  Biso   1.000  H
  H178     1.0000 0.23730  0.05830  0.80050  Biso   1.000  H
  H179     1.0000 0.22640  0.99090  0.75940  Biso   1.000  H
  H180     1.0000 0.27590  0.02020  0.74830  Biso   1.000  H
  H181     1.0000 0.32840  0.73980  0.62080  Biso   1.000  H
  H182     1.0000 0.32690  0.68600  0.51880  Biso   1.000  H
  H183     1.0000 0.32060  0.83610  0.51320  Biso   1.000  H
  H184     1.0000 0.32210  0.88990  0.61520  Biso   1.000  H
  H185     1.0000 0.45460  0.18960  0.94480  Biso   1.000  H
  H186     1.0000 0.55300  0.07250  0.78920  Biso   1.000  H
  H187     1.0000 0.53290  0.00840  0.76750  Biso   1.000  H
  H188     1.0000 0.58160  0.03330  0.81030  Biso   1.000  H
  H189     1.0000 0.49470  0.20050  0.87310  Biso   1.000  H
  H190     1.0000 0.49350  0.14400  0.81060  Biso   1.000  H
  H191     1.0000 0.54660  0.16370  0.84650  Biso   1.000  H
  H192     1.0000 0.41360  0.21790  0.02180  Biso   1.000  H
  H193     1.0000 0.28610  0.29420  0.21990  Biso   1.000  H
  H194     1.0000 0.37380  0.29740  0.09370  Biso   1.000  H
  H195     1.0000 0.31000  0.13060  0.22370  Biso   1.000  H
  H196     1.0000 0.35110  0.18030  0.23590  Biso   1.000  H
  H197     1.0000 0.34850  0.12360  0.17370  Biso   1.000  H
  H198     1.0000 0.23210  0.11380  0.15770  Biso   1.000  H
  H199     1.0000 0.26930  0.10800  0.10720  Biso   1.000  H
  H200     1.0000 0.22330  0.15450  0.13050  Biso   1.000  H
  H201     1.0000 0.23730  0.19950  0.25780  Biso   1.000  H
  H202     1.0000 0.22640  0.24060  0.23150  Biso   1.000  H
  H203     1.0000 0.27590  0.25170  0.27190  Biso   1.000  H
  H204     1.0000 0.32840  0.37920  0.11900  Biso   1.000  H
  H205     1.0000 0.32690  0.48120  0.16720  Biso   1.000  H
  H206     1.0000 0.32060  0.48680  0.32290  Biso   1.000  H
  H207     1.0000 0.32210  0.38480  0.27470  Biso   1.000  H
  H208     1.0000 0.95460  0.94480  0.75520  Biso   1.000  H
  H209     1.0000 0.05300  0.78920  0.71670  Biso   1.000  H
  H210     1.0000 0.03290  0.76750  0.75910  Biso   1.000  H
  H211     1.0000 0.08160  0.81030  0.77700  Biso   1.000  H
  H212     1.0000 0.99470  0.87310  0.67260  Biso   1.000  H
  H213     1.0000 0.99350  0.81060  0.66660  Biso   1.000  H
  H214     1.0000 0.04660  0.84650  0.68280  Biso   1.000  H
  H215     1.0000 0.91360  0.02180  0.80390  Biso   1.000  H
  H216     1.0000 0.78610  0.21990  0.92570  Biso   1.000  H
  H217     1.0000 0.87380  0.09370  0.79630  Biso   1.000  H
  H218     1.0000 0.81000  0.22370  0.09310  Biso   1.000  H
  H219     1.0000 0.85110  0.23590  0.05560  Biso   1.000  H
  H220     1.0000 0.84850  0.17370  0.05010  Biso   1.000  H
  H221     1.0000 0.73210  0.15770  0.04390  Biso   1.000  H
  H222     1.0000 0.76930  0.10720  0.99920  Biso   1.000  H
  H223     1.0000 0.72330  0.13050  0.97600  Biso   1.000  H
  H224     1.0000 0.73730  0.25780  0.05830  Biso   1.000  H
  H225     1.0000 0.72640  0.23150  0.99090  Biso   1.000  H
  H226     1.0000 0.77590  0.27190  0.02020  Biso   1.000  H
  H227     1.0000 0.82840  0.11900  0.73980  Biso   1.000  H
  H228     1.0000 0.82690  0.16720  0.68600  Biso   1.000  H
  H229     1.0000 0.82060  0.32290  0.83610  Biso   1.000  H
  H230     1.0000 0.82210  0.27470  0.88990  Biso   1.000  H
  H231     1.0000 0.95460  0.24480  0.18960  Biso   1.000  H
  H232     1.0000 0.05300  0.28330  0.07250  Biso   1.000  H
  H233     1.0000 0.03290  0.24090  0.00840  Biso   1.000  H
  H234     1.0000 0.08160  0.22300  0.03330  Biso   1.000  H
  H235     1.0000 0.99470  0.32740  0.20050  Biso   1.000  H
  H236     1.0000 0.99350  0.33340  0.14400  Biso   1.000  H
  H237     1.0000 0.04660  0.31720  0.16370  Biso   1.000  H
  H238     1.0000 0.91360  0.19610  0.21790  Biso   1.000  H
  H239     1.0000 0.78610  0.07430  0.29420  Biso   1.000  H
  H240     1.0000 0.87380  0.20370  0.29740  Biso   1.000  H
  H241     1.0000 0.81000  0.90690  0.13060  Biso   1.000  H
  H242     1.0000 0.85110  0.94440  0.18030  Biso   1.000  H
  H243     1.0000 0.84850  0.94990  0.12360  Biso   1.000  H
  H244     1.0000 0.73210  0.95610  0.11380  Biso   1.000  H
  H245     1.0000 0.76930  0.00080  0.10800  Biso   1.000  H
  H246     1.0000 0.72330  0.02400  0.15450  Biso   1.000  H
  H247     1.0000 0.73730  0.94170  0.19950  Biso   1.000  H
  H248     1.0000 0.72640  0.00910  0.24060  Biso   1.000  H
  H249     1.0000 0.77590  0.97980  0.25170  Biso   1.000  H
  H250     1.0000 0.82840  0.26020  0.37920  Biso   1.000  H
  H251     1.0000 0.82690  0.31400  0.48120  Biso   1.000  H
  H252     1.0000 0.82060  0.16390  0.48680  Biso   1.000  H
  H253     1.0000 0.82210  0.11010  0.38480  Biso   1.000  H
  H254     1.0000 0.95460  0.81040  0.05520  Biso   1.000  H
  H255     1.0000 0.05300  0.92750  0.21080  Biso   1.000  H
  H256     1.0000 0.03290  0.99160  0.23250  Biso   1.000  H
  H257     1.0000 0.08160  0.96670  0.18970  Biso   1.000  H
  H258     1.0000 0.99470  0.79950  0.12690  Biso   1.000  H
  H259     1.0000 0.99350  0.85600  0.18940  Biso   1.000  H
  H260     1.0000 0.04660  0.83630  0.15350  Biso   1.000  H
  H261     1.0000 0.91360  0.78210  0.97820  Biso   1.000  H
  H262     1.0000 0.78610  0.70580  0.78010  Biso   1.000  H
  H263     1.0000 0.87380  0.70260  0.90630  Biso   1.000  H
  H264     1.0000 0.81000  0.86940  0.77630  Biso   1.000  H
  H265     1.0000 0.85110  0.81970  0.76410  Biso   1.000  H
  H266     1.0000 0.84850  0.87640  0.82630  Biso   1.000  H
  H267     1.0000 0.73210  0.88620  0.84230  Biso   1.000  H
  H268     1.0000 0.76930  0.89200  0.89280  Biso   1.000  H
  H269     1.0000 0.72330  0.84550  0.86950  Biso   1.000  H
  H270     1.0000 0.73730  0.80050  0.74220  Biso   1.000  H
  H271     1.0000 0.72640  0.75940  0.76850  Biso   1.000  H
  H272     1.0000 0.77590  0.74830  0.72810  Biso   1.000  H
  H273     1.0000 0.82840  0.62080  0.88100  Biso   1.000  H
  H274     1.0000 0.82690  0.51880  0.83280  Biso   1.000  H
  H275     1.0000 0.82060  0.51320  0.67710  Biso   1.000  H
  H276     1.0000 0.82210  0.61520  0.72530  Biso   1.000  H
  C1       1.0000 0.53468  0.94066  0.87008  Biso   1.000  C
  C2       1.0000 0.55011  0.88218  0.83645  Biso   1.000  C
  C3       1.0000 0.53507  0.84957  0.77774  Biso   1.000  C
  C4       1.0000 0.50459  0.87545  0.75266  Biso   1.000  C
  C5       1.0000 0.48916  0.93393  0.78630  Biso   1.000  C
  C6       1.0000 0.50420  0.96654  0.84501  Biso   1.000  C
  C7       1.0000 0.45200  0.95710  0.75710  Biso   1.000  C
  C8       1.0000 0.49120  0.83840  0.68770  Biso   1.000  C
  C9       1.0000 0.59850  0.80780  0.84170  Biso   1.000  C
  C10      1.0000 0.63248  0.78362  0.86805  Biso   1.000  C
  C11      1.0000 0.65454  0.81468  0.92398  Biso   1.000  C
  C12      1.0000 0.68505  0.78550  0.94554  Biso   1.000  C
  C13      1.0000 0.69349  0.72528  0.91120  Biso   1.000  C
  C14      1.0000 0.67143  0.69422  0.85527  Biso   1.000  C
  C15      1.0000 0.64092  0.72340  0.83370  Biso   1.000  C
  C16      1.0000 0.71270  0.81910  0.00650  Biso   1.000  C
  C17      1.0000 0.67200  0.84890  0.05590  Biso   1.000  C
  C18      1.0000 0.75060  0.86500  0.00640  Biso   1.000  C
  C19      1.0000 0.74650  0.77790  0.02030  Biso   1.000  C
  C20      1.0000 0.67460  0.62813  0.82023  Biso   1.000  C
  C21      1.0000 0.67320  0.59924  0.75913  Biso   1.000  C
  C22      1.0000 0.67410  0.53814  0.72684  Biso   1.000  C
  C23      1.0000 0.67780  0.53479  0.81680  Biso   1.000  C
  C24      1.0000 0.67690  0.59590  0.84907  Biso   1.000  C
  C25      1.0000 0.53468  0.92942  0.05934  Biso   1.000  C
  C26      1.0000 0.55011  0.95427  0.11782  Biso   1.000  C
  C27      1.0000 0.53507  0.92817  0.15043  Biso   1.000  C
  C28      1.0000 0.50459  0.87721  0.12455  Biso   1.000  C
  C29      1.0000 0.48916  0.85237  0.06607  Biso   1.000  C
  C30      1.0000 0.50420  0.87847  0.03346  Biso   1.000  C
  C31      1.0000 0.45200  0.80000  0.04290  Biso   1.000  C
  C32      1.0000 0.49120  0.84930  0.16160  Biso   1.000  C
  C33      1.0000 0.59850  0.03390  0.19220  Biso   1.000  C
  C34      1.0000 0.63248  0.08443  0.21638  Biso   1.000  C
  C35      1.0000 0.65454  0.10930  0.18532  Biso   1.000  C
  C36      1.0000 0.68505  0.16004  0.21450  Biso   1.000  C
  C37      1.0000 0.69349  0.18592  0.27472  Biso   1.000  C
  C38      1.0000 0.67143  0.16105  0.30578  Biso   1.000  C
  C39      1.0000 0.64092  0.11030  0.27660  Biso   1.000  C
  C40      1.0000 0.71270  0.18740  0.18090  Biso   1.000  C
  C41      1.0000 0.67200  0.20700  0.15110  Biso   1.000  C
  C42      1.0000 0.75060  0.14140  0.13500  Biso   1.000  C
  C43      1.0000 0.74650  0.24240  0.22210  Biso   1.000  C
  C44      1.0000 0.67460  0.19210  0.37187  Biso   1.000  C
  C45      1.0000 0.67320  0.15989  0.40076  Biso   1.000  C
  C46      1.0000 0.67410  0.18870  0.46186  Biso   1.000  C
  C47      1.0000 0.67780  0.28201  0.46521  Biso   1.000  C
  C48      1.0000 0.67690  0.25317  0.40410  Biso   1.000  C
  C49      1.0000 0.53468  0.12992  0.07058  Biso   1.000  C
  C50      1.0000 0.55011  0.16355  0.04573  Biso   1.000  C
  C51      1.0000 0.53507  0.22226  0.07183  Biso   1.000  C
  C52      1.0000 0.50459  0.24734  0.12279  Biso   1.000  C
  C53      1.0000 0.48916  0.21370  0.14763  Biso   1.000  C
  C54      1.0000 0.50420  0.15499  0.12153  Biso   1.000  C
  C55      1.0000 0.45200  0.24290  0.20000  Biso   1.000  C
  C56      1.0000 0.49120  0.31230  0.15070  Biso   1.000  C
  C57      1.0000 0.59850  0.15830  0.96610  Biso   1.000  C
  C58      1.0000 0.63248  0.13195  0.91557  Biso   1.000  C
  C59      1.0000 0.65454  0.07602  0.89070  Biso   1.000  C
  C60      1.0000 0.68505  0.05446  0.83996  Biso   1.000  C
  C61      1.0000 0.69349  0.08880  0.81408  Biso   1.000  C
  C62      1.0000 0.67143  0.14473  0.83895  Biso   1.000  C
  C63      1.0000 0.64092  0.16630  0.88970  Biso   1.000  C
  C64      1.0000 0.71270  0.99350  0.81260  Biso   1.000  C
  C65      1.0000 0.67200  0.94410  0.79300  Biso   1.000  C
  C66      1.0000 0.75060  0.99360  0.85860  Biso   1.000  C
  C67      1.0000 0.74650  0.97970  0.75760  Biso   1.000  C
  C68      1.0000 0.67460  0.17977  0.80790  Biso   1.000  C
  C69      1.0000 0.67320  0.24087  0.84011  Biso   1.000  C
  C70      1.0000 0.67410  0.27316  0.81130  Biso   1.000  C
  C71      1.0000 0.67780  0.18320  0.71799  Biso   1.000  C
  C72      1.0000 0.67690  0.15093  0.74683  Biso   1.000  C
  C73      1.0000 0.03468  0.05934  0.12992  Biso   1.000  C
  C74      1.0000 0.05011  0.11782  0.16355  Biso   1.000  C
  C75      1.0000 0.03507  0.15043  0.22226  Biso   1.000  C
  C76      1.0000 0.00459  0.12455  0.24734  Biso   1.000  C
  C77      1.0000 0.98916  0.06607  0.21370  Biso   1.000  C
  C78      1.0000 0.00420  0.03346  0.15499  Biso   1.000  C
  C79      1.0000 0.95200  0.04290  0.24290  Biso   1.000  C
  C80      1.0000 0.99120  0.16160  0.31230  Biso   1.000  C
  C81      1.0000 0.09850  0.19220  0.15830  Biso   1.000  C
  C82      1.0000 0.13248  0.21638  0.13195  Biso   1.000  C
  C83      1.0000 0.15454  0.18532  0.07602  Biso   1.000  C
  C84      1.0000 0.18505  0.21450  0.05446  Biso   1.000  C
  C85      1.0000 0.19349  0.27472  0.08880  Biso   1.000  C
  C86      1.0000 0.17143  0.30578  0.14473  Biso   1.000  C
  C87      1.0000 0.14092  0.27660  0.16630  Biso   1.000  C
  C88      1.0000 0.21270  0.18090  0.99350  Biso   1.000  C
  C89      1.0000 0.17200  0.15110  0.94410  Biso   1.000  C
  C90      1.0000 0.25060  0.13500  0.99360  Biso   1.000  C
  C91      1.0000 0.24650  0.22210  0.97970  Biso   1.000  C
  C92      1.0000 0.17460  0.37187  0.17977  Biso   1.000  C
  C93      1.0000 0.17320  0.40076  0.24087  Biso   1.000  C
  C94      1.0000 0.17410  0.46186  0.27316  Biso   1.000  C
  C95      1.0000 0.17780  0.46521  0.18320  Biso   1.000  C
  C96      1.0000 0.17690  0.40410  0.15093  Biso   1.000  C
  C97      1.0000 0.03468  0.07058  0.94066  Biso   1.000  C
  C98      1.0000 0.05011  0.04573  0.88218  Biso   1.000  C
  C99      1.0000 0.03507  0.07183  0.84957  Biso   1.000  C
  C100     1.0000 0.00459  0.12279  0.87545  Biso   1.000  C
  C101     1.0000 0.98916  0.14763  0.93393  Biso   1.000  C
  C102     1.0000 0.00420  0.12153  0.96654  Biso   1.000  C
  C103     1.0000 0.95200  0.20000  0.95710  Biso   1.000  C
  C104     1.0000 0.99120  0.15070  0.83840  Biso   1.000  C
  C105     1.0000 0.09850  0.96610  0.80780  Biso   1.000  C
  C106     1.0000 0.13248  0.91557  0.78362  Biso   1.000  C
  C107     1.0000 0.15454  0.89070  0.81468  Biso   1.000  C
  C108     1.0000 0.18505  0.83996  0.78550  Biso   1.000  C
  C109     1.0000 0.19349  0.81408  0.72528  Biso   1.000  C
  C110     1.0000 0.17143  0.83895  0.69422  Biso   1.000  C
  C111     1.0000 0.14092  0.88970  0.72340  Biso   1.000  C
  C112     1.0000 0.21270  0.81260  0.81910  Biso   1.000  C
  C113     1.0000 0.17200  0.79300  0.84890  Biso   1.000  C
  C114     1.0000 0.25060  0.85860  0.86500  Biso   1.000  C
  C115     1.0000 0.24650  0.75760  0.77790  Biso   1.000  C
  C116     1.0000 0.17460  0.80790  0.62813  Biso   1.000  C
  C117     1.0000 0.17320  0.84011  0.59924  Biso   1.000  C
  C118     1.0000 0.17410  0.81130  0.53814  Biso   1.000  C
  C119     1.0000 0.17780  0.71799  0.53479  Biso   1.000  C
  C120     1.0000 0.17690  0.74683  0.59590  Biso   1.000  C
  C121     1.0000 0.03468  0.87008  0.92942  Biso   1.000  C
  C122     1.0000 0.05011  0.83645  0.95427  Biso   1.000  C
  C123     1.0000 0.03507  0.77774  0.92817  Biso   1.000  C
  C124     1.0000 0.00459  0.75266  0.87721  Biso   1.000  C
  C125     1.0000 0.98916  0.78630  0.85237  Biso   1.000  C
  C126     1.0000 0.00420  0.84501  0.87847  Biso   1.000  C
  C127     1.0000 0.95200  0.75710  0.80000  Biso   1.000  C
  C128     1.0000 0.99120  0.68770  0.84930  Biso   1.000  C
  C129     1.0000 0.09850  0.84170  0.03390  Biso   1.000  C
  C130     1.0000 0.13248  0.86805  0.08443  Biso   1.000  C
  C131     1.0000 0.15454  0.92398  0.10930  Biso   1.000  C
  C132     1.0000 0.18505  0.94554  0.16004  Biso   1.000  C
  C133     1.0000 0.19349  0.91120  0.18592  Biso   1.000  C
  C134     1.0000 0.17143  0.85527  0.16105  Biso   1.000  C
  C135     1.0000 0.14092  0.83370  0.11030  Biso   1.000  C
  C136     1.0000 0.21270  0.00650  0.18740  Biso   1.000  C
  C137     1.0000 0.17200  0.05590  0.20700  Biso   1.000  C
  C138     1.0000 0.25060  0.00640  0.14140  Biso   1.000  C
  C139     1.0000 0.24650  0.02030  0.24240  Biso   1.000  C
  C140     1.0000 0.17460  0.82023  0.19210  Biso   1.000  C
  C141     1.0000 0.17320  0.75913  0.15989  Biso   1.000  C
  C142     1.0000 0.17410  0.72684  0.18870  Biso   1.000  C
  C143     1.0000 0.17780  0.81680  0.28201  Biso   1.000  C
  C144     1.0000 0.17690  0.84907  0.25317  Biso   1.000  C
  C145     1.0000 0.46532  0.07058  0.12992  Biso   1.000  C
  C146     1.0000 0.44989  0.04573  0.16355  Biso   1.000  C
  C147     1.0000 0.46493  0.07183  0.22226  Biso   1.000  C
  C148     1.0000 0.49541  0.12279  0.24734  Biso   1.000  C
  C149     1.0000 0.51084  0.14763  0.21370  Biso   1.000  C
  C150     1.0000 0.49580  0.12153  0.15499  Biso   1.000  C
  C151     1.0000 0.54800  0.20000  0.24290  Biso   1.000  C
  C152     1.0000 0.50880  0.15070  0.31230  Biso   1.000  C
  C153     1.0000 0.40150  0.96610  0.15830  Biso   1.000  C
  C154     1.0000 0.36752  0.91557  0.13195  Biso   1.000  C
  C155     1.0000 0.34546  0.89070  0.07602  Biso   1.000  C
  C156     1.0000 0.31495  0.83996  0.05446  Biso   1.000  C
  C157     1.0000 0.30651  0.81408  0.08880  Biso   1.000  C
  C158     1.0000 0.32857  0.83895  0.14473  Biso   1.000  C
  C159     1.0000 0.35908  0.88970  0.16630  Biso   1.000  C
  C160     1.0000 0.28730  0.81260  0.99350  Biso   1.000  C
  C161     1.0000 0.32800  0.79300  0.94410  Biso   1.000  C
  C162     1.0000 0.24940  0.85860  0.99360  Biso   1.000  C
  C163     1.0000 0.25350  0.75760  0.97970  Biso   1.000  C
  C164     1.0000 0.32540  0.80790  0.17977  Biso   1.000  C
  C165     1.0000 0.32680  0.84011  0.24087  Biso   1.000  C
  C166     1.0000 0.32590  0.81130  0.27316  Biso   1.000  C
  C167     1.0000 0.32220  0.71799  0.18320  Biso   1.000  C
  C168     1.0000 0.32310  0.74683  0.15093  Biso   1.000  C
  C169     1.0000 0.46532  0.87008  0.94066  Biso   1.000  C
  C170     1.0000 0.44989  0.83645  0.88218  Biso   1.000  C
  C171     1.0000 0.46493  0.77774  0.84957  Biso   1.000  C
  C172     1.0000 0.49541  0.75266  0.87545  Biso   1.000  C
  C173     1.0000 0.51084  0.78630  0.93393  Biso   1.000  C
  C174     1.0000 0.49580  0.84501  0.96654  Biso   1.000  C
  C175     1.0000 0.54800  0.75710  0.95710  Biso   1.000  C
  C176     1.0000 0.50880  0.68770  0.83840  Biso   1.000  C
  C177     1.0000 0.40150  0.84170  0.80780  Biso   1.000  C
  C178     1.0000 0.36752  0.86805  0.78362  Biso   1.000  C
  C179     1.0000 0.34546  0.92398  0.81468  Biso   1.000  C
  C180     1.0000 0.31495  0.94554  0.78550  Biso   1.000  C
  C181     1.0000 0.30651  0.91120  0.72528  Biso   1.000  C
  C182     1.0000 0.32857  0.85527  0.69422  Biso   1.000  C
  C183     1.0000 0.35908  0.83370  0.72340  Biso   1.000  C
  C184     1.0000 0.28730  0.00650  0.81910  Biso   1.000  C
  C185     1.0000 0.32800  0.05590  0.84890  Biso   1.000  C
  C186     1.0000 0.24940  0.00640  0.86500  Biso   1.000  C
  C187     1.0000 0.25350  0.02030  0.77790  Biso   1.000  C
  C188     1.0000 0.32540  0.82023  0.62813  Biso   1.000  C
  C189     1.0000 0.32680  0.75913  0.59924  Biso   1.000  C
  C190     1.0000 0.32590  0.72684  0.53814  Biso   1.000  C
  C191     1.0000 0.32220  0.81680  0.53479  Biso   1.000  C
  C192     1.0000 0.32310  0.84907  0.59590  Biso   1.000  C
  C193     1.0000 0.46532  0.05934  0.92942  Biso   1.000  C
  C194     1.0000 0.44989  0.11782  0.95427  Biso   1.000  C
  C195     1.0000 0.46493  0.15043  0.92817  Biso   1.000  C
  C196     1.0000 0.49541  0.12455  0.87721  Biso   1.000  C
  C197     1.0000 0.51084  0.06607  0.85237  Biso   1.000  C
  C198     1.0000 0.49580  0.03346  0.87847  Biso   1.000  C
  C199     1.0000 0.54800  0.04290  0.80000  Biso   1.000  C
  C200     1.0000 0.50880  0.16160  0.84930  Biso   1.000  C
  C201     1.0000 0.40150  0.19220  0.03390  Biso   1.000  C
  C202     1.0000 0.36752  0.21638  0.08443  Biso   1.000  C
  C203     1.0000 0.34546  0.18532  0.10930  Biso   1.000  C
  C204     1.0000 0.31495  0.21450  0.16004  Biso   1.000  C
  C205     1.0000 0.30651  0.27472  0.18592  Biso   1.000  C
  C206     1.0000 0.32857  0.30578  0.16105  Biso   1.000  C
  C207     1.0000 0.35908  0.27660  0.11030  Biso   1.000  C
  C208     1.0000 0.28730  0.18090  0.18740  Biso   1.000  C
  C209     1.0000 0.32800  0.15110  0.20700  Biso   1.000  C
  C210     1.0000 0.24940  0.13500  0.14140  Biso   1.000  C
  C211     1.0000 0.25350  0.22210  0.24240  Biso   1.000  C
  C212     1.0000 0.32540  0.37187  0.19210  Biso   1.000  C
  C213     1.0000 0.32680  0.40076  0.15989  Biso   1.000  C
  C214     1.0000 0.32590  0.46186  0.18870  Biso   1.000  C
  C215     1.0000 0.32220  0.46521  0.28201  Biso   1.000  C
  C216     1.0000 0.32310  0.40410  0.25317  Biso   1.000  C
  C217     1.0000 0.96532  0.92942  0.87008  Biso   1.000  C
  C218     1.0000 0.94989  0.95427  0.83645  Biso   1.000  C
  C219     1.0000 0.96493  0.92817  0.77774  Biso   1.000  C
  C220     1.0000 0.99541  0.87721  0.75266  Biso   1.000  C
  C221     1.0000 0.01084  0.85237  0.78630  Biso   1.000  C
  C222     1.0000 0.99580  0.87847  0.84501  Biso   1.000  C
  C223     1.0000 0.04800  0.80000  0.75710  Biso   1.000  C
  C224     1.0000 0.00880  0.84930  0.68770  Biso   1.000  C
  C225     1.0000 0.90150  0.03390  0.84170  Biso   1.000  C
  C226     1.0000 0.86752  0.08443  0.86805  Biso   1.000  C
  C227     1.0000 0.84546  0.10930  0.92398  Biso   1.000  C
  C228     1.0000 0.81495  0.16004  0.94554  Biso   1.000  C
  C229     1.0000 0.80651  0.18592  0.91120  Biso   1.000  C
  C230     1.0000 0.82857  0.16105  0.85527  Biso   1.000  C
  C231     1.0000 0.85908  0.11030  0.83370  Biso   1.000  C
  C232     1.0000 0.78730  0.18740  0.00650  Biso   1.000  C
  C233     1.0000 0.82800  0.20700  0.05590  Biso   1.000  C
  C234     1.0000 0.74940  0.14140  0.00640  Biso   1.000  C
  C235     1.0000 0.75350  0.24240  0.02030  Biso   1.000  C
  C236     1.0000 0.82540  0.19210  0.82023  Biso   1.000  C
  C237     1.0000 0.82680  0.15989  0.75913  Biso   1.000  C
  C238     1.0000 0.82590  0.18870  0.72684  Biso   1.000  C
  C239     1.0000 0.82220  0.28201  0.81680  Biso   1.000  C
  C240     1.0000 0.82310  0.25317  0.84907  Biso   1.000  C
  C241     1.0000 0.96532  0.12992  0.05934  Biso   1.000  C
  C242     1.0000 0.94989  0.16355  0.11782  Biso   1.000  C
  C243     1.0000 0.96493  0.22226  0.15043  Biso   1.000  C
  C244     1.0000 0.99541  0.24734  0.12455  Biso   1.000  C
  C245     1.0000 0.01084  0.21370  0.06607  Biso   1.000  C
  C246     1.0000 0.99580  0.15499  0.03346  Biso   1.000  C
  C247     1.0000 0.04800  0.24290  0.04290  Biso   1.000  C
  C248     1.0000 0.00880  0.31230  0.16160  Biso   1.000  C
  C249     1.0000 0.90150  0.15830  0.19220  Biso   1.000  C
  C250     1.0000 0.86752  0.13195  0.21638  Biso   1.000  C
  C251     1.0000 0.84546  0.07602  0.18532  Biso   1.000  C
  C252     1.0000 0.81495  0.05446  0.21450  Biso   1.000  C
  C253     1.0000 0.80651  0.08880  0.27472  Biso   1.000  C
  C254     1.0000 0.82857  0.14473  0.30578  Biso   1.000  C
  C255     1.0000 0.85908  0.16630  0.27660  Biso   1.000  C
  C256     1.0000 0.78730  0.99350  0.18090  Biso   1.000  C
  C257     1.0000 0.82800  0.94410  0.15110  Biso   1.000  C
  C258     1.0000 0.74940  0.99360  0.13500  Biso   1.000  C
  C259     1.0000 0.75350  0.97970  0.22210  Biso   1.000  C
  C260     1.0000 0.82540  0.17977  0.37187  Biso   1.000  C
  C261     1.0000 0.82680  0.24087  0.40076  Biso   1.000  C
  C262     1.0000 0.82590  0.27316  0.46186  Biso   1.000  C
  C263     1.0000 0.82220  0.18320  0.46521  Biso   1.000  C
  C264     1.0000 0.82310  0.15093  0.40410  Biso   1.000  C
  C265     1.0000 0.96532  0.94066  0.07058  Biso   1.000  C
  C266     1.0000 0.94989  0.88218  0.04573  Biso   1.000  C
  C267     1.0000 0.96493  0.84957  0.07183  Biso   1.000  C
  C268     1.0000 0.99541  0.87545  0.12279  Biso   1.000  C
  C269     1.0000 0.01084  0.93393  0.14763  Biso   1.000  C
  C270     1.0000 0.99580  0.96654  0.12153  Biso   1.000  C
  C271     1.0000 0.04800  0.95710  0.20000  Biso   1.000  C
  C272     1.0000 0.00880  0.83840  0.15070  Biso   1.000  C
  C273     1.0000 0.90150  0.80780  0.96610  Biso   1.000  C
  C274     1.0000 0.86752  0.78362  0.91557  Biso   1.000  C
  C275     1.0000 0.84546  0.81468  0.89070  Biso   1.000  C
  C276     1.0000 0.81495  0.78550  0.83996  Biso   1.000  C
  C277     1.0000 0.80651  0.72528  0.81408  Biso   1.000  C
  C278     1.0000 0.82857  0.69422  0.83895  Biso   1.000  C
  C279     1.0000 0.85908  0.72340  0.88970  Biso   1.000  C
  C280     1.0000 0.78730  0.81910  0.81260  Biso   1.000  C
  C281     1.0000 0.82800  0.84890  0.79300  Biso   1.000  C
  C282     1.0000 0.74940  0.86500  0.85860  Biso   1.000  C
  C283     1.0000 0.75350  0.77790  0.75760  Biso   1.000  C
  C284     1.0000 0.82540  0.62813  0.80790  Biso   1.000  C
  C285     1.0000 0.82680  0.59924  0.84011  Biso   1.000  C
  C286     1.0000 0.82590  0.53814  0.81130  Biso   1.000  C
  C287     1.0000 0.82220  0.53479  0.71799  Biso   1.000  C
  C288     1.0000 0.82310  0.59590  0.74683  Biso   1.000  C
  S1       1.0000 0.58860  0.36540  0.73270  Biso   1.000  S
  S2       1.0000 0.58860  0.36730  0.63460  Biso   1.000  S
  S3       1.0000 0.58860  0.26730  0.63270  Biso   1.000  S
  S4       1.0000 0.08860  0.63460  0.26730  Biso   1.000  S
  S5       1.0000 0.08860  0.63270  0.36540  Biso   1.000  S
  S6       1.0000 0.08860  0.73270  0.36730  Biso   1.000  S
  S7       1.0000 0.41140  0.63270  0.26730  Biso   1.000  S
  S8       1.0000 0.41140  0.73270  0.36540  Biso   1.000  S
  S9       1.0000 0.41140  0.63460  0.36730  Biso   1.000  S
  S10      1.0000 0.91140  0.36730  0.73270  Biso   1.000  S
  S11      1.0000 0.91140  0.26730  0.63460  Biso   1.000  S
  S12      1.0000 0.91140  0.36540  0.63270  Biso   1.000  S
  S13      1.0000 0.75000  0.40436  0.80872  Biso   1.000  S
  S14      1.0000 0.75000  0.40436  0.59564  Biso   1.000  S
  S15      1.0000 0.75000  0.19128  0.59564  Biso   1.000  S
  S16      1.0000 0.25000  0.59564  0.19128  Biso   1.000  S
  S17      1.0000 0.25000  0.59564  0.40436  Biso   1.000  S
  S18      1.0000 0.25000  0.80872  0.40436  Biso   1.000  S
  N1       1.0000 0.67640  0.50591  0.75571  Biso   1.000  N
  N2       1.0000 0.58316  0.86150  0.86520  Biso   1.000  N
  N3       1.0000 0.67640  0.24980  0.49409  Biso   1.000  N
  N4       1.0000 0.58316  0.00370  0.13850  Biso   1.000  N
  N5       1.0000 0.67640  0.24429  0.75020  Biso   1.000  N
  N6       1.0000 0.58316  0.13480  0.99630  Biso   1.000  N
  N7       1.0000 0.17640  0.49409  0.24429  Biso   1.000  N
  N8       1.0000 0.08316  0.13850  0.13480  Biso   1.000  N
  N9       1.0000 0.17640  0.75020  0.50591  Biso   1.000  N
  N10      1.0000 0.08316  0.99630  0.86150  Biso   1.000  N
  N11      1.0000 0.17640  0.75571  0.24980  Biso   1.000  N
  N12      1.0000 0.08316  0.86520  0.00370  Biso   1.000  N
  N13      1.0000 0.32360  0.75020  0.24429  Biso   1.000  N
  N14      1.0000 0.41684  0.99630  0.13480  Biso   1.000  N
  N15      1.0000 0.32360  0.75571  0.50591  Biso   1.000  N
  N16      1.0000 0.41684  0.86520  0.86150  Biso   1.000  N
  N17      1.0000 0.32360  0.49409  0.24980  Biso   1.000  N
  N18      1.0000 0.41684  0.13850  0.00370  Biso   1.000  N
  N19      1.0000 0.82360  0.24980  0.75571  Biso   1.000  N
  N20      1.0000 0.91684  0.00370  0.86520  Biso   1.000  N
  N21      1.0000 0.82360  0.24429  0.49409  Biso   1.000  N
  N22      1.0000 0.91684  0.13480  0.13850  Biso   1.000  N
  N23      1.0000 0.82360  0.50591  0.75020  Biso   1.000  N
  N24      1.0000 0.91684  0.86150  0.99630  Biso   1.000  N
  O1       1.0000 0.55128  0.97087  0.92758  Biso   1.000  O
  O2       1.0000 0.64611  0.87285  0.95868  Biso   1.000  O
  O3       1.0000 0.75170  0.43030  0.76950  Biso   1.000  O
  O4       1.0000 0.70160  0.42250  0.84430  Biso   1.000  O
  O5       1.0000 0.62590  0.41530  0.75570  Biso   1.000  O
  O6       1.0000 0.53650  0.38270  0.76440  Biso   1.000  O
  O7       1.0000 0.61890  0.32390  0.74560  Biso   1.000  O
  O8       1.0000 0.55128  0.95671  0.02913  Biso   1.000  O
  O9       1.0000 0.64611  0.08583  0.12715  Biso   1.000  O
  O10      1.0000 0.75170  0.33920  0.56970  Biso   1.000  O
  O11      1.0000 0.70160  0.42180  0.57750  Biso   1.000  O
  O12      1.0000 0.62590  0.34040  0.58470  Biso   1.000  O
  O13      1.0000 0.53650  0.38170  0.61730  Biso   1.000  O
  O14      1.0000 0.61890  0.42170  0.67610  Biso   1.000  O
  O15      1.0000 0.55128  0.07242  0.04329  Biso   1.000  O
  O16      1.0000 0.64611  0.04132  0.91417  Biso   1.000  O
  O17      1.0000 0.75170  0.23050  0.66080  Biso   1.000  O
  O18      1.0000 0.70160  0.15570  0.57820  Biso   1.000  O
  O19      1.0000 0.62590  0.24430  0.65960  Biso   1.000  O
  O20      1.0000 0.53650  0.23560  0.61830  Biso   1.000  O
  O21      1.0000 0.61890  0.25440  0.57830  Biso   1.000  O
  O22      1.0000 0.05128  0.02913  0.07242  Biso   1.000  O
  O23      1.0000 0.14611  0.12715  0.04132  Biso   1.000  O
  O24      1.0000 0.25170  0.56970  0.23050  Biso   1.000  O
  O25      1.0000 0.20160  0.57750  0.15570  Biso   1.000  O
  O26      1.0000 0.12590  0.58470  0.24430  Biso   1.000  O
  O27      1.0000 0.03650  0.61730  0.23560  Biso   1.000  O
  O28      1.0000 0.11890  0.67610  0.25440  Biso   1.000  O
  O29      1.0000 0.05128  0.04329  0.97087  Biso   1.000  O
  O30      1.0000 0.14611  0.91417  0.87285  Biso   1.000  O
  O31      1.0000 0.25170  0.66080  0.43030  Biso   1.000  O
  O32      1.0000 0.20160  0.57820  0.42250  Biso   1.000  O
  O33      1.0000 0.12590  0.65960  0.41530  Biso   1.000  O
  O34      1.0000 0.03650  0.61830  0.38270  Biso   1.000  O
  O35      1.0000 0.11890  0.57830  0.32390  Biso   1.000  O
  O36      1.0000 0.05128  0.92758  0.95671  Biso   1.000  O
  O37      1.0000 0.14611  0.95868  0.08583  Biso   1.000  O
  O38      1.0000 0.25170  0.76950  0.33920  Biso   1.000  O
  O39      1.0000 0.20160  0.84430  0.42180  Biso   1.000  O
  O40      1.0000 0.12590  0.75570  0.34040  Biso   1.000  O
  O41      1.0000 0.03650  0.76440  0.38170  Biso   1.000  O
  O42      1.0000 0.11890  0.74560  0.42170  Biso   1.000  O
  O43      1.0000 0.44872  0.04329  0.07242  Biso   1.000  O
  O44      1.0000 0.35389  0.91417  0.04132  Biso   1.000  O
  O45      1.0000 0.24830  0.66080  0.23050  Biso   1.000  O
  O46      1.0000 0.29840  0.57820  0.15570  Biso   1.000  O
  O47      1.0000 0.37410  0.65960  0.24430  Biso   1.000  O
  O48      1.0000 0.46350  0.61830  0.23560  Biso   1.000  O
  O49      1.0000 0.38110  0.57830  0.25440  Biso   1.000  O
  O50      1.0000 0.44872  0.92758  0.97087  Biso   1.000  O
  O51      1.0000 0.35389  0.95868  0.87285  Biso   1.000  O
  O52      1.0000 0.24830  0.76950  0.43030  Biso   1.000  O
  O53      1.0000 0.29840  0.84430  0.42250  Biso   1.000  O
  O54      1.0000 0.37410  0.75570  0.41530  Biso   1.000  O
  O55      1.0000 0.46350  0.76440  0.38270  Biso   1.000  O
  O56      1.0000 0.38110  0.74560  0.32390  Biso   1.000  O
  O57      1.0000 0.44872  0.02913  0.95671  Biso   1.000  O
  O58      1.0000 0.35389  0.12715  0.08583  Biso   1.000  O
  O59      1.0000 0.24830  0.56970  0.33920  Biso   1.000  O
  O60      1.0000 0.29840  0.57750  0.42180  Biso   1.000  O
  O61      1.0000 0.37410  0.58470  0.34040  Biso   1.000  O
  O62      1.0000 0.46350  0.61730  0.38170  Biso   1.000  O
  O63      1.0000 0.38110  0.67610  0.42170  Biso   1.000  O
  O64      1.0000 0.94872  0.95671  0.92758  Biso   1.000  O
  O65      1.0000 0.85389  0.08583  0.95868  Biso   1.000  O
  O66      1.0000 0.74830  0.33920  0.76950  Biso   1.000  O
  O67      1.0000 0.79840  0.42180  0.84430  Biso   1.000  O
  O68      1.0000 0.87410  0.34040  0.75570  Biso   1.000  O
  O69      1.0000 0.96350  0.38170  0.76440  Biso   1.000  O
  O70      1.0000 0.88110  0.42170  0.74560  Biso   1.000  O
  O71      1.0000 0.94872  0.07242  0.02913  Biso   1.000  O
  O72      1.0000 0.85389  0.04132  0.12715  Biso   1.000  O
  O73      1.0000 0.74830  0.23050  0.56970  Biso   1.000  O
  O74      1.0000 0.79840  0.15570  0.57750  Biso   1.000  O
  O75      1.0000 0.87410  0.24430  0.58470  Biso   1.000  O
  O76      1.0000 0.96350  0.23560  0.61730  Biso   1.000  O
  O77      1.0000 0.88110  0.25440  0.67610  Biso   1.000  O
  O78      1.0000 0.94872  0.97087  0.04329  Biso   1.000  O
  O79      1.0000 0.85389  0.87285  0.91417  Biso   1.000  O
  O80      1.0000 0.74830  0.43030  0.66080  Biso   1.000  O
  O81      1.0000 0.79840  0.42250  0.57820  Biso   1.000  O
  O82      1.0000 0.87410  0.41530  0.65960  Biso   1.000  O
  O83      1.0000 0.96350  0.38270  0.61830  Biso   1.000  O
  O84      1.0000 0.88110  0.32390  0.57830  Biso   1.000  O
  O85      1.0000 0.63590  0.00000  0.00000  Biso   1.000  O
  O86      1.0000 0.13590  0.00000  0.00000  Biso   1.000  O
  O87      1.0000 0.36410  0.00000  0.00000  Biso   1.000  O
  O88      1.0000 0.86410  0.00000  0.00000  Biso   1.000  O
  O89      1.0000 0.69880  0.33333  0.66666  Biso   1.000  O
  O90      1.0000 0.57800  0.33333  0.66666  Biso   1.000  O
  O91      1.0000 0.19880  0.66667  0.33334  Biso   1.000  O
  O92      1.0000 0.07800  0.66667  0.33334  Biso   1.000  O
  O93      1.0000 0.30120  0.66667  0.33334  Biso   1.000  O
  O94      1.0000 0.42200  0.66667  0.33334  Biso   1.000  O
  O95      1.0000 0.80120  0.33333  0.66666  Biso   1.000  O
  O96      1.0000 0.92200  0.33333  0.66666  Biso   1.000  O
