data_image0
_cell_length_a       23.8822
_cell_length_b       23.8822
_cell_length_c       46.8514
_cell_angle_alpha    90
_cell_angle_beta     90
_cell_angle_gamma    90

_symmetry_space_group_name_H-M    "P 1"
_symmetry_int_tables_number       1

loop_
  _symmetry_equiv_pos_as_xyz
  'x, y, z'

loop_
  _atom_site_label
  _atom_site_occupancy
  _atom_site_fract_x
  _atom_site_fract_y
  _atom_site_fract_z
  _atom_site_thermal_displace_type
  _atom_site_B_iso_or_equiv
  _atom_site_type_symbol
  N1       1.0000 0.18450  0.81840  0.71729  Biso   1.000  N
  N2       1.0000 0.07700  0.80000  0.74844  Biso   1.000  N
  N3       1.0000 0.09500  0.91100  0.71789  Biso   1.000  N
  C1       1.0000 0.19270  0.76340  0.71865  Biso   1.000  C
  C2       1.0000 0.20370  0.84470  0.69387  Biso   1.000  C
  C3       1.0000 0.04100  0.77920  0.75440  Biso   1.000  C
  C4       1.0000 0.21970  0.73310  0.69729  Biso   1.000  C
  H1       1.0000 0.17950  0.74380  0.73500  Biso   1.000  H
  H2       1.0000 0.19760  0.88390  0.69240  Biso   1.000  H
  C5       1.0000 0.23130  0.81920  0.67229  Biso   1.000  C
  S1       1.0000 0.98290  0.74870  0.76440  Biso   1.000  S
  C6       1.0000 0.23930  0.76020  0.67320  Biso   1.000  C
  H3       1.0000 0.22470  0.69380  0.69930  Biso   1.000  H
  H4       1.0000 0.24510  0.84040  0.65670  Biso   1.000  H
  C7       1.0000 0.26430  0.72970  0.64866  Biso   1.000  C
  N4       1.0000 0.27520  0.76080  0.62513  Biso   1.000  N
  C8       1.0000 0.27430  0.67260  0.65002  Biso   1.000  C
  C9       1.0000 0.29600  0.73430  0.60214  Biso   1.000  C
  C10      1.0000 0.29600  0.64510  0.62608  Biso   1.000  C
  H5       1.0000 0.26650  0.65240  0.66700  Biso   1.000  H
  C11      1.0000 0.30650  0.67750  0.60184  Biso   1.000  C
  C12      1.0000 0.30870  0.76970  0.57667  Biso   1.000  C
  C13      1.0000 0.30640  0.58410  0.62589  Biso   1.000  C
  H6       1.0000 0.32080  0.66030  0.58510  Biso   1.000  H
  C14      1.0000 0.30650  0.82800  0.57765  Biso   1.000  C
  C15      1.0000 0.32510  0.74590  0.55129  Biso   1.000  C
  C16      1.0000 0.29700  0.55280  0.60102  Biso   1.000  C
  C17      1.0000 0.32540  0.55650  0.64978  Biso   1.000  C
  H7       1.0000 0.29370  0.84650  0.59440  Biso   1.000  H
  C18      1.0000 0.32290  0.85850  0.55435  Biso   1.000  C
  C19      1.0000 0.34110  0.77930  0.52879  Biso   1.000  C
  H8       1.0000 0.32540  0.70630  0.54930  Biso   1.000  H
  H9       1.0000 0.28340  0.57120  0.58440  Biso   1.000  H
  C20      1.0000 0.30700  0.49610  0.60023  Biso   1.000  C
  C21      1.0000 0.33680  0.49890  0.64961  Biso   1.000  C
  H10      1.0000 0.33100  0.57710  0.66690  Biso   1.000  H
  N5       1.0000 0.34090  0.83550  0.52978  Biso   1.000  N
  H11      1.0000 0.32150  0.89820  0.55560  Biso   1.000  H
  H12      1.0000 0.35300  0.76170  0.51170  Biso   1.000  H
  H13      1.0000 0.30040  0.47570  0.58320  Biso   1.000  H
  C22      1.0000 0.32690  0.46860  0.62453  Biso   1.000  C
  H14      1.0000 0.35090  0.48080  0.66620  Biso   1.000  H
  Co1      1.0000 0.38181  0.87986  0.49538  Biso   1.000  Co
  O1       1.0000 0.33680  0.41273  0.62167  Biso   1.000  O
  N6       1.0000 0.33581  0.82876  0.46492  Biso   1.000  N
  N7       1.0000 0.44430  0.81770  0.49592  Biso   1.000  N
  N8       1.0000 0.42850  0.92940  0.52607  Biso   1.000  N
  N9       1.0000 0.32090  0.94090  0.49248  Biso   1.000  N
  N10      1.0000 0.42740  0.92020  0.46100  Biso   1.000  N
  C23      1.0000 0.36280  0.38490  0.64492  Biso   1.000  C
  C24      1.0000 0.28110  0.82120  0.46766  Biso   1.000  C
  C25      1.0000 0.36070  0.80650  0.44185  Biso   1.000  C
  C26      1.0000 0.47280  0.78430  0.48520  Biso   1.000  C
  C27      1.0000 0.45500  0.90360  0.54788  Biso   1.000  C
  C28      1.0000 0.43030  0.98490  0.52435  Biso   1.000  C
  C29      1.0000 0.28700  0.97250  0.48527  Biso   1.000  C
  H15      1.0000 0.33730  0.38420  0.66160  Biso   1.000  H
  H16      1.0000 0.39750  0.40480  0.65050  Biso   1.000  H
  C30      1.0000 0.37640  0.32590  0.63570  Biso   1.000  C
  C31      1.0000 0.24900  0.79090  0.44830  Biso   1.000  C
  H17      1.0000 0.26290  0.83740  0.48370  Biso   1.000  H
  H18      1.0000 0.40000  0.81080  0.43980  Biso   1.000  H
  C32      1.0000 0.33160  0.77740  0.42067  Biso   1.000  C
  S2       1.0000 0.51630  0.74100  0.47013  Biso   1.000  S
  C33      1.0000 0.48270  0.93370  0.56883  Biso   1.000  C
  H19      1.0000 0.45460  0.86390  0.54890  Biso   1.000  H
  H20      1.0000 0.41250  0.00270  0.50870  Biso   1.000  H
  C34      1.0000 0.45710  0.01790  0.54439  Biso   1.000  C
  S3       1.0000 0.23797  0.01601  0.47515  Biso   1.000  S
  H21      1.0000 0.34150  0.30350  0.63570  Biso   1.000  H
  H22      1.0000 0.39050  0.32680  0.61580  Biso   1.000  H
  C35      1.0000 0.41900  0.29720  0.65420  Biso   1.000  C
  C36      1.0000 0.27410  0.76950  0.42384  Biso   1.000  C
  H23      1.0000 0.21030  0.78490  0.45180  Biso   1.000  H
  H24      1.0000 0.35060  0.76330  0.40440  Biso   1.000  H
  C37      1.0000 0.48410  0.99230  0.56738  Biso   1.000  C
  H25      1.0000 0.50070  0.91480  0.58410  Biso   1.000  H
  H26      1.0000 0.45720  0.05750  0.54250  Biso   1.000  H
  H27      1.0000 0.42670  0.25990  0.64590  Biso   1.000  H
  H28      1.0000 0.45420  0.31890  0.65320  Biso   1.000  H
  C38      1.0000 0.40440  0.28950  0.68470  Biso   1.000  C
  C39      1.0000 0.24130  0.74270  0.40037  Biso   1.000  C
  C40      1.0000 0.51160  0.02540  0.59045  Biso   1.000  C
  H29      1.0000 0.39230  0.32550  0.69320  Biso   1.000  H
  H30      1.0000 0.43700  0.27540  0.69550  Biso   1.000  H
  C41      1.0000 0.35770  0.24790  0.68540  Biso   1.000  C
  N11      1.0000 0.26970  0.72960  0.37660  Biso   1.000  N
  C42      1.0000 0.18380  0.73280  0.40345  Biso   1.000  C
  N12      1.0000 0.52085  0.99690  0.61473  Biso   1.000  N
  C43      1.0000 0.52300  0.08180  0.58748  Biso   1.000  C
  H31      1.0000 0.32200  0.26560  0.67950  Biso   1.000  H
  H32      1.0000 0.36570  0.21620  0.67240  Biso   1.000  H
  C44      1.0000 0.35420  0.22830  0.71540  Biso   1.000  C
  C45      1.0000 0.24170  0.70730  0.35490  Biso   1.000  C
  C46      1.0000 0.15470  0.70920  0.38055  Biso   1.000  C
  H33      1.0000 0.16510  0.74190  0.42070  Biso   1.000  H
  C47      1.0000 0.54260  0.02520  0.63686  Biso   1.000  C
  H34      1.0000 0.51590  0.10040  0.56990  Biso   1.000  H
  C48      1.0000 0.54510  0.11130  0.61079  Biso   1.000  C
  H35      1.0000 0.34200  0.25980  0.72760  Biso   1.000  H
  H36      1.0000 0.39200  0.21660  0.72180  Biso   1.000  H
  C49      1.0000 0.31360  0.17940  0.71910  Biso   1.000  C
  C50      1.0000 0.18450  0.69790  0.35588  Biso   1.000  C
  C51      1.0000 0.27630  0.69200  0.32922  Biso   1.000  C
  C52      1.0000 0.09360  0.69720  0.38215  Biso   1.000  C
  C53      1.0000 0.55460  0.08180  0.63564  Biso   1.000  C
  C54      1.0000 0.55270  0.99240  0.66292  Biso   1.000  C
  C55      1.0000 0.55720  0.17210  0.60966  Biso   1.000  C
  H37      1.0000 0.32690  0.14620  0.70850  Biso   1.000  H
  H38      1.0000 0.27580  0.18960  0.71210  Biso   1.000  H
  C56      1.0000 0.31260  0.16770  0.75120  Biso   1.000  C
  H39      1.0000 0.16570  0.68380  0.33950  Biso   1.000  H
  C57      1.0000 0.33260  0.69760  0.32895  Biso   1.000  C
  C58      1.0000 0.25080  0.67000  0.30490  Biso   1.000  C
  C59      1.0000 0.05970  0.70200  0.35843  Biso   1.000  C
  C60      1.0000 0.06900  0.68130  0.40755  Biso   1.000  C
  H40      1.0000 0.56940  0.10040  0.65190  Biso   1.000  H
  C61      1.0000 0.56910  0.01650  0.68864  Biso   1.000  C
  C62      1.0000 0.54920  0.93290  0.66262  Biso   1.000  C
  C63      1.0000 0.57500  0.19860  0.58443  Biso   1.000  C
  C64      1.0000 0.55090  0.20540  0.63403  Biso   1.000  C
  H41      1.0000 0.32420  0.20080  0.76250  Biso   1.000  H
  H42      1.0000 0.33630  0.13520  0.75640  Biso   1.000  H
  C65      1.0000 0.24840  0.15500  0.75490  Biso   1.000  C
  H43      1.0000 0.35090  0.71420  0.34490  Biso   1.000  H
  C66      1.0000 0.36440  0.67950  0.30569  Biso   1.000  C
  C67      1.0000 0.28430  0.65290  0.28292  Biso   1.000  C
  H44      1.0000 0.21120  0.66700  0.30370  Biso   1.000  H
  H45      1.0000 0.07550  0.71330  0.34070  Biso   1.000  H
  C68      1.0000 0.00340  0.69050  0.35996  Biso   1.000  C
  C69      1.0000 0.01270  0.66940  0.40967  Biso   1.000  C
  H46      1.0000 0.09170  0.67860  0.42420  Biso   1.000  H
  H47      1.0000 0.57120  0.05610  0.69030  Biso   1.000  H
  C70      1.0000 0.58230  0.98330  0.71152  Biso   1.000  C
  C71      1.0000 0.56190  0.90340  0.68697  Biso   1.000  C
  H48      1.0000 0.53810  0.91380  0.64580  Biso   1.000  H
  H49      1.0000 0.57980  0.17710  0.56750  Biso   1.000  H
  C72      1.0000 0.58580  0.25670  0.58390  Biso   1.000  C
  C73      1.0000 0.56170  0.26250  0.63370  Biso   1.000  C
  H50      1.0000 0.53880  0.18840  0.65130  Biso   1.000  H
  H51      1.0000 0.24050  0.14590  0.77490  Biso   1.000  H
  H52      1.0000 0.22640  0.18720  0.74900  Biso   1.000  H
  H53      1.0000 0.23830  0.12240  0.74300  Biso   1.000  H
  N13      1.0000 0.34060  0.65650  0.28248  Biso   1.000  N
  H54      1.0000 0.40400  0.68350  0.30630  Biso   1.000  H
  H55      1.0000 0.26650  0.63730  0.26660  Biso   1.000  H
  H56      1.0000 0.98100  0.69370  0.34330  Biso   1.000  H
  C74      1.0000 0.97930  0.67460  0.38526  Biso   1.000  C
  H57      1.0000 0.99690  0.65790  0.42730  Biso   1.000  H
  H58      1.0000 0.59390  0.00100  0.72870  Biso   1.000  H
  H59      1.0000 0.55780  0.86390  0.68660  Biso   1.000  H
  H60      1.0000 0.59810  0.27430  0.56680  Biso   1.000  H
  C75      1.0000 0.57830  0.28760  0.60840  Biso   1.000  C
  H61      1.0000 0.55780  0.28410  0.65060  Biso   1.000  H
  O2       1.0000 0.92300  0.66490  0.38511  Biso   1.000  O
  O3       1.0000 0.58670  0.34390  0.61037  Biso   1.000  O
  N14      1.0000 0.42960  0.56500  0.28290  Biso   1.000  N
  N15      1.0000 0.45030  0.67340  0.25257  Biso   1.000  N
  C76      1.0000 0.89710  0.64840  0.41100  Biso   1.000  C
  C77      1.0000 0.60290  0.37190  0.58530  Biso   1.000  C
  C78      1.0000 0.40360  0.54400  0.30536  Biso   1.000  C
  C79      1.0000 0.48600  0.55960  0.28207  Biso   1.000  C
  C80      1.0000 0.48300  0.70280  0.26286  Biso   1.000  C
  H62      1.0000 0.90240  0.67800  0.42550  Biso   1.000  H
  H63      1.0000 0.91480  0.61370  0.41810  Biso   1.000  H
  C81      1.0000 0.83490  0.63850  0.40630  Biso   1.000  C
  H64      1.0000 0.57400  0.36770  0.57030  Biso   1.000  H
  H65      1.0000 0.63880  0.35690  0.57810  Biso   1.000  H
  C82      1.0000 0.60940  0.43440  0.59410  Biso   1.000  C
  C83      1.0000 0.43010  0.51910  0.32813  Biso   1.000  C
  H66      1.0000 0.36390  0.54620  0.30580  Biso   1.000  H
  H67      1.0000 0.50560  0.57430  0.26610  Biso   1.000  H
  C84      1.0000 0.51620  0.53370  0.30339  Biso   1.000  C
  S4       1.0000 0.52852  0.74290  0.27943  Biso   1.000  S
  H68      1.0000 0.83030  0.61020  0.39110  Biso   1.000  H
  H69      1.0000 0.81770  0.67380  0.39950  Biso   1.000  H
  C85      1.0000 0.80330  0.61870  0.43290  Biso   1.000  C
  H70      1.0000 0.57740  0.44540  0.60630  Biso   1.000  H
  H71      1.0000 0.60860  0.45810  0.57670  Biso   1.000  H
  C86      1.0000 0.66520  0.44440  0.61040  Biso   1.000  C
  C87      1.0000 0.48880  0.51340  0.32774  Biso   1.000  C
  H72      1.0000 0.40910  0.50600  0.34400  Biso   1.000  H
  H73      1.0000 0.55570  0.52970  0.30160  Biso   1.000  H
  H74      1.0000 0.81940  0.58310  0.43990  Biso   1.000  H
  H75      1.0000 0.80650  0.64700  0.44820  Biso   1.000  H
  C88      1.0000 0.74290  0.61050  0.42500  Biso   1.000  C
  H76      1.0000 0.69410  0.45730  0.59680  Biso   1.000  H
  H77      1.0000 0.67810  0.40850  0.61880  Biso   1.000  H
  C89      1.0000 0.65850  0.48920  0.63500  Biso   1.000  C
  C90      1.0000 0.51940  0.48930  0.35256  Biso   1.000  C
  H78      1.0000 0.73840  0.57550  0.41390  Biso   1.000  H
  H79      1.0000 0.72950  0.64220  0.41320  Biso   1.000  H
  C91      1.0000 0.70900  0.60710  0.45310  Biso   1.000  C
  H80      1.0000 0.62980  0.47590  0.64870  Biso   1.000  H
  H81      1.0000 0.69440  0.49220  0.64550  Biso   1.000  H
  C92      1.0000 0.64190  0.54690  0.62420  Biso   1.000  C
  N16      1.0000 0.48870  0.47780  0.37548  Biso   1.000  N
  C93      1.0000 0.57710  0.48050  0.35158  Biso   1.000  C
  H82      1.0000 0.72780  0.63110  0.46740  Biso   1.000  H
  H83      1.0000 0.71110  0.56810  0.46010  Biso   1.000  H
  C94      1.0000 0.64560  0.62440  0.45180  Biso   1.000  C
  H84      1.0000 0.67070  0.56020  0.61060  Biso   1.000  H
  H85      1.0000 0.60610  0.54380  0.61360  Biso   1.000  H
  C95      1.0000 0.63540  0.58900  0.64730  Biso   1.000  C
  C96      1.0000 0.51500  0.45710  0.39859  Biso   1.000  C
  H86      1.0000 0.59730  0.48820  0.33460  Biso   1.000  H
  C97      1.0000 0.60500  0.46060  0.37550  Biso   1.000  C
  H87      1.0000 0.64100  0.65520  0.46570  Biso   1.000  H
  H88      1.0000 0.63970  0.64110  0.43270  Biso   1.000  H
  C98      1.0000 0.59530  0.58410  0.45680  Biso   1.000  C
  H89      1.0000 0.60790  0.57450  0.66130  Biso   1.000  H
  H90      1.0000 0.67170  0.59280  0.65730  Biso   1.000  H
  C99      1.0000 0.61710  0.64510  0.63820  Biso   1.000  C
  C100     1.0000 0.57180  0.44850  0.39933  Biso   1.000  C
  C101     1.0000 0.47820  0.44330  0.42318  Biso   1.000  C
  C102     1.0000 0.66580  0.44950  0.37547  Biso   1.000  C
  H91      1.0000 0.60250  0.58060  0.47750  Biso   1.000  H
  H92      1.0000 0.61500  0.55130  0.44870  Biso   1.000  H
  C103     1.0000 0.53660  0.55250  0.45850  Biso   1.000  C
  H93      1.0000 0.58630  0.64130  0.62420  Biso   1.000  H
  H94      1.0000 0.64860  0.66450  0.62870  Biso   1.000  H
  C104     1.0000 0.59620  0.68140  0.66430  Biso   1.000  C
  H95      1.0000 0.58870  0.43420  0.41620  Biso   1.000  H
  C105     1.0000 0.50080  0.42250  0.44848  Biso   1.000  C
  C106     1.0000 0.42080  0.44850  0.42184  Biso   1.000  C
  C107     1.0000 0.69350  0.43240  0.35138  Biso   1.000  C
  C108     1.0000 0.69740  0.45750  0.40043  Biso   1.000  C
  H96      1.0000 0.52260  0.55500  0.43870  Biso   1.000  H
  H97      1.0000 0.54780  0.51290  0.46100  Biso   1.000  H
  C109     1.0000 0.48160  0.55660  0.47670  Biso   1.000  C
  H98      1.0000 0.62610  0.68290  0.67890  Biso   1.000  H
  H99      1.0000 0.56310  0.66330  0.67290  Biso   1.000  H
  C110     1.0000 0.58050  0.74290  0.65500  Biso   1.000  C
  H100     1.0000 0.54020  0.42020  0.45090  Biso   1.000  H
  C111     1.0000 0.46510  0.40500  0.47009  Biso   1.000  C
  C112     1.0000 0.38870  0.42910  0.44486  Biso   1.000  C
  H101     1.0000 0.40340  0.46490  0.40570  Biso   1.000  H
  H102     1.0000 0.67290  0.42750  0.33420  Biso   1.000  H
  C113     1.0000 0.75160  0.42190  0.35111  Biso   1.000  C
  C114     1.0000 0.75490  0.44810  0.40082  Biso   1.000  C
  H103     1.0000 0.67920  0.46950  0.41740  Biso   1.000  H
  H104     1.0000 0.45510  0.52780  0.47030  Biso   1.000  H
  H105     1.0000 0.49040  0.55090  0.49690  Biso   1.000  H
  H106     1.0000 0.46480  0.59370  0.47410  Biso   1.000  H
  H107     1.0000 0.59610  0.75060  0.63610  Biso   1.000  H
  H108     1.0000 0.59600  0.76960  0.66880  Biso   1.000  H
  H109     1.0000 0.53970  0.74680  0.65440  Biso   1.000  H
  H110     1.0000 0.48130  0.39230  0.48750  Biso   1.000  H
  H111     1.0000 0.34920  0.43340  0.44400  Biso   1.000  H
  H112     1.0000 0.76950  0.40920  0.33420  Biso   1.000  H
  C115     1.0000 0.78230  0.43040  0.37623  Biso   1.000  C
  H113     1.0000 0.77540  0.45370  0.41790  Biso   1.000  H
  O4       1.0000 0.83810  0.42180  0.37917  Biso   1.000  O
  C116     1.0000 0.86650  0.40210  0.35540  Biso   1.000  C
  H114     1.0000 0.86640  0.43080  0.34020  Biso   1.000  H
  H115     1.0000 0.84810  0.36790  0.34800  Biso   1.000  H
  C117     1.0000 0.92700  0.38870  0.36430  Biso   1.000  C
  H116     1.0000 0.94370  0.42190  0.37360  Biso   1.000  H
  H117     1.0000 0.92690  0.35760  0.37830  Biso   1.000  H
  C118     1.0000 0.96220  0.37230  0.33840  Biso   1.000  C
  H118     1.0000 0.94180  0.34280  0.32790  Biso   1.000  H
  H119     1.0000 0.96480  0.40530  0.32570  Biso   1.000  H
  C119     1.0000 0.01870  0.35230  0.34380  Biso   1.000  C
  H120     1.0000 0.03640  0.34660  0.32490  Biso   1.000  H
  H121     1.0000 0.01500  0.31480  0.35260  Biso   1.000  H
  C120     1.0000 0.05990  0.38490  0.36180  Biso   1.000  C
  H122     1.0000 0.06830  0.42060  0.35200  Biso   1.000  H
  H123     1.0000 0.04170  0.39420  0.38020  Biso   1.000  H
  C121     1.0000 0.11110  0.35690  0.36760  Biso   1.000  C
  H124     1.0000 0.12340  0.34040  0.34920  Biso   1.000  H
  H125     1.0000 0.10160  0.32520  0.38020  Biso   1.000  H
  C122     1.0000 0.16250  0.38440  0.38050  Biso   1.000  C
  H126     1.0000 0.19540  0.36020  0.37690  Biso   1.000  H
  H127     1.0000 0.16910  0.42060  0.37070  Biso   1.000  H
  C123     1.0000 0.15790  0.39490  0.41210  Biso   1.000  C
  H128     1.0000 0.15020  0.35970  0.42250  Biso   1.000  H
  H129     1.0000 0.12770  0.42210  0.41620  Biso   1.000  H
  C124     1.0000 0.21580  0.41910  0.42050  Biso   1.000  C
  H130     1.0000 0.24370  0.38900  0.42050  Biso   1.000  H
  H131     1.0000 0.21350  0.43560  0.43960  Biso   1.000  H
  H132     1.0000 0.22680  0.44790  0.40670  Biso   1.000  H
  N17      1.0000 0.81550  0.18160  0.21729  Biso   1.000  N
  N18      1.0000 0.92300  0.20000  0.24844  Biso   1.000  N
  N19      1.0000 0.90500  0.08900  0.21789  Biso   1.000  N
  C125     1.0000 0.80730  0.23660  0.21865  Biso   1.000  C
  C126     1.0000 0.79630  0.15530  0.19387  Biso   1.000  C
  C127     1.0000 0.95900  0.22080  0.25440  Biso   1.000  C
  C128     1.0000 0.78030  0.26690  0.19729  Biso   1.000  C
  H133     1.0000 0.82050  0.25620  0.23500  Biso   1.000  H
  H134     1.0000 0.80240  0.11610  0.19240  Biso   1.000  H
  C129     1.0000 0.76870  0.18080  0.17229  Biso   1.000  C
  S5       1.0000 0.01710  0.25130  0.26440  Biso   1.000  S
  C130     1.0000 0.76070  0.23980  0.17320  Biso   1.000  C
  H135     1.0000 0.77530  0.30620  0.19930  Biso   1.000  H
  H136     1.0000 0.75490  0.15960  0.15670  Biso   1.000  H
  C131     1.0000 0.73570  0.27030  0.14866  Biso   1.000  C
  N20      1.0000 0.72480  0.23920  0.12513  Biso   1.000  N
  C132     1.0000 0.72570  0.32740  0.15002  Biso   1.000  C
  C133     1.0000 0.70400  0.26570  0.10214  Biso   1.000  C
  C134     1.0000 0.70400  0.35490  0.12608  Biso   1.000  C
  H137     1.0000 0.73350  0.34760  0.16700  Biso   1.000  H
  C135     1.0000 0.69350  0.32250  0.10184  Biso   1.000  C
  C136     1.0000 0.69130  0.23030  0.07667  Biso   1.000  C
  C137     1.0000 0.69360  0.41590  0.12589  Biso   1.000  C
  H138     1.0000 0.67920  0.33970  0.08510  Biso   1.000  H
  C138     1.0000 0.69350  0.17200  0.07765  Biso   1.000  C
  C139     1.0000 0.67490  0.25410  0.05129  Biso   1.000  C
  C140     1.0000 0.70300  0.44720  0.10102  Biso   1.000  C
  C141     1.0000 0.67460  0.44350  0.14978  Biso   1.000  C
  H139     1.0000 0.70630  0.15350  0.09440  Biso   1.000  H
  C142     1.0000 0.67710  0.14150  0.05435  Biso   1.000  C
  C143     1.0000 0.65890  0.22070  0.02879  Biso   1.000  C
  H140     1.0000 0.67460  0.29370  0.04930  Biso   1.000  H
  H141     1.0000 0.71660  0.42880  0.08440  Biso   1.000  H
  C144     1.0000 0.69300  0.50390  0.10023  Biso   1.000  C
  C145     1.0000 0.66320  0.50110  0.14961  Biso   1.000  C
  H142     1.0000 0.66900  0.42290  0.16690  Biso   1.000  H
  N21      1.0000 0.65910  0.16450  0.02978  Biso   1.000  N
  H143     1.0000 0.67850  0.10180  0.05560  Biso   1.000  H
  H144     1.0000 0.64700  0.23830  0.01170  Biso   1.000  H
  H145     1.0000 0.69960  0.52430  0.08320  Biso   1.000  H
  C146     1.0000 0.67310  0.53140  0.12453  Biso   1.000  C
  H146     1.0000 0.64910  0.51920  0.16620  Biso   1.000  H
  Co2      1.0000 0.61819  0.12014  0.99538  Biso   1.000  Co
  O5       1.0000 0.66320  0.58727  0.12167  Biso   1.000  O
  N22      1.0000 0.66419  0.17124  0.96492  Biso   1.000  N
  N23      1.0000 0.55570  0.18230  0.99592  Biso   1.000  N
  N24      1.0000 0.57150  0.07060  0.02607  Biso   1.000  N
  N25      1.0000 0.67910  0.05910  0.99248  Biso   1.000  N
  N26      1.0000 0.57260  0.07980  0.96100  Biso   1.000  N
  C147     1.0000 0.63720  0.61510  0.14492  Biso   1.000  C
  C148     1.0000 0.71890  0.17880  0.96766  Biso   1.000  C
  C149     1.0000 0.63930  0.19350  0.94185  Biso   1.000  C
  C150     1.0000 0.52720  0.21570  0.98520  Biso   1.000  C
  C151     1.0000 0.54500  0.09640  0.04788  Biso   1.000  C
  C152     1.0000 0.56970  0.01510  0.02435  Biso   1.000  C
  C153     1.0000 0.71300  0.02750  0.98527  Biso   1.000  C
  H147     1.0000 0.66270  0.61580  0.16160  Biso   1.000  H
  H148     1.0000 0.60250  0.59520  0.15050  Biso   1.000  H
  C154     1.0000 0.62360  0.67410  0.13570  Biso   1.000  C
  C155     1.0000 0.75100  0.20910  0.94830  Biso   1.000  C
  H149     1.0000 0.73710  0.16260  0.98370  Biso   1.000  H
  H150     1.0000 0.60000  0.18920  0.93980  Biso   1.000  H
  C156     1.0000 0.66840  0.22260  0.92067  Biso   1.000  C
  S6       1.0000 0.48370  0.25900  0.97013  Biso   1.000  S
  C157     1.0000 0.51730  0.06630  0.06883  Biso   1.000  C
  H151     1.0000 0.54540  0.13610  0.04890  Biso   1.000  H
  H152     1.0000 0.58750  0.99730  0.00870  Biso   1.000  H
  C158     1.0000 0.54290  0.98210  0.04439  Biso   1.000  C
  S7       1.0000 0.76203  0.98399  0.97515  Biso   1.000  S
  H153     1.0000 0.65850  0.69650  0.13570  Biso   1.000  H
  H154     1.0000 0.60950  0.67320  0.11580  Biso   1.000  H
  C159     1.0000 0.58100  0.70280  0.15420  Biso   1.000  C
  C160     1.0000 0.72590  0.23050  0.92384  Biso   1.000  C
  H155     1.0000 0.78970  0.21510  0.95180  Biso   1.000  H
  H156     1.0000 0.64940  0.23670  0.90440  Biso   1.000  H
  C161     1.0000 0.51590  0.00770  0.06738  Biso   1.000  C
  H157     1.0000 0.49930  0.08520  0.08410  Biso   1.000  H
  H158     1.0000 0.54280  0.94250  0.04250  Biso   1.000  H
  H159     1.0000 0.57330  0.74010  0.14590  Biso   1.000  H
  H160     1.0000 0.54580  0.68110  0.15320  Biso   1.000  H
  C162     1.0000 0.59560  0.71050  0.18470  Biso   1.000  C
  C163     1.0000 0.75870  0.25730  0.90037  Biso   1.000  C
  C164     1.0000 0.48840  0.97460  0.09045  Biso   1.000  C
  H161     1.0000 0.60770  0.67450  0.19320  Biso   1.000  H
  H162     1.0000 0.56300  0.72460  0.19550  Biso   1.000  H
  C165     1.0000 0.64230  0.75210  0.18540  Biso   1.000  C
  N27      1.0000 0.73030  0.27040  0.87660  Biso   1.000  N
  C166     1.0000 0.81620  0.26720  0.90345  Biso   1.000  C
  N28      1.0000 0.47915  0.00310  0.11473  Biso   1.000  N
  C167     1.0000 0.47700  0.91820  0.08748  Biso   1.000  C
  H163     1.0000 0.67800  0.73440  0.17950  Biso   1.000  H
  H164     1.0000 0.63430  0.78380  0.17240  Biso   1.000  H
  C168     1.0000 0.64580  0.77170  0.21540  Biso   1.000  C
  C169     1.0000 0.75830  0.29270  0.85490  Biso   1.000  C
  C170     1.0000 0.84530  0.29080  0.88055  Biso   1.000  C
  H165     1.0000 0.83490  0.25810  0.92070  Biso   1.000  H
  C171     1.0000 0.45740  0.97480  0.13686  Biso   1.000  C
  H166     1.0000 0.48410  0.89960  0.06990  Biso   1.000  H
  C172     1.0000 0.45490  0.88870  0.11079  Biso   1.000  C
  H167     1.0000 0.65800  0.74020  0.22760  Biso   1.000  H
  H168     1.0000 0.60800  0.78340  0.22180  Biso   1.000  H
  C173     1.0000 0.68640  0.82060  0.21910  Biso   1.000  C
  C174     1.0000 0.81550  0.30210  0.85588  Biso   1.000  C
  C175     1.0000 0.72370  0.30800  0.82922  Biso   1.000  C
  C176     1.0000 0.90640  0.30280  0.88215  Biso   1.000  C
  C177     1.0000 0.44540  0.91820  0.13564  Biso   1.000  C
  C178     1.0000 0.44730  0.00760  0.16292  Biso   1.000  C
  C179     1.0000 0.44280  0.82790  0.10966  Biso   1.000  C
  H169     1.0000 0.67310  0.85380  0.20850  Biso   1.000  H
  H170     1.0000 0.72420  0.81040  0.21210  Biso   1.000  H
  C180     1.0000 0.68740  0.83230  0.25120  Biso   1.000  C
  H171     1.0000 0.83430  0.31620  0.83950  Biso   1.000  H
  C181     1.0000 0.66740  0.30240  0.82895  Biso   1.000  C
  C182     1.0000 0.74920  0.33000  0.80490  Biso   1.000  C
  C183     1.0000 0.94030  0.29800  0.85843  Biso   1.000  C
  C184     1.0000 0.93100  0.31870  0.90755  Biso   1.000  C
  H172     1.0000 0.43060  0.89960  0.15190  Biso   1.000  H
  C185     1.0000 0.43090  0.98350  0.18864  Biso   1.000  C
  C186     1.0000 0.45080  0.06710  0.16262  Biso   1.000  C
  C187     1.0000 0.42500  0.80140  0.08443  Biso   1.000  C
  C188     1.0000 0.44910  0.79460  0.13403  Biso   1.000  C
  H173     1.0000 0.67580  0.79920  0.26250  Biso   1.000  H
  H174     1.0000 0.66370  0.86480  0.25640  Biso   1.000  H
  C189     1.0000 0.75160  0.84500  0.25490  Biso   1.000  C
  H175     1.0000 0.64910  0.28580  0.84490  Biso   1.000  H
  C190     1.0000 0.63560  0.32050  0.80569  Biso   1.000  C
  C191     1.0000 0.71570  0.34710  0.78292  Biso   1.000  C
  H176     1.0000 0.78880  0.33300  0.80370  Biso   1.000  H
  H177     1.0000 0.92450  0.28670  0.84070  Biso   1.000  H
  C192     1.0000 0.99660  0.30950  0.85996  Biso   1.000  C
  C193     1.0000 0.98730  0.33060  0.90967  Biso   1.000  C
  H178     1.0000 0.90830  0.32140  0.92420  Biso   1.000  H
  H179     1.0000 0.42880  0.94390  0.19030  Biso   1.000  H
  C194     1.0000 0.41770  0.01670  0.21152  Biso   1.000  C
  C195     1.0000 0.43810  0.09660  0.18697  Biso   1.000  C
  H180     1.0000 0.46190  0.08620  0.14580  Biso   1.000  H
  H181     1.0000 0.42020  0.82290  0.06750  Biso   1.000  H
  C196     1.0000 0.41420  0.74330  0.08390  Biso   1.000  C
  C197     1.0000 0.43830  0.73750  0.13370  Biso   1.000  C
  H182     1.0000 0.46120  0.81160  0.15130  Biso   1.000  H
  H183     1.0000 0.75950  0.85410  0.27490  Biso   1.000  H
  H184     1.0000 0.77360  0.81280  0.24900  Biso   1.000  H
  H185     1.0000 0.76170  0.87760  0.24300  Biso   1.000  H
  N29      1.0000 0.65940  0.34350  0.78248  Biso   1.000  N
  H186     1.0000 0.59600  0.31650  0.80630  Biso   1.000  H
  H187     1.0000 0.73350  0.36270  0.76660  Biso   1.000  H
  H188     1.0000 0.01900  0.30630  0.84330  Biso   1.000  H
  C198     1.0000 0.02070  0.32540  0.88526  Biso   1.000  C
  H189     1.0000 0.00310  0.34210  0.92730  Biso   1.000  H
  H190     1.0000 0.40610  0.99900  0.22870  Biso   1.000  H
  H191     1.0000 0.44220  0.13610  0.18660  Biso   1.000  H
  H192     1.0000 0.40190  0.72570  0.06680  Biso   1.000  H
  C199     1.0000 0.42170  0.71240  0.10840  Biso   1.000  C
  H193     1.0000 0.44220  0.71590  0.15060  Biso   1.000  H
  O6       1.0000 0.07700  0.33510  0.88511  Biso   1.000  O
  O7       1.0000 0.41330  0.65610  0.11037  Biso   1.000  O
  N30      1.0000 0.57040  0.43500  0.78290  Biso   1.000  N
  N31      1.0000 0.54970  0.32660  0.75257  Biso   1.000  N
  C200     1.0000 0.10290  0.35160  0.91100  Biso   1.000  C
  C201     1.0000 0.39710  0.62810  0.08530  Biso   1.000  C
  C202     1.0000 0.59640  0.45600  0.80536  Biso   1.000  C
  C203     1.0000 0.51400  0.44040  0.78207  Biso   1.000  C
  C204     1.0000 0.51700  0.29720  0.76286  Biso   1.000  C
  H194     1.0000 0.09760  0.32200  0.92550  Biso   1.000  H
  H195     1.0000 0.08520  0.38630  0.91810  Biso   1.000  H
  C205     1.0000 0.16510  0.36150  0.90630  Biso   1.000  C
  H196     1.0000 0.42600  0.63230  0.07030  Biso   1.000  H
  H197     1.0000 0.36120  0.64310  0.07810  Biso   1.000  H
  C206     1.0000 0.39060  0.56560  0.09410  Biso   1.000  C
  C207     1.0000 0.56990  0.48090  0.82813  Biso   1.000  C
  H198     1.0000 0.63610  0.45380  0.80580  Biso   1.000  H
  H199     1.0000 0.49440  0.42570  0.76610  Biso   1.000  H
  C208     1.0000 0.48380  0.46630  0.80339  Biso   1.000  C
  S8       1.0000 0.47148  0.25710  0.77943  Biso   1.000  S
  H200     1.0000 0.16970  0.38980  0.89110  Biso   1.000  H
  H201     1.0000 0.18230  0.32620  0.89950  Biso   1.000  H
  C209     1.0000 0.19670  0.38130  0.93290  Biso   1.000  C
  H202     1.0000 0.42260  0.55460  0.10630  Biso   1.000  H
  H203     1.0000 0.39140  0.54190  0.07670  Biso   1.000  H
  C210     1.0000 0.33480  0.55560  0.11040  Biso   1.000  C
  C211     1.0000 0.51120  0.48660  0.82774  Biso   1.000  C
  H204     1.0000 0.59090  0.49400  0.84400  Biso   1.000  H
  H205     1.0000 0.44430  0.47030  0.80160  Biso   1.000  H
  H206     1.0000 0.18060  0.41690  0.93990  Biso   1.000  H
  H207     1.0000 0.19350  0.35300  0.94820  Biso   1.000  H
  C212     1.0000 0.25710  0.38950  0.92500  Biso   1.000  C
  H208     1.0000 0.30590  0.54270  0.09680  Biso   1.000  H
  H209     1.0000 0.32190  0.59150  0.11880  Biso   1.000  H
  C213     1.0000 0.34150  0.51080  0.13500  Biso   1.000  C
  C214     1.0000 0.48060  0.51070  0.85256  Biso   1.000  C
  H210     1.0000 0.26160  0.42450  0.91390  Biso   1.000  H
  H211     1.0000 0.27050  0.35780  0.91320  Biso   1.000  H
  C215     1.0000 0.29100  0.39290  0.95310  Biso   1.000  C
  H212     1.0000 0.37020  0.52410  0.14870  Biso   1.000  H
  H213     1.0000 0.30560  0.50780  0.14550  Biso   1.000  H
  C216     1.0000 0.35810  0.45310  0.12420  Biso   1.000  C
  N32      1.0000 0.51130  0.52220  0.87548  Biso   1.000  N
  C217     1.0000 0.42290  0.51950  0.85158  Biso   1.000  C
  H214     1.0000 0.27220  0.36890  0.96740  Biso   1.000  H
  H215     1.0000 0.28890  0.43190  0.96010  Biso   1.000  H
  C218     1.0000 0.35440  0.37560  0.95180  Biso   1.000  C
  H216     1.0000 0.32930  0.43980  0.11060  Biso   1.000  H
  H217     1.0000 0.39390  0.45620  0.11360  Biso   1.000  H
  C219     1.0000 0.36460  0.41100  0.14730  Biso   1.000  C
  C220     1.0000 0.48500  0.54290  0.89859  Biso   1.000  C
  H218     1.0000 0.40270  0.51180  0.83460  Biso   1.000  H
  C221     1.0000 0.39500  0.53940  0.87550  Biso   1.000  C
  H219     1.0000 0.35900  0.34480  0.96570  Biso   1.000  H
  H220     1.0000 0.36030  0.35890  0.93270  Biso   1.000  H
  C222     1.0000 0.40470  0.41590  0.95680  Biso   1.000  C
  H221     1.0000 0.39210  0.42550  0.16130  Biso   1.000  H
  H222     1.0000 0.32830  0.40720  0.15730  Biso   1.000  H
  C223     1.0000 0.38290  0.35490  0.13820  Biso   1.000  C
  C224     1.0000 0.42820  0.55150  0.89933  Biso   1.000  C
  C225     1.0000 0.52180  0.55670  0.92318  Biso   1.000  C
  C226     1.0000 0.33420  0.55050  0.87547  Biso   1.000  C
  H223     1.0000 0.39750  0.41940  0.97750  Biso   1.000  H
  H224     1.0000 0.38500  0.44870  0.94870  Biso   1.000  H
  C227     1.0000 0.46340  0.44750  0.95850  Biso   1.000  C
  H225     1.0000 0.41370  0.35870  0.12420  Biso   1.000  H
  H226     1.0000 0.35140  0.33550  0.12870  Biso   1.000  H
  C228     1.0000 0.40380  0.31860  0.16430  Biso   1.000  C
  H227     1.0000 0.41130  0.56580  0.91620  Biso   1.000  H
  C229     1.0000 0.49920  0.57750  0.94848  Biso   1.000  C
  C230     1.0000 0.57920  0.55150  0.92184  Biso   1.000  C
  C231     1.0000 0.30650  0.56760  0.85138  Biso   1.000  C
  C232     1.0000 0.30260  0.54250  0.90043  Biso   1.000  C
  H228     1.0000 0.47740  0.44500  0.93870  Biso   1.000  H
  H229     1.0000 0.45220  0.48710  0.96100  Biso   1.000  H
  C233     1.0000 0.51840  0.44340  0.97670  Biso   1.000  C
  H230     1.0000 0.37390  0.31710  0.17890  Biso   1.000  H
  H231     1.0000 0.43690  0.33670  0.17290  Biso   1.000  H
  C234     1.0000 0.41950  0.25710  0.15500  Biso   1.000  C
  H232     1.0000 0.45980  0.57980  0.95090  Biso   1.000  H
  C235     1.0000 0.53490  0.59500  0.97009  Biso   1.000  C
  C236     1.0000 0.61130  0.57090  0.94486  Biso   1.000  C
  H233     1.0000 0.59660  0.53510  0.90570  Biso   1.000  H
  H234     1.0000 0.32710  0.57250  0.83420  Biso   1.000  H
  C237     1.0000 0.24840  0.57810  0.85111  Biso   1.000  C
  C238     1.0000 0.24510  0.55190  0.90082  Biso   1.000  C
  H235     1.0000 0.32080  0.53050  0.91740  Biso   1.000  H
  H236     1.0000 0.54490  0.47220  0.97030  Biso   1.000  H
  H237     1.0000 0.50960  0.44910  0.99690  Biso   1.000  H
  H238     1.0000 0.53520  0.40630  0.97410  Biso   1.000  H
  H239     1.0000 0.40390  0.24940  0.13610  Biso   1.000  H
  H240     1.0000 0.40400  0.23040  0.16880  Biso   1.000  H
  H241     1.0000 0.46030  0.25320  0.15440  Biso   1.000  H
  H242     1.0000 0.51870  0.60770  0.98750  Biso   1.000  H
  H243     1.0000 0.65080  0.56660  0.94400  Biso   1.000  H
  H244     1.0000 0.23050  0.59080  0.83420  Biso   1.000  H
  C239     1.0000 0.21770  0.56960  0.87623  Biso   1.000  C
  H245     1.0000 0.22460  0.54630  0.91790  Biso   1.000  H
  O8       1.0000 0.16190  0.57820  0.87917  Biso   1.000  O
  C240     1.0000 0.13350  0.59790  0.85540  Biso   1.000  C
  H246     1.0000 0.13360  0.56920  0.84020  Biso   1.000  H
  H247     1.0000 0.15190  0.63210  0.84800  Biso   1.000  H
  C241     1.0000 0.07300  0.61130  0.86430  Biso   1.000  C
  H248     1.0000 0.05630  0.57810  0.87360  Biso   1.000  H
  H249     1.0000 0.07310  0.64240  0.87830  Biso   1.000  H
  C242     1.0000 0.03780  0.62770  0.83840  Biso   1.000  C
  H250     1.0000 0.05820  0.65720  0.82790  Biso   1.000  H
  H251     1.0000 0.03520  0.59470  0.82570  Biso   1.000  H
  C243     1.0000 0.98130  0.64770  0.84380  Biso   1.000  C
  H252     1.0000 0.96360  0.65340  0.82490  Biso   1.000  H
  H253     1.0000 0.98500  0.68520  0.85260  Biso   1.000  H
  C244     1.0000 0.94010  0.61510  0.86180  Biso   1.000  C
  H254     1.0000 0.93170  0.57940  0.85200  Biso   1.000  H
  H255     1.0000 0.95830  0.60580  0.88020  Biso   1.000  H
  C245     1.0000 0.88890  0.64310  0.86760  Biso   1.000  C
  H256     1.0000 0.87660  0.65960  0.84920  Biso   1.000  H
  H257     1.0000 0.89840  0.67480  0.88020  Biso   1.000  H
  C246     1.0000 0.83750  0.61560  0.88050  Biso   1.000  C
  H258     1.0000 0.80460  0.63980  0.87690  Biso   1.000  H
  H259     1.0000 0.83090  0.57940  0.87070  Biso   1.000  H
  C247     1.0000 0.84210  0.60510  0.91210  Biso   1.000  C
  H260     1.0000 0.84980  0.64030  0.92250  Biso   1.000  H
  H261     1.0000 0.87230  0.57790  0.91620  Biso   1.000  H
  C248     1.0000 0.78420  0.58090  0.92050  Biso   1.000  C
  H262     1.0000 0.75630  0.61100  0.92050  Biso   1.000  H
  H263     1.0000 0.78650  0.56440  0.93960  Biso   1.000  H
  H264     1.0000 0.77320  0.55210  0.90670  Biso   1.000  H
  N33      1.0000 0.68160  0.68450  0.96729  Biso   1.000  N
  N34      1.0000 0.70000  0.57700  0.99844  Biso   1.000  N
  N35      1.0000 0.58900  0.59500  0.96789  Biso   1.000  N
  C249     1.0000 0.73660  0.69270  0.96865  Biso   1.000  C
  C250     1.0000 0.65530  0.70370  0.94387  Biso   1.000  C
  C251     1.0000 0.72080  0.54100  0.00440  Biso   1.000  C
  C252     1.0000 0.76690  0.71970  0.94729  Biso   1.000  C
  H265     1.0000 0.75620  0.67950  0.98500  Biso   1.000  H
  H266     1.0000 0.61610  0.69760  0.94240  Biso   1.000  H
  C253     1.0000 0.68080  0.73130  0.92229  Biso   1.000  C
  S9       1.0000 0.75130  0.48290  0.01440  Biso   1.000  S
  C254     1.0000 0.73980  0.73930  0.92320  Biso   1.000  C
  H267     1.0000 0.80620  0.72470  0.94930  Biso   1.000  H
  H268     1.0000 0.65960  0.74510  0.90670  Biso   1.000  H
  C255     1.0000 0.77030  0.76430  0.89866  Biso   1.000  C
  N36      1.0000 0.73920  0.77520  0.87513  Biso   1.000  N
  C256     1.0000 0.82740  0.77430  0.90002  Biso   1.000  C
  C257     1.0000 0.76570  0.79600  0.85214  Biso   1.000  C
  C258     1.0000 0.85490  0.79600  0.87608  Biso   1.000  C
  H269     1.0000 0.84760  0.76650  0.91700  Biso   1.000  H
  C259     1.0000 0.82250  0.80650  0.85184  Biso   1.000  C
  C260     1.0000 0.73030  0.80870  0.82667  Biso   1.000  C
  C261     1.0000 0.91590  0.80640  0.87589  Biso   1.000  C
  H270     1.0000 0.83970  0.82080  0.83510  Biso   1.000  H
  C262     1.0000 0.67200  0.80650  0.82765  Biso   1.000  C
  C263     1.0000 0.75410  0.82510  0.80129  Biso   1.000  C
  C264     1.0000 0.94720  0.79700  0.85102  Biso   1.000  C
  C265     1.0000 0.94350  0.82540  0.89978  Biso   1.000  C
  H271     1.0000 0.65350  0.79370  0.84440  Biso   1.000  H
  C266     1.0000 0.64150  0.82290  0.80435  Biso   1.000  C
  C267     1.0000 0.72070  0.84110  0.77879  Biso   1.000  C
  H272     1.0000 0.79370  0.82540  0.79930  Biso   1.000  H
  H273     1.0000 0.92880  0.78340  0.83440  Biso   1.000  H
  C268     1.0000 0.00390  0.80700  0.85023  Biso   1.000  C
  C269     1.0000 0.00110  0.83680  0.89961  Biso   1.000  C
  H274     1.0000 0.92290  0.83100  0.91690  Biso   1.000  H
  N37      1.0000 0.66450  0.84090  0.77978  Biso   1.000  N
  H275     1.0000 0.60180  0.82150  0.80560  Biso   1.000  H
  H276     1.0000 0.73830  0.85300  0.76170  Biso   1.000  H
  H277     1.0000 0.02430  0.80040  0.83320  Biso   1.000  H
  C270     1.0000 0.03140  0.82690  0.87453  Biso   1.000  C
  H278     1.0000 0.01920  0.85090  0.91620  Biso   1.000  H
  Co3      1.0000 0.62014  0.88181  0.74538  Biso   1.000  Co
  O9       1.0000 0.08727  0.83680  0.87167  Biso   1.000  O
  N38      1.0000 0.67124  0.83581  0.71492  Biso   1.000  N
  N39      1.0000 0.68230  0.94430  0.74592  Biso   1.000  N
  N40      1.0000 0.57060  0.92850  0.77607  Biso   1.000  N
  N41      1.0000 0.55910  0.82090  0.74248  Biso   1.000  N
  N42      1.0000 0.57980  0.92740  0.71100  Biso   1.000  N
  C271     1.0000 0.11510  0.86280  0.89492  Biso   1.000  C
  C272     1.0000 0.67880  0.78110  0.71766  Biso   1.000  C
  C273     1.0000 0.69350  0.86070  0.69185  Biso   1.000  C
  C274     1.0000 0.71570  0.97280  0.73520  Biso   1.000  C
  C275     1.0000 0.59640  0.95500  0.79788  Biso   1.000  C
  C276     1.0000 0.51510  0.93030  0.77435  Biso   1.000  C
  C277     1.0000 0.52750  0.78700  0.73527  Biso   1.000  C
  H279     1.0000 0.11580  0.83730  0.91160  Biso   1.000  H
  H280     1.0000 0.09520  0.89750  0.90050  Biso   1.000  H
  C278     1.0000 0.17410  0.87640  0.88570  Biso   1.000  C
  C279     1.0000 0.70910  0.74900  0.69830  Biso   1.000  C
  H281     1.0000 0.66260  0.76290  0.73370  Biso   1.000  H
  H282     1.0000 0.68920  0.90000  0.68980  Biso   1.000  H
  C280     1.0000 0.72260  0.83160  0.67067  Biso   1.000  C
  S10      1.0000 0.75900  0.01630  0.72013  Biso   1.000  S
  C281     1.0000 0.56630  0.98270  0.81883  Biso   1.000  C
  H283     1.0000 0.63610  0.95460  0.79890  Biso   1.000  H
  H284     1.0000 0.49730  0.91250  0.75870  Biso   1.000  H
  C282     1.0000 0.48210  0.95710  0.79439  Biso   1.000  C
  S11      1.0000 0.48399  0.73797  0.72515  Biso   1.000  S
  H285     1.0000 0.19650  0.84150  0.88570  Biso   1.000  H
  H286     1.0000 0.17320  0.89050  0.86580  Biso   1.000  H
  C283     1.0000 0.20280  0.91900  0.90420  Biso   1.000  C
  C284     1.0000 0.73050  0.77410  0.67384  Biso   1.000  C
  H287     1.0000 0.71510  0.71030  0.70180  Biso   1.000  H
  H288     1.0000 0.73670  0.85060  0.65440  Biso   1.000  H
  C285     1.0000 0.50770  0.98410  0.81738  Biso   1.000  C
  H289     1.0000 0.58520  0.00070  0.83410  Biso   1.000  H
  H290     1.0000 0.44250  0.95720  0.79250  Biso   1.000  H
  H291     1.0000 0.24010  0.92670  0.89590  Biso   1.000  H
  H292     1.0000 0.18110  0.95420  0.90320  Biso   1.000  H
  C286     1.0000 0.21050  0.90440  0.93470  Biso   1.000  C
  C287     1.0000 0.75730  0.74130  0.65037  Biso   1.000  C
  C288     1.0000 0.47460  0.01160  0.84045  Biso   1.000  C
  H293     1.0000 0.17450  0.89230  0.94320  Biso   1.000  H
  H294     1.0000 0.22460  0.93700  0.94550  Biso   1.000  H
  C289     1.0000 0.25210  0.85770  0.93540  Biso   1.000  C
  N43      1.0000 0.77040  0.76970  0.62660  Biso   1.000  N
  C290     1.0000 0.76720  0.68380  0.65345  Biso   1.000  C
  N44      1.0000 0.50310  0.02085  0.86473  Biso   1.000  N
  C291     1.0000 0.41820  0.02300  0.83748  Biso   1.000  C
  H295     1.0000 0.23440  0.82200  0.92950  Biso   1.000  H
  H296     1.0000 0.28380  0.86570  0.92240  Biso   1.000  H
  C292     1.0000 0.27170  0.85420  0.96540  Biso   1.000  C
  C293     1.0000 0.79270  0.74170  0.60490  Biso   1.000  C
  C294     1.0000 0.79080  0.65470  0.63055  Biso   1.000  C
  H297     1.0000 0.75810  0.66510  0.67070  Biso   1.000  H
  C295     1.0000 0.47480  0.04260  0.88686  Biso   1.000  C
  H298     1.0000 0.39960  0.01590  0.81990  Biso   1.000  H
  C296     1.0000 0.38870  0.04510  0.86079  Biso   1.000  C
  H299     1.0000 0.24020  0.84200  0.97760  Biso   1.000  H
  H300     1.0000 0.28340  0.89200  0.97180  Biso   1.000  H
  C297     1.0000 0.32060  0.81360  0.96910  Biso   1.000  C
  C298     1.0000 0.80210  0.68450  0.60588  Biso   1.000  C
  C299     1.0000 0.80800  0.77630  0.57922  Biso   1.000  C
  C300     1.0000 0.80280  0.59360  0.63215  Biso   1.000  C
  C301     1.0000 0.41820  0.05460  0.88564  Biso   1.000  C
  C302     1.0000 0.50760  0.05270  0.91292  Biso   1.000  C
  C303     1.0000 0.32790  0.05720  0.85966  Biso   1.000  C
  H301     1.0000 0.35380  0.82690  0.95850  Biso   1.000  H
  H302     1.0000 0.31040  0.77580  0.96210  Biso   1.000  H
  C304     1.0000 0.33230  0.81260  0.00120  Biso   1.000  C
  H303     1.0000 0.81620  0.66570  0.58950  Biso   1.000  H
  C305     1.0000 0.80240  0.83260  0.57895  Biso   1.000  C
  C306     1.0000 0.83000  0.75080  0.55490  Biso   1.000  C
  C307     1.0000 0.79800  0.55970  0.60843  Biso   1.000  C
  C308     1.0000 0.81870  0.56900  0.65755  Biso   1.000  C
  H304     1.0000 0.39960  0.06940  0.90190  Biso   1.000  H
  C309     1.0000 0.48350  0.06910  0.93864  Biso   1.000  C
  C310     1.0000 0.56710  0.04920  0.91262  Biso   1.000  C
  C311     1.0000 0.30140  0.07500  0.83443  Biso   1.000  C
  C312     1.0000 0.29460  0.05090  0.88403  Biso   1.000  C
  H305     1.0000 0.29920  0.82420  0.01250  Biso   1.000  H
  H306     1.0000 0.36480  0.83630  0.00640  Biso   1.000  H
  C313     1.0000 0.34500  0.74840  0.00490  Biso   1.000  C
  H307     1.0000 0.78580  0.85090  0.59490  Biso   1.000  H
  C314     1.0000 0.82050  0.86440  0.55569  Biso   1.000  C
  C315     1.0000 0.84710  0.78430  0.53292  Biso   1.000  C
  H308     1.0000 0.83300  0.71120  0.55370  Biso   1.000  H
  H309     1.0000 0.78670  0.57550  0.59070  Biso   1.000  H
  C316     1.0000 0.80950  0.50340  0.60996  Biso   1.000  C
  C317     1.0000 0.83060  0.51270  0.65967  Biso   1.000  C
  H310     1.0000 0.82140  0.59170  0.67420  Biso   1.000  H
  H311     1.0000 0.44390  0.07120  0.94030  Biso   1.000  H
  C318     1.0000 0.51670  0.08230  0.96152  Biso   1.000  C
  C319     1.0000 0.59660  0.06190  0.93697  Biso   1.000  C
  H312     1.0000 0.58620  0.03810  0.89580  Biso   1.000  H
  H313     1.0000 0.32290  0.07980  0.81750  Biso   1.000  H
  C320     1.0000 0.24330  0.08580  0.83390  Biso   1.000  C
  C321     1.0000 0.23750  0.06170  0.88370  Biso   1.000  C
  H314     1.0000 0.31160  0.03880  0.90130  Biso   1.000  H
  H315     1.0000 0.35410  0.74050  0.02490  Biso   1.000  H
  H316     1.0000 0.31280  0.72640  0.99900  Biso   1.000  H
  H317     1.0000 0.37760  0.73830  0.99300  Biso   1.000  H
  N45      1.0000 0.84350  0.84060  0.53248  Biso   1.000  N
  H318     1.0000 0.81650  0.90400  0.55630  Biso   1.000  H
  H319     1.0000 0.86270  0.76650  0.51660  Biso   1.000  H
  H320     1.0000 0.80630  0.48100  0.59330  Biso   1.000  H
  C322     1.0000 0.82540  0.47930  0.63526  Biso   1.000  C
  H321     1.0000 0.84210  0.49690  0.67730  Biso   1.000  H
  H322     1.0000 0.49900  0.09390  0.97870  Biso   1.000  H
  H323     1.0000 0.63610  0.05780  0.93660  Biso   1.000  H
  H324     1.0000 0.22570  0.09810  0.81680  Biso   1.000  H
  C323     1.0000 0.21240  0.07830  0.85840  Biso   1.000  C
  H325     1.0000 0.21590  0.05780  0.90060  Biso   1.000  H
  O10      1.0000 0.83510  0.42300  0.63511  Biso   1.000  O
  O11      1.0000 0.15610  0.08670  0.86037  Biso   1.000  O
  N46      1.0000 0.93500  0.92960  0.53290  Biso   1.000  N
  N47      1.0000 0.82660  0.95030  0.50257  Biso   1.000  N
  C324     1.0000 0.85160  0.39710  0.66100  Biso   1.000  C
  C325     1.0000 0.12810  0.10290  0.83530  Biso   1.000  C
  C326     1.0000 0.95600  0.90360  0.55536  Biso   1.000  C
  C327     1.0000 0.94040  0.98600  0.53207  Biso   1.000  C
  C328     1.0000 0.79720  0.98300  0.51286  Biso   1.000  C
  H326     1.0000 0.82200  0.40240  0.67550  Biso   1.000  H
  H327     1.0000 0.88630  0.41480  0.66810  Biso   1.000  H
  C329     1.0000 0.86150  0.33490  0.65630  Biso   1.000  C
  H328     1.0000 0.13230  0.07400  0.82030  Biso   1.000  H
  H329     1.0000 0.14310  0.13880  0.82810  Biso   1.000  H
  C330     1.0000 0.06560  0.10940  0.84410  Biso   1.000  C
  C331     1.0000 0.98090  0.93010  0.57813  Biso   1.000  C
  H330     1.0000 0.95380  0.86390  0.55580  Biso   1.000  H
  H331     1.0000 0.92570  0.00560  0.51610  Biso   1.000  H
  C332     1.0000 0.96630  0.01620  0.55339  Biso   1.000  C
  S12      1.0000 0.75710  0.02852  0.52943  Biso   1.000  S
  H332     1.0000 0.88980  0.33030  0.64110  Biso   1.000  H
  H333     1.0000 0.82620  0.31770  0.64950  Biso   1.000  H
  C333     1.0000 0.88130  0.30330  0.68290  Biso   1.000  C
  H334     1.0000 0.05460  0.07740  0.85630  Biso   1.000  H
  H335     1.0000 0.04190  0.10860  0.82670  Biso   1.000  H
  C334     1.0000 0.05560  0.16520  0.86040  Biso   1.000  C
  C335     1.0000 0.98660  0.98880  0.57774  Biso   1.000  C
  H336     1.0000 0.99400  0.90910  0.59400  Biso   1.000  H
  H337     1.0000 0.97030  0.05570  0.55160  Biso   1.000  H
  H338     1.0000 0.91690  0.31940  0.68990  Biso   1.000  H
  H339     1.0000 0.85300  0.30650  0.69820  Biso   1.000  H
  C336     1.0000 0.88950  0.24290  0.67500  Biso   1.000  C
  H340     1.0000 0.04270  0.19410  0.84680  Biso   1.000  H
  H341     1.0000 0.09150  0.17810  0.86880  Biso   1.000  H
  C337     1.0000 0.01080  0.15850  0.88500  Biso   1.000  C
  C338     1.0000 0.01070  0.01940  0.60256  Biso   1.000  C
  H342     1.0000 0.92450  0.23840  0.66390  Biso   1.000  H
  H343     1.0000 0.85780  0.22950  0.66320  Biso   1.000  H
  C339     1.0000 0.89290  0.20900  0.70310  Biso   1.000  C
  H344     1.0000 0.02410  0.12980  0.89870  Biso   1.000  H
  H345     1.0000 0.00780  0.19440  0.89550  Biso   1.000  H
  C340     1.0000 0.95310  0.14190  0.87420  Biso   1.000  C
  N48      1.0000 0.02220  0.98870  0.62548  Biso   1.000  N
  C341     1.0000 0.01950  0.07710  0.60158  Biso   1.000  C
  H346     1.0000 0.86890  0.22780  0.71740  Biso   1.000  H
  H347     1.0000 0.93190  0.21110  0.71010  Biso   1.000  H
  C342     1.0000 0.87560  0.14560  0.70180  Biso   1.000  C
  H348     1.0000 0.93980  0.17070  0.86060  Biso   1.000  H
  H349     1.0000 0.95620  0.10610  0.86360  Biso   1.000  H
  C343     1.0000 0.91100  0.13540  0.89730  Biso   1.000  C
  C344     1.0000 0.04290  0.01500  0.64859  Biso   1.000  C
  H350     1.0000 0.01180  0.09730  0.58460  Biso   1.000  H
  C345     1.0000 0.03940  0.10500  0.62550  Biso   1.000  C
  H351     1.0000 0.84480  0.14100  0.71570  Biso   1.000  H
  H352     1.0000 0.85890  0.13970  0.68270  Biso   1.000  H
  C346     1.0000 0.91590  0.09530  0.70680  Biso   1.000  C
  H353     1.0000 0.92550  0.10790  0.91130  Biso   1.000  H
  H354     1.0000 0.90720  0.17170  0.90730  Biso   1.000  H
  C347     1.0000 0.85490  0.11710  0.88820  Biso   1.000  C
  C348     1.0000 0.05150  0.07180  0.64933  Biso   1.000  C
  C349     1.0000 0.05670  0.97820  0.67318  Biso   1.000  C
  C350     1.0000 0.05050  0.16580  0.62547  Biso   1.000  C
  H355     1.0000 0.91940  0.10250  0.72750  Biso   1.000  H
  H356     1.0000 0.94870  0.11500  0.69870  Biso   1.000  H
  C351     1.0000 0.94750  0.03660  0.70850  Biso   1.000  C
  H357     1.0000 0.85870  0.08630  0.87420  Biso   1.000  H
  H358     1.0000 0.83550  0.14860  0.87870  Biso   1.000  H
  C352     1.0000 0.81860  0.09620  0.91430  Biso   1.000  C
  H359     1.0000 0.06580  0.08870  0.66620  Biso   1.000  H
  C353     1.0000 0.07750  0.00080  0.69848  Biso   1.000  C
  C354     1.0000 0.05150  0.92080  0.67184  Biso   1.000  C
  C355     1.0000 0.06760  0.19350  0.60138  Biso   1.000  C
  C356     1.0000 0.04250  0.19740  0.65043  Biso   1.000  C
  H360     1.0000 0.94500  0.02260  0.68870  Biso   1.000  H
  H361     1.0000 0.98710  0.04780  0.71100  Biso   1.000  H
  C357     1.0000 0.94340  0.98160  0.72670  Biso   1.000  C
  H362     1.0000 0.81710  0.12610  0.92890  Biso   1.000  H
  H363     1.0000 0.83670  0.06310  0.92290  Biso   1.000  H
  C358     1.0000 0.75710  0.08050  0.90500  Biso   1.000  C
  H364     1.0000 0.07980  0.04020  0.70090  Biso   1.000  H
  C359     1.0000 0.09500  0.96510  0.72009  Biso   1.000  C
  C360     1.0000 0.07090  0.88870  0.69486  Biso   1.000  C
  H365     1.0000 0.03510  0.90340  0.65570  Biso   1.000  H
  H366     1.0000 0.07250  0.17290  0.58420  Biso   1.000  H
  C361     1.0000 0.07810  0.25160  0.60111  Biso   1.000  C
  C362     1.0000 0.05190  0.25490  0.65082  Biso   1.000  C
  H367     1.0000 0.03050  0.17920  0.66740  Biso   1.000  H
  H368     1.0000 0.97220  0.95510  0.72030  Biso   1.000  H
  H369     1.0000 0.94910  0.99040  0.74690  Biso   1.000  H
  H370     1.0000 0.90630  0.96480  0.72410  Biso   1.000  H
  H371     1.0000 0.74940  0.09610  0.88610  Biso   1.000  H
  H372     1.0000 0.73040  0.09600  0.91880  Biso   1.000  H
  H373     1.0000 0.75320  0.03970  0.90440  Biso   1.000  H
  H374     1.0000 0.10770  0.98130  0.73750  Biso   1.000  H
  H375     1.0000 0.06660  0.84920  0.69400  Biso   1.000  H
  H376     1.0000 0.09080  0.26950  0.58420  Biso   1.000  H
  C363     1.0000 0.06960  0.28230  0.62623  Biso   1.000  C
  H377     1.0000 0.04630  0.27540  0.66790  Biso   1.000  H
  O12      1.0000 0.07820  0.33810  0.62917  Biso   1.000  O
  C364     1.0000 0.09790  0.36650  0.60540  Biso   1.000  C
  H378     1.0000 0.06920  0.36640  0.59020  Biso   1.000  H
  H379     1.0000 0.13210  0.34810  0.59800  Biso   1.000  H
  C365     1.0000 0.11130  0.42700  0.61430  Biso   1.000  C
  H380     1.0000 0.07810  0.44370  0.62360  Biso   1.000  H
  H381     1.0000 0.14240  0.42690  0.62830  Biso   1.000  H
  C366     1.0000 0.12770  0.46220  0.58840  Biso   1.000  C
  H382     1.0000 0.15720  0.44180  0.57790  Biso   1.000  H
  H383     1.0000 0.09470  0.46480  0.57570  Biso   1.000  H
  C367     1.0000 0.14770  0.51870  0.59380  Biso   1.000  C
  H384     1.0000 0.15340  0.53640  0.57490  Biso   1.000  H
  H385     1.0000 0.18520  0.51500  0.60260  Biso   1.000  H
  C368     1.0000 0.11510  0.55990  0.61180  Biso   1.000  C
  H386     1.0000 0.07940  0.56830  0.60200  Biso   1.000  H
  H387     1.0000 0.10580  0.54170  0.63020  Biso   1.000  H
  C369     1.0000 0.14310  0.61110  0.61760  Biso   1.000  C
  H388     1.0000 0.15960  0.62340  0.59920  Biso   1.000  H
  H389     1.0000 0.17480  0.60160  0.63020  Biso   1.000  H
  C370     1.0000 0.11560  0.66250  0.63050  Biso   1.000  C
  H390     1.0000 0.13980  0.69540  0.62690  Biso   1.000  H
  H391     1.0000 0.07940  0.66910  0.62070  Biso   1.000  H
  C371     1.0000 0.10510  0.65790  0.66210  Biso   1.000  C
  H392     1.0000 0.14030  0.65020  0.67250  Biso   1.000  H
  H393     1.0000 0.07790  0.62770  0.66620  Biso   1.000  H
  C372     1.0000 0.08090  0.71580  0.67050  Biso   1.000  C
  H394     1.0000 0.11100  0.74370  0.67050  Biso   1.000  H
  H395     1.0000 0.06440  0.71350  0.68960  Biso   1.000  H
  H396     1.0000 0.05210  0.72680  0.65670  Biso   1.000  H
  N49      1.0000 0.31840  0.31550  0.46729  Biso   1.000  N
  N50      1.0000 0.30000  0.42300  0.49844  Biso   1.000  N
  N51      1.0000 0.41100  0.40500  0.46789  Biso   1.000  N
  C373     1.0000 0.26340  0.30730  0.46865  Biso   1.000  C
  C374     1.0000 0.34470  0.29630  0.44387  Biso   1.000  C
  C375     1.0000 0.27920  0.45900  0.50440  Biso   1.000  C
  C376     1.0000 0.23310  0.28030  0.44729  Biso   1.000  C
  H397     1.0000 0.24380  0.32050  0.48500  Biso   1.000  H
  H398     1.0000 0.38390  0.30240  0.44240  Biso   1.000  H
  C377     1.0000 0.31920  0.26870  0.42229  Biso   1.000  C
  S13      1.0000 0.24870  0.51710  0.51440  Biso   1.000  S
  C378     1.0000 0.26020  0.26070  0.42320  Biso   1.000  C
  H399     1.0000 0.19380  0.27530  0.44930  Biso   1.000  H
  H400     1.0000 0.34040  0.25490  0.40670  Biso   1.000  H
  C379     1.0000 0.22970  0.23570  0.39866  Biso   1.000  C
  N52      1.0000 0.26080  0.22480  0.37513  Biso   1.000  N
  C380     1.0000 0.17260  0.22570  0.40002  Biso   1.000  C
  C381     1.0000 0.23430  0.20400  0.35214  Biso   1.000  C
  C382     1.0000 0.14510  0.20400  0.37608  Biso   1.000  C
  H401     1.0000 0.15240  0.23350  0.41700  Biso   1.000  H
  C383     1.0000 0.17750  0.19350  0.35184  Biso   1.000  C
  C384     1.0000 0.26970  0.19130  0.32667  Biso   1.000  C
  C385     1.0000 0.08410  0.19360  0.37589  Biso   1.000  C
  H402     1.0000 0.16030  0.17920  0.33510  Biso   1.000  H
  C386     1.0000 0.32800  0.19350  0.32765  Biso   1.000  C
  C387     1.0000 0.24590  0.17490  0.30129  Biso   1.000  C
  C388     1.0000 0.05280  0.20300  0.35102  Biso   1.000  C
  C389     1.0000 0.05650  0.17460  0.39978  Biso   1.000  C
  H403     1.0000 0.34650  0.20630  0.34440  Biso   1.000  H
  C390     1.0000 0.35850  0.17710  0.30435  Biso   1.000  C
  C391     1.0000 0.27930  0.15890  0.27879  Biso   1.000  C
  H404     1.0000 0.20630  0.17460  0.29930  Biso   1.000  H
  H405     1.0000 0.07120  0.21660  0.33440  Biso   1.000  H
  C392     1.0000 0.99610  0.19300  0.35023  Biso   1.000  C
  C393     1.0000 0.99890  0.16320  0.39961  Biso   1.000  C
  H406     1.0000 0.07710  0.16900  0.41690  Biso   1.000  H
  N53      1.0000 0.33550  0.15910  0.27978  Biso   1.000  N
  H407     1.0000 0.39820  0.17850  0.30560  Biso   1.000  H
  H408     1.0000 0.26170  0.14700  0.26170  Biso   1.000  H
  H409     1.0000 0.97570  0.19960  0.33320  Biso   1.000  H
  C394     1.0000 0.96860  0.17310  0.37453  Biso   1.000  C
  H410     1.0000 0.98080  0.14910  0.41620  Biso   1.000  H
  Co4      1.0000 0.37986  0.11819  0.24538  Biso   1.000  Co
  O13      1.0000 0.91273  0.16320  0.37167  Biso   1.000  O
  N54      1.0000 0.32876  0.16419  0.21492  Biso   1.000  N
  N55      1.0000 0.31770  0.05570  0.24592  Biso   1.000  N
  N56      1.0000 0.42940  0.07150  0.27607  Biso   1.000  N
  N57      1.0000 0.44090  0.17910  0.24248  Biso   1.000  N
  N58      1.0000 0.42020  0.07260  0.21100  Biso   1.000  N
  C395     1.0000 0.88490  0.13720  0.39492  Biso   1.000  C
  C396     1.0000 0.32120  0.21890  0.21766  Biso   1.000  C
  C397     1.0000 0.30650  0.13930  0.19185  Biso   1.000  C
  C398     1.0000 0.28430  0.02720  0.23520  Biso   1.000  C
  C399     1.0000 0.40360  0.04500  0.29788  Biso   1.000  C
  C400     1.0000 0.48490  0.06970  0.27435  Biso   1.000  C
  C401     1.0000 0.47250  0.21300  0.23527  Biso   1.000  C
  H411     1.0000 0.88420  0.16270  0.41160  Biso   1.000  H
  H412     1.0000 0.90480  0.10250  0.40050  Biso   1.000  H
  C402     1.0000 0.82590  0.12360  0.38570  Biso   1.000  C
  C403     1.0000 0.29090  0.25100  0.19830  Biso   1.000  C
  H413     1.0000 0.33740  0.23710  0.23370  Biso   1.000  H
  H414     1.0000 0.31080  0.10000  0.18980  Biso   1.000  H
  C404     1.0000 0.27740  0.16840  0.17067  Biso   1.000  C
  S14      1.0000 0.24100  0.98370  0.22013  Biso   1.000  S
  C405     1.0000 0.43370  0.01730  0.31883  Biso   1.000  C
  H415     1.0000 0.36390  0.04540  0.29890  Biso   1.000  H
  H416     1.0000 0.50270  0.08750  0.25870  Biso   1.000  H
  C406     1.0000 0.51790  0.04290  0.29439  Biso   1.000  C
  S15      1.0000 0.51601  0.26203  0.22515  Biso   1.000  S
  H417     1.0000 0.80350  0.15850  0.38570  Biso   1.000  H
  H418     1.0000 0.82680  0.10950  0.36580  Biso   1.000  H
  C407     1.0000 0.79720  0.08100  0.40420  Biso   1.000  C
  C408     1.0000 0.26950  0.22590  0.17384  Biso   1.000  C
  H419     1.0000 0.28490  0.28970  0.20180  Biso   1.000  H
  H420     1.0000 0.26330  0.14940  0.15440  Biso   1.000  H
  C409     1.0000 0.49230  0.01590  0.31738  Biso   1.000  C
  H421     1.0000 0.41480  0.99930  0.33410  Biso   1.000  H
  H422     1.0000 0.55750  0.04280  0.29250  Biso   1.000  H
  H423     1.0000 0.75990  0.07330  0.39590  Biso   1.000  H
  H424     1.0000 0.81890  0.04580  0.40320  Biso   1.000  H
  C410     1.0000 0.78950  0.09560  0.43470  Biso   1.000  C
  C411     1.0000 0.24270  0.25870  0.15037  Biso   1.000  C
  C412     1.0000 0.52540  0.98840  0.34045  Biso   1.000  C
  H425     1.0000 0.82550  0.10770  0.44320  Biso   1.000  H
  H426     1.0000 0.77540  0.06300  0.44550  Biso   1.000  H
  C413     1.0000 0.74790  0.14230  0.43540  Biso   1.000  C
  N59      1.0000 0.22960  0.23030  0.12660  Biso   1.000  N
  C414     1.0000 0.23280  0.31620  0.15345  Biso   1.000  C
  N60      1.0000 0.49690  0.97915  0.36473  Biso   1.000  N
  C415     1.0000 0.58180  0.97700  0.33748  Biso   1.000  C
  H427     1.0000 0.76560  0.17800  0.42950  Biso   1.000  H
  H428     1.0000 0.71620  0.13430  0.42240  Biso   1.000  H
  C416     1.0000 0.72830  0.14580  0.46540  Biso   1.000  C
  C417     1.0000 0.20730  0.25830  0.10490  Biso   1.000  C
  C418     1.0000 0.20920  0.34530  0.13055  Biso   1.000  C
  H429     1.0000 0.24190  0.33490  0.17070  Biso   1.000  H
  C419     1.0000 0.52520  0.95740  0.38686  Biso   1.000  C
  H430     1.0000 0.60040  0.98410  0.31990  Biso   1.000  H
  C420     1.0000 0.61130  0.95490  0.36079  Biso   1.000  C
  H431     1.0000 0.75980  0.15800  0.47760  Biso   1.000  H
  H432     1.0000 0.71660  0.10800  0.47180  Biso   1.000  H
  C421     1.0000 0.67940  0.18640  0.46910  Biso   1.000  C
  C422     1.0000 0.19790  0.31550  0.10588  Biso   1.000  C
  C423     1.0000 0.19200  0.22370  0.07922  Biso   1.000  C
  C424     1.0000 0.19720  0.40640  0.13215  Biso   1.000  C
  C425     1.0000 0.58180  0.94540  0.38564  Biso   1.000  C
  C426     1.0000 0.49240  0.94730  0.41292  Biso   1.000  C
  C427     1.0000 0.67210  0.94280  0.35966  Biso   1.000  C
  H433     1.0000 0.64620  0.17310  0.45850  Biso   1.000  H
  H434     1.0000 0.68960  0.22420  0.46210  Biso   1.000  H
  C428     1.0000 0.66770  0.18740  0.50120  Biso   1.000  C
  H435     1.0000 0.18380  0.33430  0.08950  Biso   1.000  H
  C429     1.0000 0.19760  0.16740  0.07895  Biso   1.000  C
  C430     1.0000 0.17000  0.24920  0.05490  Biso   1.000  C
  C431     1.0000 0.20200  0.44030  0.10843  Biso   1.000  C
  C432     1.0000 0.18130  0.43100  0.15755  Biso   1.000  C
  H436     1.0000 0.60040  0.93060  0.40190  Biso   1.000  H
  C433     1.0000 0.51650  0.93090  0.43864  Biso   1.000  C
  C434     1.0000 0.43290  0.95080  0.41262  Biso   1.000  C
  C435     1.0000 0.69860  0.92500  0.33443  Biso   1.000  C
  C436     1.0000 0.70540  0.94910  0.38403  Biso   1.000  C
  H437     1.0000 0.70080  0.17580  0.51250  Biso   1.000  H
  H438     1.0000 0.63520  0.16370  0.50640  Biso   1.000  H
  C437     1.0000 0.65500  0.25160  0.50490  Biso   1.000  C
  H439     1.0000 0.21420  0.14910  0.09490  Biso   1.000  H
  C438     1.0000 0.17950  0.13560  0.05569  Biso   1.000  C
  C439     1.0000 0.15290  0.21570  0.03292  Biso   1.000  C
  H440     1.0000 0.16700  0.28880  0.05370  Biso   1.000  H
  H441     1.0000 0.21330  0.42450  0.09070  Biso   1.000  H
  C440     1.0000 0.19050  0.49660  0.10996  Biso   1.000  C
  C441     1.0000 0.16940  0.48730  0.15967  Biso   1.000  C
  H442     1.0000 0.17860  0.40830  0.17420  Biso   1.000  H
  H443     1.0000 0.55610  0.92880  0.44030  Biso   1.000  H
  C442     1.0000 0.48330  0.91770  0.46152  Biso   1.000  C
  C443     1.0000 0.40340  0.93810  0.43697  Biso   1.000  C
  H444     1.0000 0.41380  0.96190  0.39580  Biso   1.000  H
  H445     1.0000 0.67710  0.92020  0.31750  Biso   1.000  H
  C444     1.0000 0.75670  0.91420  0.33390  Biso   1.000  C
  C445     1.0000 0.76250  0.93830  0.38370  Biso   1.000  C
  H446     1.0000 0.68840  0.96120  0.40130  Biso   1.000  H
  H447     1.0000 0.64590  0.25950  0.52490  Biso   1.000  H
  H448     1.0000 0.68720  0.27360  0.49900  Biso   1.000  H
  H449     1.0000 0.62240  0.26170  0.49300  Biso   1.000  H
  N61      1.0000 0.15650  0.15940  0.03248  Biso   1.000  N
  H450     1.0000 0.18350  0.09600  0.05630  Biso   1.000  H
  H451     1.0000 0.13730  0.23350  0.01660  Biso   1.000  H
  H452     1.0000 0.19370  0.51900  0.09330  Biso   1.000  H
  C446     1.0000 0.17460  0.52070  0.13526  Biso   1.000  C
  H453     1.0000 0.15790  0.50310  0.17730  Biso   1.000  H
  H454     1.0000 0.50100  0.90610  0.47870  Biso   1.000  H
  H455     1.0000 0.36390  0.94220  0.43660  Biso   1.000  H
  H456     1.0000 0.77430  0.90190  0.31680  Biso   1.000  H
  C447     1.0000 0.78760  0.92170  0.35840  Biso   1.000  C
  H457     1.0000 0.78410  0.94220  0.40060  Biso   1.000  H
  O14      1.0000 0.16490  0.57700  0.13511  Biso   1.000  O
  O15      1.0000 0.84390  0.91330  0.36037  Biso   1.000  O
  N62      1.0000 0.06500  0.07040  0.03290  Biso   1.000  N
  N63      1.0000 0.17340  0.04970  0.00257  Biso   1.000  N
  C448     1.0000 0.14840  0.60290  0.16100  Biso   1.000  C
  C449     1.0000 0.87190  0.89710  0.33530  Biso   1.000  C
  C450     1.0000 0.04400  0.09640  0.05536  Biso   1.000  C
  C451     1.0000 0.05960  0.01400  0.03207  Biso   1.000  C
  C452     1.0000 0.20280  0.01700  0.01286  Biso   1.000  C
  H458     1.0000 0.17800  0.59760  0.17550  Biso   1.000  H
  H459     1.0000 0.11370  0.58520  0.16810  Biso   1.000  H
  C453     1.0000 0.13850  0.66510  0.15630  Biso   1.000  C
  H460     1.0000 0.86770  0.92600  0.32030  Biso   1.000  H
  H461     1.0000 0.85690  0.86120  0.32810  Biso   1.000  H
  C454     1.0000 0.93440  0.89060  0.34410  Biso   1.000  C
  C455     1.0000 0.01910  0.06990  0.07813  Biso   1.000  C
  H462     1.0000 0.04620  0.13610  0.05580  Biso   1.000  H
  H463     1.0000 0.07430  0.99440  0.01610  Biso   1.000  H
  C456     1.0000 0.03370  0.98380  0.05339  Biso   1.000  C
  S16      1.0000 0.24290  0.97148  0.02943  Biso   1.000  S
  H464     1.0000 0.11020  0.66970  0.14110  Biso   1.000  H
  H465     1.0000 0.17380  0.68230  0.14950  Biso   1.000  H
  C457     1.0000 0.11870  0.69670  0.18290  Biso   1.000  C
  H466     1.0000 0.94540  0.92260  0.35630  Biso   1.000  H
  H467     1.0000 0.95810  0.89140  0.32670  Biso   1.000  H
  C458     1.0000 0.94440  0.83480  0.36040  Biso   1.000  C
  C459     1.0000 0.01340  0.01120  0.07774  Biso   1.000  C
  H468     1.0000 0.00600  0.09090  0.09400  Biso   1.000  H
  H469     1.0000 0.02970  0.94430  0.05160  Biso   1.000  H
  H470     1.0000 0.08310  0.68060  0.18990  Biso   1.000  H
  H471     1.0000 0.14700  0.69350  0.19820  Biso   1.000  H
  C460     1.0000 0.11050  0.75710  0.17500  Biso   1.000  C
  H472     1.0000 0.95730  0.80590  0.34680  Biso   1.000  H
  H473     1.0000 0.90850  0.82190  0.36880  Biso   1.000  H
  C461     1.0000 0.98920  0.84150  0.38500  Biso   1.000  C
  C462     1.0000 0.98930  0.98060  0.10256  Biso   1.000  C
  H474     1.0000 0.07550  0.76160  0.16390  Biso   1.000  H
  H475     1.0000 0.14220  0.77050  0.16320  Biso   1.000  H
  C463     1.0000 0.10710  0.79100  0.20310  Biso   1.000  C
  H476     1.0000 0.97590  0.87020  0.39870  Biso   1.000  H
  H477     1.0000 0.99220  0.80560  0.39550  Biso   1.000  H
  C464     1.0000 0.04690  0.85810  0.37420  Biso   1.000  C
  N64      1.0000 0.97780  0.01130  0.12548  Biso   1.000  N
  C465     1.0000 0.98050  0.92290  0.10158  Biso   1.000  C
  H478     1.0000 0.13110  0.77220  0.21740  Biso   1.000  H
  H479     1.0000 0.06810  0.78890  0.21010  Biso   1.000  H
  C466     1.0000 0.12440  0.85440  0.20180  Biso   1.000  C
  H480     1.0000 0.06020  0.82930  0.36060  Biso   1.000  H
  H481     1.0000 0.04380  0.89390  0.36360  Biso   1.000  H
  C467     1.0000 0.08900  0.86460  0.39730  Biso   1.000  C
  C468     1.0000 0.95710  0.98500  0.14859  Biso   1.000  C
  H482     1.0000 0.98820  0.90270  0.08460  Biso   1.000  H
  C469     1.0000 0.96060  0.89500  0.12550  Biso   1.000  C
  H483     1.0000 0.15520  0.85900  0.21570  Biso   1.000  H
  H484     1.0000 0.14110  0.86030  0.18270  Biso   1.000  H
  C470     1.0000 0.08410  0.90470  0.20680  Biso   1.000  C
  H485     1.0000 0.07450  0.89210  0.41130  Biso   1.000  H
  H486     1.0000 0.09280  0.82830  0.40730  Biso   1.000  H
  C471     1.0000 0.14510  0.88290  0.38820  Biso   1.000  C
  C472     1.0000 0.94850  0.92820  0.14933  Biso   1.000  C
  C473     1.0000 0.94330  0.02180  0.17318  Biso   1.000  C
  C474     1.0000 0.94950  0.83420  0.12547  Biso   1.000  C
  H487     1.0000 0.08060  0.89750  0.22750  Biso   1.000  H
  H488     1.0000 0.05130  0.88500  0.19870  Biso   1.000  H
  C475     1.0000 0.05250  0.96340  0.20850  Biso   1.000  C
  H489     1.0000 0.14130  0.91370  0.37420  Biso   1.000  H
  H490     1.0000 0.16450  0.85140  0.37870  Biso   1.000  H
  C476     1.0000 0.18140  0.90380  0.41430  Biso   1.000  C
  H491     1.0000 0.93420  0.91130  0.16620  Biso   1.000  H
  C477     1.0000 0.92250  0.99920  0.19848  Biso   1.000  C
  C478     1.0000 0.94850  0.07920  0.17184  Biso   1.000  C
  C479     1.0000 0.93240  0.80650  0.10138  Biso   1.000  C
  C480     1.0000 0.95750  0.80260  0.15043  Biso   1.000  C
  H492     1.0000 0.05500  0.97740  0.18870  Biso   1.000  H
  H493     1.0000 0.01290  0.95220  0.21100  Biso   1.000  H
  C481     1.0000 0.05660  0.01840  0.22670  Biso   1.000  C
  H494     1.0000 0.18290  0.87390  0.42890  Biso   1.000  H
  H495     1.0000 0.16330  0.93690  0.42290  Biso   1.000  H
  C482     1.0000 0.24290  0.91950  0.40500  Biso   1.000  C
  H496     1.0000 0.92020  0.95980  0.20090  Biso   1.000  H
  C483     1.0000 0.90500  0.03490  0.22009  Biso   1.000  C
  C484     1.0000 0.92910  0.11130  0.19486  Biso   1.000  C
  H497     1.0000 0.96490  0.09660  0.15570  Biso   1.000  H
  H498     1.0000 0.92750  0.82710  0.08420  Biso   1.000  H
  C485     1.0000 0.92190  0.74840  0.10111  Biso   1.000  C
  C486     1.0000 0.94810  0.74510  0.15082  Biso   1.000  C
  H499     1.0000 0.96950  0.82080  0.16740  Biso   1.000  H
  H500     1.0000 0.02780  0.04490  0.22030  Biso   1.000  H
  H501     1.0000 0.05090  0.00960  0.24690  Biso   1.000  H
  H502     1.0000 0.09370  0.03520  0.22410  Biso   1.000  H
  H503     1.0000 0.25060  0.90390  0.38610  Biso   1.000  H
  H504     1.0000 0.26960  0.90400  0.41880  Biso   1.000  H
  H505     1.0000 0.24680  0.96030  0.40440  Biso   1.000  H
  H506     1.0000 0.89230  0.01870  0.23750  Biso   1.000  H
  H507     1.0000 0.93340  0.15080  0.19400  Biso   1.000  H
  H508     1.0000 0.90920  0.73050  0.08420  Biso   1.000  H
  C487     1.0000 0.93040  0.71770  0.12623  Biso   1.000  C
  H509     1.0000 0.95370  0.72460  0.16790  Biso   1.000  H
  O16      1.0000 0.92180  0.66190  0.12917  Biso   1.000  O
  C488     1.0000 0.90210  0.63350  0.10540  Biso   1.000  C
  H510     1.0000 0.93080  0.63360  0.09020  Biso   1.000  H
  H511     1.0000 0.86790  0.65190  0.09800  Biso   1.000  H
  C489     1.0000 0.88870  0.57300  0.11430  Biso   1.000  C
  H512     1.0000 0.92190  0.55630  0.12360  Biso   1.000  H
  H513     1.0000 0.85760  0.57310  0.12830  Biso   1.000  H
  C490     1.0000 0.87230  0.53780  0.08840  Biso   1.000  C
  H514     1.0000 0.84280  0.55820  0.07790  Biso   1.000  H
  H515     1.0000 0.90530  0.53520  0.07570  Biso   1.000  H
  C491     1.0000 0.85230  0.48130  0.09380  Biso   1.000  C
  H516     1.0000 0.84660  0.46360  0.07490  Biso   1.000  H
  H517     1.0000 0.81480  0.48500  0.10260  Biso   1.000  H
  C492     1.0000 0.88490  0.44010  0.11180  Biso   1.000  C
  H518     1.0000 0.92060  0.43170  0.10200  Biso   1.000  H
  H519     1.0000 0.89420  0.45830  0.13020  Biso   1.000  H
  C493     1.0000 0.85690  0.38890  0.11760  Biso   1.000  C
  H520     1.0000 0.84040  0.37660  0.09920  Biso   1.000  H
  H521     1.0000 0.82520  0.39840  0.13020  Biso   1.000  H
  C494     1.0000 0.88440  0.33750  0.13050  Biso   1.000  C
  H522     1.0000 0.86020  0.30460  0.12690  Biso   1.000  H
  H523     1.0000 0.92060  0.33090  0.12070  Biso   1.000  H
  C495     1.0000 0.89490  0.34210  0.16210  Biso   1.000  C
  H524     1.0000 0.85970  0.34980  0.17250  Biso   1.000  H
  H525     1.0000 0.92210  0.37230  0.16620  Biso   1.000  H
  C496     1.0000 0.91910  0.28420  0.17050  Biso   1.000  C
  H526     1.0000 0.88900  0.25630  0.17050  Biso   1.000  H
  H527     1.0000 0.93560  0.28650  0.18960  Biso   1.000  H
  H528     1.0000 0.94790  0.27320  0.15670  Biso   1.000  H
  N65      1.0000 0.31550  0.31840  0.53271  Biso   1.000  N
  N66      1.0000 0.42300  0.30000  0.50156  Biso   1.000  N
  N67      1.0000 0.40500  0.41100  0.53211  Biso   1.000  N
  C497     1.0000 0.30730  0.26340  0.53135  Biso   1.000  C
  C498     1.0000 0.29630  0.34470  0.55613  Biso   1.000  C
  C499     1.0000 0.45900  0.27920  0.49560  Biso   1.000  C
  C500     1.0000 0.28030  0.23310  0.55271  Biso   1.000  C
  H529     1.0000 0.32050  0.24380  0.51500  Biso   1.000  H
  H530     1.0000 0.30240  0.38390  0.55760  Biso   1.000  H
  C501     1.0000 0.26870  0.31920  0.57771  Biso   1.000  C
  S17      1.0000 0.51710  0.24870  0.48560  Biso   1.000  S
  C502     1.0000 0.26070  0.26020  0.57680  Biso   1.000  C
  H531     1.0000 0.27530  0.19380  0.55070  Biso   1.000  H
  H532     1.0000 0.25490  0.34040  0.59330  Biso   1.000  H
  C503     1.0000 0.23570  0.22970  0.60134  Biso   1.000  C
  N68      1.0000 0.22480  0.26080  0.62487  Biso   1.000  N
  C504     1.0000 0.22570  0.17260  0.59998  Biso   1.000  C
  C505     1.0000 0.20400  0.23430  0.64786  Biso   1.000  C
  C506     1.0000 0.20400  0.14510  0.62392  Biso   1.000  C
  H533     1.0000 0.23350  0.15240  0.58300  Biso   1.000  H
  C507     1.0000 0.19350  0.17750  0.64816  Biso   1.000  C
  C508     1.0000 0.19130  0.26970  0.67333  Biso   1.000  C
  C509     1.0000 0.19360  0.08410  0.62411  Biso   1.000  C
  H534     1.0000 0.17920  0.16030  0.66490  Biso   1.000  H
  C510     1.0000 0.19350  0.32800  0.67235  Biso   1.000  C
  C511     1.0000 0.17490  0.24590  0.69871  Biso   1.000  C
  C512     1.0000 0.20300  0.05280  0.64898  Biso   1.000  C
  C513     1.0000 0.17460  0.05650  0.60022  Biso   1.000  C
  H535     1.0000 0.20630  0.34650  0.65560  Biso   1.000  H
  C514     1.0000 0.17710  0.35850  0.69565  Biso   1.000  C
  C515     1.0000 0.15890  0.27930  0.72121  Biso   1.000  C
  H536     1.0000 0.17460  0.20630  0.70070  Biso   1.000  H
  H537     1.0000 0.21660  0.07120  0.66560  Biso   1.000  H
  C516     1.0000 0.19300  0.99610  0.64977  Biso   1.000  C
  C517     1.0000 0.16320  0.99890  0.60039  Biso   1.000  C
  H538     1.0000 0.16900  0.07710  0.58310  Biso   1.000  H
  N69      1.0000 0.15910  0.33550  0.72022  Biso   1.000  N
  H539     1.0000 0.17850  0.39820  0.69440  Biso   1.000  H
  H540     1.0000 0.14700  0.26170  0.73830  Biso   1.000  H
  H541     1.0000 0.19960  0.97570  0.66680  Biso   1.000  H
  C518     1.0000 0.17310  0.96860  0.62547  Biso   1.000  C
  H542     1.0000 0.14910  0.98080  0.58380  Biso   1.000  H
  Co5      1.0000 0.11819  0.37986  0.75462  Biso   1.000  Co
  O17      1.0000 0.16320  0.91273  0.62833  Biso   1.000  O
  N70      1.0000 0.16419  0.32876  0.78508  Biso   1.000  N
  N71      1.0000 0.05570  0.31770  0.75408  Biso   1.000  N
  N72      1.0000 0.07150  0.42940  0.72393  Biso   1.000  N
  N73      1.0000 0.17910  0.44090  0.75752  Biso   1.000  N
  N74      1.0000 0.07260  0.42020  0.78900  Biso   1.000  N
  C519     1.0000 0.13720  0.88490  0.60508  Biso   1.000  C
  C520     1.0000 0.21890  0.32120  0.78234  Biso   1.000  C
  C521     1.0000 0.13930  0.30650  0.80815  Biso   1.000  C
  C522     1.0000 0.02720  0.28430  0.76480  Biso   1.000  C
  C523     1.0000 0.04500  0.40360  0.70212  Biso   1.000  C
  C524     1.0000 0.06970  0.48490  0.72565  Biso   1.000  C
  C525     1.0000 0.21300  0.47250  0.76473  Biso   1.000  C
  H543     1.0000 0.16270  0.88420  0.58840  Biso   1.000  H
  H544     1.0000 0.10250  0.90480  0.59950  Biso   1.000  H
  C526     1.0000 0.12360  0.82590  0.61430  Biso   1.000  C
  C527     1.0000 0.25100  0.29090  0.80170  Biso   1.000  C
  H545     1.0000 0.23710  0.33740  0.76630  Biso   1.000  H
  H546     1.0000 0.10000  0.31080  0.81020  Biso   1.000  H
  C528     1.0000 0.16840  0.27740  0.82933  Biso   1.000  C
  S18      1.0000 0.98370  0.24100  0.77987  Biso   1.000  S
  C529     1.0000 0.01730  0.43370  0.68117  Biso   1.000  C
  H547     1.0000 0.04540  0.36390  0.70110  Biso   1.000  H
  H548     1.0000 0.08750  0.50270  0.74130  Biso   1.000  H
  C530     1.0000 0.04290  0.51790  0.70561  Biso   1.000  C
  S19      1.0000 0.26203  0.51601  0.77485  Biso   1.000  S
  H549     1.0000 0.15850  0.80350  0.61430  Biso   1.000  H
  H550     1.0000 0.10950  0.82680  0.63420  Biso   1.000  H
  C531     1.0000 0.08100  0.79720  0.59580  Biso   1.000  C
  C532     1.0000 0.22590  0.26950  0.82616  Biso   1.000  C
  H551     1.0000 0.28970  0.28490  0.79820  Biso   1.000  H
  H552     1.0000 0.14940  0.26330  0.84560  Biso   1.000  H
  C533     1.0000 0.01590  0.49230  0.68262  Biso   1.000  C
  H553     1.0000 0.99930  0.41480  0.66590  Biso   1.000  H
  H554     1.0000 0.04280  0.55750  0.70750  Biso   1.000  H
  H555     1.0000 0.07330  0.75990  0.60410  Biso   1.000  H
  H556     1.0000 0.04580  0.81890  0.59680  Biso   1.000  H
  C534     1.0000 0.09560  0.78950  0.56530  Biso   1.000  C
  C535     1.0000 0.25870  0.24270  0.84963  Biso   1.000  C
  C536     1.0000 0.98840  0.52540  0.65955  Biso   1.000  C
  H557     1.0000 0.10770  0.82550  0.55680  Biso   1.000  H
  H558     1.0000 0.06300  0.77540  0.55450  Biso   1.000  H
  C537     1.0000 0.14230  0.74790  0.56460  Biso   1.000  C
  N75      1.0000 0.23030  0.22960  0.87340  Biso   1.000  N
  C538     1.0000 0.31620  0.23280  0.84655  Biso   1.000  C
  N76      1.0000 0.97915  0.49690  0.63527  Biso   1.000  N
  C539     1.0000 0.97700  0.58180  0.66252  Biso   1.000  C
  H559     1.0000 0.17800  0.76560  0.57050  Biso   1.000  H
  H560     1.0000 0.13430  0.71620  0.57760  Biso   1.000  H
  C540     1.0000 0.14580  0.72830  0.53460  Biso   1.000  C
  C541     1.0000 0.25830  0.20730  0.89510  Biso   1.000  C
  C542     1.0000 0.34530  0.20920  0.86945  Biso   1.000  C
  H561     1.0000 0.33490  0.24190  0.82930  Biso   1.000  H
  C543     1.0000 0.95740  0.52520  0.61314  Biso   1.000  C
  H562     1.0000 0.98410  0.60040  0.68010  Biso   1.000  H
  C544     1.0000 0.95490  0.61130  0.63921  Biso   1.000  C
  H563     1.0000 0.15800  0.75980  0.52240  Biso   1.000  H
  H564     1.0000 0.10800  0.71660  0.52820  Biso   1.000  H
  C545     1.0000 0.18640  0.67940  0.53090  Biso   1.000  C
  C546     1.0000 0.31550  0.19790  0.89412  Biso   1.000  C
  C547     1.0000 0.22370  0.19200  0.92078  Biso   1.000  C
  C548     1.0000 0.40640  0.19720  0.86785  Biso   1.000  C
  C549     1.0000 0.94540  0.58180  0.61436  Biso   1.000  C
  C550     1.0000 0.94730  0.49240  0.58708  Biso   1.000  C
  C551     1.0000 0.94280  0.67210  0.64034  Biso   1.000  C
  H565     1.0000 0.17310  0.64620  0.54150  Biso   1.000  H
  H566     1.0000 0.22420  0.68960  0.53790  Biso   1.000  H
  C552     1.0000 0.18740  0.66770  0.49880  Biso   1.000  C
  H567     1.0000 0.33430  0.18380  0.91050  Biso   1.000  H
  C553     1.0000 0.16740  0.19760  0.92105  Biso   1.000  C
  C554     1.0000 0.24920  0.17000  0.94510  Biso   1.000  C
  C555     1.0000 0.44030  0.20200  0.89157  Biso   1.000  C
  C556     1.0000 0.43100  0.18130  0.84245  Biso   1.000  C
  H568     1.0000 0.93060  0.60040  0.59810  Biso   1.000  H
  C557     1.0000 0.93090  0.51650  0.56136  Biso   1.000  C
  C558     1.0000 0.95080  0.43290  0.58738  Biso   1.000  C
  C559     1.0000 0.92500  0.69860  0.66557  Biso   1.000  C
  C560     1.0000 0.94910  0.70540  0.61597  Biso   1.000  C
  H569     1.0000 0.17580  0.70080  0.48750  Biso   1.000  H
  H570     1.0000 0.16370  0.63520  0.49360  Biso   1.000  H
  C561     1.0000 0.25160  0.65500  0.49510  Biso   1.000  C
  H571     1.0000 0.14910  0.21420  0.90510  Biso   1.000  H
  C562     1.0000 0.13560  0.17950  0.94431  Biso   1.000  C
  C563     1.0000 0.21570  0.15290  0.96708  Biso   1.000  C
  H572     1.0000 0.28880  0.16700  0.94630  Biso   1.000  H
  H573     1.0000 0.42450  0.21330  0.90930  Biso   1.000  H
  C564     1.0000 0.49660  0.19050  0.89004  Biso   1.000  C
  C565     1.0000 0.48730  0.16940  0.84033  Biso   1.000  C
  H574     1.0000 0.40830  0.17860  0.82580  Biso   1.000  H
  H575     1.0000 0.92880  0.55610  0.55970  Biso   1.000  H
  C566     1.0000 0.91770  0.48330  0.53848  Biso   1.000  C
  C567     1.0000 0.93810  0.40340  0.56303  Biso   1.000  C
  H576     1.0000 0.96190  0.41380  0.60420  Biso   1.000  H
  H577     1.0000 0.92020  0.67710  0.68250  Biso   1.000  H
  C568     1.0000 0.91420  0.75670  0.66610  Biso   1.000  C
  C569     1.0000 0.93830  0.76250  0.61630  Biso   1.000  C
  H578     1.0000 0.96120  0.68840  0.59870  Biso   1.000  H
  H579     1.0000 0.25950  0.64590  0.47510  Biso   1.000  H
  H580     1.0000 0.27360  0.68720  0.50100  Biso   1.000  H
  H581     1.0000 0.26170  0.62240  0.50700  Biso   1.000  H
  N77      1.0000 0.15940  0.15650  0.96752  Biso   1.000  N
  H582     1.0000 0.09600  0.18350  0.94370  Biso   1.000  H
  H583     1.0000 0.23350  0.13730  0.98340  Biso   1.000  H
  H584     1.0000 0.51900  0.19370  0.90670  Biso   1.000  H
  C570     1.0000 0.52070  0.17460  0.86474  Biso   1.000  C
  H585     1.0000 0.50310  0.15790  0.82270  Biso   1.000  H
  H586     1.0000 0.90610  0.50100  0.52130  Biso   1.000  H
  H587     1.0000 0.94220  0.36390  0.56340  Biso   1.000  H
  H588     1.0000 0.90190  0.77430  0.68320  Biso   1.000  H
  C571     1.0000 0.92170  0.78760  0.64160  Biso   1.000  C
  H589     1.0000 0.94220  0.78410  0.59940  Biso   1.000  H
  O18      1.0000 0.57700  0.16490  0.86489  Biso   1.000  O
  O19      1.0000 0.91330  0.84390  0.63963  Biso   1.000  O
  N78      1.0000 0.07040  0.06500  0.96710  Biso   1.000  N
  N79      1.0000 0.04970  0.17340  0.99743  Biso   1.000  N
  C572     1.0000 0.60290  0.14840  0.83900  Biso   1.000  C
  C573     1.0000 0.89710  0.87190  0.66470  Biso   1.000  C
  C574     1.0000 0.09640  0.04400  0.94464  Biso   1.000  C
  C575     1.0000 0.01400  0.05960  0.96793  Biso   1.000  C
  C576     1.0000 0.01700  0.20280  0.98714  Biso   1.000  C
  H590     1.0000 0.59760  0.17800  0.82450  Biso   1.000  H
  H591     1.0000 0.58520  0.11370  0.83190  Biso   1.000  H
  C577     1.0000 0.66510  0.13850  0.84370  Biso   1.000  C
  H592     1.0000 0.92600  0.86770  0.67970  Biso   1.000  H
  H593     1.0000 0.86120  0.85690  0.67190  Biso   1.000  H
  C578     1.0000 0.89060  0.93440  0.65590  Biso   1.000  C
  C579     1.0000 0.06990  0.01910  0.92187  Biso   1.000  C
  H594     1.0000 0.13610  0.04620  0.94420  Biso   1.000  H
  H595     1.0000 0.99440  0.07430  0.98390  Biso   1.000  H
  C580     1.0000 0.98380  0.03370  0.94661  Biso   1.000  C
  S20      1.0000 0.97148  0.24290  0.97057  Biso   1.000  S
  H596     1.0000 0.66970  0.11020  0.85890  Biso   1.000  H
  H597     1.0000 0.68230  0.17380  0.85050  Biso   1.000  H
  C581     1.0000 0.69670  0.11870  0.81710  Biso   1.000  C
  H598     1.0000 0.92260  0.94540  0.64370  Biso   1.000  H
  H599     1.0000 0.89140  0.95810  0.67330  Biso   1.000  H
  C582     1.0000 0.83480  0.94440  0.63960  Biso   1.000  C
  C583     1.0000 0.01120  0.01340  0.92226  Biso   1.000  C
  H600     1.0000 0.09090  0.00600  0.90600  Biso   1.000  H
  H601     1.0000 0.94430  0.02970  0.94840  Biso   1.000  H
  H602     1.0000 0.68060  0.08310  0.81010  Biso   1.000  H
  H603     1.0000 0.69350  0.14700  0.80180  Biso   1.000  H
  C584     1.0000 0.75710  0.11050  0.82500  Biso   1.000  C
  H604     1.0000 0.80590  0.95730  0.65320  Biso   1.000  H
  H605     1.0000 0.82190  0.90850  0.63120  Biso   1.000  H
  C585     1.0000 0.84150  0.98920  0.61500  Biso   1.000  C
  C586     1.0000 0.98060  0.98930  0.89744  Biso   1.000  C
  H606     1.0000 0.76160  0.07550  0.83610  Biso   1.000  H
  H607     1.0000 0.77050  0.14220  0.83680  Biso   1.000  H
  C587     1.0000 0.79100  0.10710  0.79690  Biso   1.000  C
  H608     1.0000 0.87020  0.97590  0.60130  Biso   1.000  H
  H609     1.0000 0.80560  0.99220  0.60450  Biso   1.000  H
  C588     1.0000 0.85810  0.04690  0.62580  Biso   1.000  C
  N80      1.0000 0.01130  0.97780  0.87452  Biso   1.000  N
  C589     1.0000 0.92290  0.98050  0.89842  Biso   1.000  C
  H610     1.0000 0.77220  0.13110  0.78260  Biso   1.000  H
  H611     1.0000 0.78890  0.06810  0.78990  Biso   1.000  H
  C590     1.0000 0.85440  0.12440  0.79820  Biso   1.000  C
  H612     1.0000 0.82930  0.06020  0.63940  Biso   1.000  H
  H613     1.0000 0.89390  0.04380  0.63640  Biso   1.000  H
  C591     1.0000 0.86460  0.08900  0.60270  Biso   1.000  C
  C592     1.0000 0.98500  0.95710  0.85141  Biso   1.000  C
  H614     1.0000 0.90270  0.98820  0.91540  Biso   1.000  H
  C593     1.0000 0.89500  0.96060  0.87450  Biso   1.000  C
  H615     1.0000 0.85900  0.15520  0.78430  Biso   1.000  H
  H616     1.0000 0.86030  0.14110  0.81730  Biso   1.000  H
  C594     1.0000 0.90470  0.08410  0.79320  Biso   1.000  C
  H617     1.0000 0.89210  0.07450  0.58870  Biso   1.000  H
  H618     1.0000 0.82830  0.09280  0.59270  Biso   1.000  H
  C595     1.0000 0.88290  0.14510  0.61180  Biso   1.000  C
  C596     1.0000 0.92820  0.94850  0.85067  Biso   1.000  C
  C597     1.0000 0.02180  0.94330  0.82682  Biso   1.000  C
  C598     1.0000 0.83420  0.94950  0.87453  Biso   1.000  C
  H619     1.0000 0.89750  0.08060  0.77250  Biso   1.000  H
  H620     1.0000 0.88500  0.05130  0.80130  Biso   1.000  H
  C599     1.0000 0.96340  0.05250  0.79150  Biso   1.000  C
  H621     1.0000 0.91370  0.14130  0.62580  Biso   1.000  H
  H622     1.0000 0.85140  0.16450  0.62130  Biso   1.000  H
  C600     1.0000 0.90380  0.18140  0.58570  Biso   1.000  C
  H623     1.0000 0.91130  0.93420  0.83380  Biso   1.000  H
  C601     1.0000 0.99920  0.92250  0.80152  Biso   1.000  C
  C602     1.0000 0.07920  0.94850  0.82816  Biso   1.000  C
  C603     1.0000 0.80650  0.93240  0.89862  Biso   1.000  C
  C604     1.0000 0.80260  0.95750  0.84957  Biso   1.000  C
  H624     1.0000 0.97740  0.05500  0.81130  Biso   1.000  H
  H625     1.0000 0.95220  0.01290  0.78900  Biso   1.000  H
  C605     1.0000 0.01840  0.05660  0.77330  Biso   1.000  C
  H626     1.0000 0.87390  0.18290  0.57110  Biso   1.000  H
  H627     1.0000 0.93690  0.16330  0.57710  Biso   1.000  H
  C606     1.0000 0.91950  0.24290  0.59500  Biso   1.000  C
  H628     1.0000 0.95980  0.92020  0.79910  Biso   1.000  H
  C607     1.0000 0.03490  0.90500  0.77991  Biso   1.000  C
  C608     1.0000 0.11130  0.92910  0.80514  Biso   1.000  C
  H629     1.0000 0.09660  0.96490  0.84430  Biso   1.000  H
  H630     1.0000 0.82710  0.92750  0.91580  Biso   1.000  H
  C609     1.0000 0.74840  0.92190  0.89889  Biso   1.000  C
  C610     1.0000 0.74510  0.94810  0.84918  Biso   1.000  C
  H631     1.0000 0.82080  0.96950  0.83260  Biso   1.000  H
  H632     1.0000 0.04490  0.02780  0.77970  Biso   1.000  H
  H633     1.0000 0.00960  0.05090  0.75310  Biso   1.000  H
  H634     1.0000 0.03520  0.09370  0.77590  Biso   1.000  H
  H635     1.0000 0.90390  0.25060  0.61390  Biso   1.000  H
  H636     1.0000 0.90400  0.26960  0.58120  Biso   1.000  H
  H637     1.0000 0.96030  0.24680  0.59560  Biso   1.000  H
  H638     1.0000 0.01870  0.89230  0.76250  Biso   1.000  H
  H639     1.0000 0.15080  0.93340  0.80600  Biso   1.000  H
  H640     1.0000 0.73050  0.90920  0.91580  Biso   1.000  H
  C611     1.0000 0.71770  0.93040  0.87377  Biso   1.000  C
  H641     1.0000 0.72460  0.95370  0.83210  Biso   1.000  H
  O20      1.0000 0.66190  0.92180  0.87083  Biso   1.000  O
  C612     1.0000 0.63350  0.90210  0.89460  Biso   1.000  C
  H642     1.0000 0.63360  0.93080  0.90980  Biso   1.000  H
  H643     1.0000 0.65190  0.86790  0.90200  Biso   1.000  H
  C613     1.0000 0.57300  0.88870  0.88570  Biso   1.000  C
  H644     1.0000 0.55630  0.92190  0.87640  Biso   1.000  H
  H645     1.0000 0.57310  0.85760  0.87170  Biso   1.000  H
  C614     1.0000 0.53780  0.87230  0.91160  Biso   1.000  C
  H646     1.0000 0.55820  0.84280  0.92210  Biso   1.000  H
  H647     1.0000 0.53520  0.90530  0.92430  Biso   1.000  H
  C615     1.0000 0.48130  0.85230  0.90620  Biso   1.000  C
  H648     1.0000 0.46360  0.84660  0.92510  Biso   1.000  H
  H649     1.0000 0.48500  0.81480  0.89740  Biso   1.000  H
  C616     1.0000 0.44010  0.88490  0.88820  Biso   1.000  C
  H650     1.0000 0.43170  0.92060  0.89800  Biso   1.000  H
  H651     1.0000 0.45830  0.89420  0.86980  Biso   1.000  H
  C617     1.0000 0.38890  0.85690  0.88240  Biso   1.000  C
  H652     1.0000 0.37660  0.84040  0.90080  Biso   1.000  H
  H653     1.0000 0.39840  0.82520  0.86980  Biso   1.000  H
  C618     1.0000 0.33750  0.88440  0.86950  Biso   1.000  C
  H654     1.0000 0.30460  0.86020  0.87310  Biso   1.000  H
  H655     1.0000 0.33090  0.92060  0.87930  Biso   1.000  H
  C619     1.0000 0.34210  0.89490  0.83790  Biso   1.000  C
  H656     1.0000 0.34980  0.85970  0.82750  Biso   1.000  H
  H657     1.0000 0.37230  0.92210  0.83380  Biso   1.000  H
  C620     1.0000 0.28420  0.91910  0.82950  Biso   1.000  C
  H658     1.0000 0.25630  0.88900  0.82950  Biso   1.000  H
  H659     1.0000 0.28650  0.93560  0.81040  Biso   1.000  H
  H660     1.0000 0.27320  0.94790  0.84330  Biso   1.000  H
  N81      1.0000 0.68450  0.68160  0.03271  Biso   1.000  N
  N82      1.0000 0.57700  0.70000  0.00156  Biso   1.000  N
  N83      1.0000 0.59500  0.58900  0.03211  Biso   1.000  N
  C621     1.0000 0.69270  0.73660  0.03135  Biso   1.000  C
  C622     1.0000 0.70370  0.65530  0.05613  Biso   1.000  C
  C623     1.0000 0.54100  0.72080  0.99560  Biso   1.000  C
  C624     1.0000 0.71970  0.76690  0.05271  Biso   1.000  C
  H661     1.0000 0.67950  0.75620  0.01500  Biso   1.000  H
  H662     1.0000 0.69760  0.61610  0.05760  Biso   1.000  H
  C625     1.0000 0.73130  0.68080  0.07771  Biso   1.000  C
  S21      1.0000 0.48290  0.75130  0.98560  Biso   1.000  S
  C626     1.0000 0.73930  0.73980  0.07680  Biso   1.000  C
  H663     1.0000 0.72470  0.80620  0.05070  Biso   1.000  H
  H664     1.0000 0.74510  0.65960  0.09330  Biso   1.000  H
  C627     1.0000 0.76430  0.77030  0.10134  Biso   1.000  C
  N84      1.0000 0.77520  0.73920  0.12487  Biso   1.000  N
  C628     1.0000 0.77430  0.82740  0.09998  Biso   1.000  C
  C629     1.0000 0.79600  0.76570  0.14786  Biso   1.000  C
  C630     1.0000 0.79600  0.85490  0.12392  Biso   1.000  C
  H665     1.0000 0.76650  0.84760  0.08300  Biso   1.000  H
  C631     1.0000 0.80650  0.82250  0.14816  Biso   1.000  C
  C632     1.0000 0.80870  0.73030  0.17333  Biso   1.000  C
  C633     1.0000 0.80640  0.91590  0.12411  Biso   1.000  C
  H666     1.0000 0.82080  0.83970  0.16490  Biso   1.000  H
  C634     1.0000 0.80650  0.67200  0.17235  Biso   1.000  C
  C635     1.0000 0.82510  0.75410  0.19871  Biso   1.000  C
  C636     1.0000 0.79700  0.94720  0.14898  Biso   1.000  C
  C637     1.0000 0.82540  0.94350  0.10022  Biso   1.000  C
  H667     1.0000 0.79370  0.65350  0.15560  Biso   1.000  H
  C638     1.0000 0.82290  0.64150  0.19565  Biso   1.000  C
  C639     1.0000 0.84110  0.72070  0.22121  Biso   1.000  C
  H668     1.0000 0.82540  0.79370  0.20070  Biso   1.000  H
  H669     1.0000 0.78340  0.92880  0.16560  Biso   1.000  H
  C640     1.0000 0.80700  0.00390  0.14977  Biso   1.000  C
  C641     1.0000 0.83680  0.00110  0.10039  Biso   1.000  C
  H670     1.0000 0.83100  0.92290  0.08310  Biso   1.000  H
  N85      1.0000 0.84090  0.66450  0.22022  Biso   1.000  N
  H671     1.0000 0.82150  0.60180  0.19440  Biso   1.000  H
  H672     1.0000 0.85300  0.73830  0.23830  Biso   1.000  H
  H673     1.0000 0.80040  0.02430  0.16680  Biso   1.000  H
  C642     1.0000 0.82690  0.03140  0.12547  Biso   1.000  C
  H674     1.0000 0.85090  0.01920  0.08380  Biso   1.000  H
  Co6      1.0000 0.88181  0.62014  0.25462  Biso   1.000  Co
  O21      1.0000 0.83680  0.08727  0.12833  Biso   1.000  O
  N86      1.0000 0.83581  0.67124  0.28508  Biso   1.000  N
  N87      1.0000 0.94430  0.68230  0.25408  Biso   1.000  N
  N88      1.0000 0.92850  0.57060  0.22393  Biso   1.000  N
  N89      1.0000 0.82090  0.55910  0.25752  Biso   1.000  N
  N90      1.0000 0.92740  0.57980  0.28900  Biso   1.000  N
  C643     1.0000 0.86280  0.11510  0.10508  Biso   1.000  C
  C644     1.0000 0.78110  0.67880  0.28234  Biso   1.000  C
  C645     1.0000 0.86070  0.69350  0.30815  Biso   1.000  C
  C646     1.0000 0.97280  0.71570  0.26480  Biso   1.000  C
  C647     1.0000 0.95500  0.59640  0.20212  Biso   1.000  C
  C648     1.0000 0.93030  0.51510  0.22565  Biso   1.000  C
  C649     1.0000 0.78700  0.52750  0.26473  Biso   1.000  C
  H675     1.0000 0.83730  0.11580  0.08840  Biso   1.000  H
  H676     1.0000 0.89750  0.09520  0.09950  Biso   1.000  H
  C650     1.0000 0.87640  0.17410  0.11430  Biso   1.000  C
  C651     1.0000 0.74900  0.70910  0.30170  Biso   1.000  C
  H677     1.0000 0.76290  0.66260  0.26630  Biso   1.000  H
  H678     1.0000 0.90000  0.68920  0.31020  Biso   1.000  H
  C652     1.0000 0.83160  0.72260  0.32933  Biso   1.000  C
  S22      1.0000 0.01630  0.75900  0.27987  Biso   1.000  S
  C653     1.0000 0.98270  0.56630  0.18117  Biso   1.000  C
  H679     1.0000 0.95460  0.63610  0.20110  Biso   1.000  H
  H680     1.0000 0.91250  0.49730  0.24130  Biso   1.000  H
  C654     1.0000 0.95710  0.48210  0.20561  Biso   1.000  C
  S23      1.0000 0.73797  0.48399  0.27485  Biso   1.000  S
  H681     1.0000 0.84150  0.19650  0.11430  Biso   1.000  H
  H682     1.0000 0.89050  0.17320  0.13420  Biso   1.000  H
  C655     1.0000 0.91900  0.20280  0.09580  Biso   1.000  C
  C656     1.0000 0.77410  0.73050  0.32616  Biso   1.000  C
  H683     1.0000 0.71030  0.71510  0.29820  Biso   1.000  H
  H684     1.0000 0.85060  0.73670  0.34560  Biso   1.000  H
  C657     1.0000 0.98410  0.50770  0.18262  Biso   1.000  C
  H685     1.0000 0.00070  0.58520  0.16590  Biso   1.000  H
  H686     1.0000 0.95720  0.44250  0.20750  Biso   1.000  H
  H687     1.0000 0.92670  0.24010  0.10410  Biso   1.000  H
  H688     1.0000 0.95420  0.18110  0.09680  Biso   1.000  H
  C658     1.0000 0.90440  0.21050  0.06530  Biso   1.000  C
  C659     1.0000 0.74130  0.75730  0.34963  Biso   1.000  C
  C660     1.0000 0.01160  0.47460  0.15955  Biso   1.000  C
  H689     1.0000 0.89230  0.17450  0.05680  Biso   1.000  H
  H690     1.0000 0.93700  0.22460  0.05450  Biso   1.000  H
  C661     1.0000 0.85770  0.25210  0.06460  Biso   1.000  C
  N91      1.0000 0.76970  0.77040  0.37340  Biso   1.000  N
  C662     1.0000 0.68380  0.76720  0.34655  Biso   1.000  C
  N92      1.0000 0.02085  0.50310  0.13527  Biso   1.000  N
  C663     1.0000 0.02300  0.41820  0.16252  Biso   1.000  C
  H691     1.0000 0.82200  0.23440  0.07050  Biso   1.000  H
  H692     1.0000 0.86570  0.28380  0.07760  Biso   1.000  H
  C664     1.0000 0.85420  0.27170  0.03460  Biso   1.000  C
  C665     1.0000 0.74170  0.79270  0.39510  Biso   1.000  C
  C666     1.0000 0.65470  0.79080  0.36945  Biso   1.000  C
  H693     1.0000 0.66510  0.75810  0.32930  Biso   1.000  H
  C667     1.0000 0.04260  0.47480  0.11314  Biso   1.000  C
  H694     1.0000 0.01590  0.39960  0.18010  Biso   1.000  H
  C668     1.0000 0.04510  0.38870  0.13921  Biso   1.000  C
  H695     1.0000 0.84200  0.24020  0.02240  Biso   1.000  H
  H696     1.0000 0.89200  0.28340  0.02820  Biso   1.000  H
  C669     1.0000 0.81360  0.32060  0.03090  Biso   1.000  C
  C670     1.0000 0.68450  0.80210  0.39412  Biso   1.000  C
  C671     1.0000 0.77630  0.80800  0.42078  Biso   1.000  C
  C672     1.0000 0.59360  0.80280  0.36785  Biso   1.000  C
  C673     1.0000 0.05460  0.41820  0.11436  Biso   1.000  C
  C674     1.0000 0.05270  0.50760  0.08708  Biso   1.000  C
  C675     1.0000 0.05720  0.32790  0.14034  Biso   1.000  C
  H697     1.0000 0.82690  0.35380  0.04150  Biso   1.000  H
  H698     1.0000 0.77580  0.31040  0.03790  Biso   1.000  H
  C676     1.0000 0.81260  0.33230  0.99880  Biso   1.000  C
  H699     1.0000 0.66570  0.81620  0.41050  Biso   1.000  H
  C677     1.0000 0.83260  0.80240  0.42105  Biso   1.000  C
  C678     1.0000 0.75080  0.83000  0.44510  Biso   1.000  C
  C679     1.0000 0.55970  0.79800  0.39157  Biso   1.000  C
  C680     1.0000 0.56900  0.81870  0.34245  Biso   1.000  C
  H700     1.0000 0.06940  0.39960  0.09810  Biso   1.000  H
  C681     1.0000 0.06910  0.48350  0.06136  Biso   1.000  C
  C682     1.0000 0.04920  0.56710  0.08738  Biso   1.000  C
  C683     1.0000 0.07500  0.30140  0.16557  Biso   1.000  C
  C684     1.0000 0.05090  0.29460  0.11597  Biso   1.000  C
  H701     1.0000 0.82420  0.29920  0.98750  Biso   1.000  H
  H702     1.0000 0.83630  0.36480  0.99360  Biso   1.000  H
  C685     1.0000 0.74840  0.34500  0.99510  Biso   1.000  C
  H703     1.0000 0.85090  0.78580  0.40510  Biso   1.000  H
  C686     1.0000 0.86440  0.82050  0.44431  Biso   1.000  C
  C687     1.0000 0.78430  0.84710  0.46708  Biso   1.000  C
  H704     1.0000 0.71120  0.83300  0.44630  Biso   1.000  H
  H705     1.0000 0.57550  0.78670  0.40930  Biso   1.000  H
  C688     1.0000 0.50340  0.80950  0.39004  Biso   1.000  C
  C689     1.0000 0.51270  0.83060  0.34033  Biso   1.000  C
  H706     1.0000 0.59170  0.82140  0.32580  Biso   1.000  H
  H707     1.0000 0.07120  0.44390  0.05970  Biso   1.000  H
  C690     1.0000 0.08230  0.51670  0.03848  Biso   1.000  C
  C691     1.0000 0.06190  0.59660  0.06303  Biso   1.000  C
  H708     1.0000 0.03810  0.58620  0.10420  Biso   1.000  H
  H709     1.0000 0.07980  0.32290  0.18250  Biso   1.000  H
  C692     1.0000 0.08580  0.24330  0.16610  Biso   1.000  C
  C693     1.0000 0.06170  0.23750  0.11630  Biso   1.000  C
  H710     1.0000 0.03880  0.31160  0.09870  Biso   1.000  H
  H711     1.0000 0.74050  0.35410  0.97510  Biso   1.000  H
  H712     1.0000 0.72640  0.31280  0.00100  Biso   1.000  H
  H713     1.0000 0.73830  0.37760  0.00700  Biso   1.000  H
  N93      1.0000 0.84060  0.84350  0.46752  Biso   1.000  N
  H714     1.0000 0.90400  0.81650  0.44370  Biso   1.000  H
  H715     1.0000 0.76650  0.86270  0.48340  Biso   1.000  H
  H716     1.0000 0.48100  0.80630  0.40670  Biso   1.000  H
  C694     1.0000 0.47930  0.82540  0.36474  Biso   1.000  C
  H717     1.0000 0.49690  0.84210  0.32270  Biso   1.000  H
  H718     1.0000 0.09390  0.49900  0.02130  Biso   1.000  H
  H719     1.0000 0.05780  0.63610  0.06340  Biso   1.000  H
  H720     1.0000 0.09810  0.22570  0.18320  Biso   1.000  H
  C695     1.0000 0.07830  0.21240  0.14160  Biso   1.000  C
  H721     1.0000 0.05780  0.21590  0.09940  Biso   1.000  H
  O22      1.0000 0.42300  0.83510  0.36489  Biso   1.000  O
  O23      1.0000 0.08670  0.15610  0.13963  Biso   1.000  O
  N94      1.0000 0.92960  0.93500  0.46710  Biso   1.000  N
  N95      1.0000 0.95030  0.82660  0.49743  Biso   1.000  N
  C696     1.0000 0.39710  0.85160  0.33900  Biso   1.000  C
  C697     1.0000 0.10290  0.12810  0.16470  Biso   1.000  C
  C698     1.0000 0.90360  0.95600  0.44464  Biso   1.000  C
  C699     1.0000 0.98600  0.94040  0.46793  Biso   1.000  C
  C700     1.0000 0.98300  0.79720  0.48714  Biso   1.000  C
  H722     1.0000 0.40240  0.82200  0.32450  Biso   1.000  H
  H723     1.0000 0.41480  0.88630  0.33190  Biso   1.000  H
  C701     1.0000 0.33490  0.86150  0.34370  Biso   1.000  C
  H724     1.0000 0.07400  0.13230  0.17970  Biso   1.000  H
  H725     1.0000 0.13880  0.14310  0.17190  Biso   1.000  H
  C702     1.0000 0.10940  0.06560  0.15590  Biso   1.000  C
  C703     1.0000 0.93010  0.98090  0.42187  Biso   1.000  C
  H726     1.0000 0.86390  0.95380  0.44420  Biso   1.000  H
  H727     1.0000 0.00560  0.92570  0.48390  Biso   1.000  H
  C704     1.0000 0.01620  0.96630  0.44661  Biso   1.000  C
  S24      1.0000 0.02852  0.75710  0.47057  Biso   1.000  S
  H728     1.0000 0.33030  0.88980  0.35890  Biso   1.000  H
  H729     1.0000 0.31770  0.82620  0.35050  Biso   1.000  H
  C705     1.0000 0.30330  0.88130  0.31710  Biso   1.000  C
  H730     1.0000 0.07740  0.05460  0.14370  Biso   1.000  H
  H731     1.0000 0.10860  0.04190  0.17330  Biso   1.000  H
  C706     1.0000 0.16520  0.05560  0.13960  Biso   1.000  C
  C707     1.0000 0.98880  0.98660  0.42226  Biso   1.000  C
  H732     1.0000 0.90910  0.99400  0.40600  Biso   1.000  H
  H733     1.0000 0.05570  0.97030  0.44840  Biso   1.000  H
  H734     1.0000 0.31940  0.91690  0.31010  Biso   1.000  H
  H735     1.0000 0.30650  0.85300  0.30180  Biso   1.000  H
  C708     1.0000 0.24290  0.88950  0.32500  Biso   1.000  C
  H736     1.0000 0.19410  0.04270  0.15320  Biso   1.000  H
  H737     1.0000 0.17810  0.09150  0.13120  Biso   1.000  H
  C709     1.0000 0.15850  0.01080  0.11500  Biso   1.000  C
  C710     1.0000 0.01940  0.01070  0.39744  Biso   1.000  C
  H738     1.0000 0.23840  0.92450  0.33610  Biso   1.000  H
  H739     1.0000 0.22950  0.85780  0.33680  Biso   1.000  H
  C711     1.0000 0.20900  0.89290  0.29690  Biso   1.000  C
  H740     1.0000 0.12980  0.02410  0.10130  Biso   1.000  H
  H741     1.0000 0.19440  0.00780  0.10450  Biso   1.000  H
  C712     1.0000 0.14190  0.95310  0.12580  Biso   1.000  C
  N96      1.0000 0.98870  0.02220  0.37452  Biso   1.000  N
  C713     1.0000 0.07710  0.01950  0.39842  Biso   1.000  C
  H742     1.0000 0.22780  0.86890  0.28260  Biso   1.000  H
  H743     1.0000 0.21110  0.93190  0.28990  Biso   1.000  H
  C714     1.0000 0.14560  0.87560  0.29820  Biso   1.000  C
  H744     1.0000 0.17070  0.93980  0.13940  Biso   1.000  H
  H745     1.0000 0.10610  0.95620  0.13640  Biso   1.000  H
  C715     1.0000 0.13540  0.91100  0.10270  Biso   1.000  C
  C716     1.0000 0.01500  0.04290  0.35141  Biso   1.000  C
  H746     1.0000 0.09730  0.01180  0.41540  Biso   1.000  H
  C717     1.0000 0.10500  0.03940  0.37450  Biso   1.000  C
  H747     1.0000 0.14100  0.84480  0.28430  Biso   1.000  H
  H748     1.0000 0.13970  0.85890  0.31730  Biso   1.000  H
  C718     1.0000 0.09530  0.91590  0.29320  Biso   1.000  C
  H749     1.0000 0.10790  0.92550  0.08870  Biso   1.000  H
  H750     1.0000 0.17170  0.90720  0.09270  Biso   1.000  H
  C719     1.0000 0.11710  0.85490  0.11180  Biso   1.000  C
  C720     1.0000 0.07180  0.05150  0.35067  Biso   1.000  C
  C721     1.0000 0.97820  0.05670  0.32682  Biso   1.000  C
  C722     1.0000 0.16580  0.05050  0.37453  Biso   1.000  C
  H751     1.0000 0.10250  0.91940  0.27250  Biso   1.000  H
  H752     1.0000 0.11500  0.94870  0.30130  Biso   1.000  H
  C723     1.0000 0.03660  0.94750  0.29150  Biso   1.000  C
  H753     1.0000 0.08630  0.85870  0.12580  Biso   1.000  H
  H754     1.0000 0.14860  0.83550  0.12130  Biso   1.000  H
  C724     1.0000 0.09620  0.81860  0.08570  Biso   1.000  C
  H755     1.0000 0.08870  0.06580  0.33380  Biso   1.000  H
  C725     1.0000 0.00080  0.07750  0.30152  Biso   1.000  C
  C726     1.0000 0.92080  0.05150  0.32816  Biso   1.000  C
  C727     1.0000 0.19350  0.06760  0.39862  Biso   1.000  C
  C728     1.0000 0.19740  0.04250  0.34957  Biso   1.000  C
  H756     1.0000 0.02260  0.94500  0.31130  Biso   1.000  H
  H757     1.0000 0.04780  0.98710  0.28900  Biso   1.000  H
  C729     1.0000 0.98160  0.94340  0.27330  Biso   1.000  C
  H758     1.0000 0.12610  0.81710  0.07110  Biso   1.000  H
  H759     1.0000 0.06310  0.83670  0.07710  Biso   1.000  H
  C730     1.0000 0.08050  0.75710  0.09500  Biso   1.000  C
  H760     1.0000 0.04020  0.07980  0.29910  Biso   1.000  H
  C731     1.0000 0.96510  0.09500  0.27991  Biso   1.000  C
  C732     1.0000 0.88870  0.07090  0.30514  Biso   1.000  C
  H761     1.0000 0.90340  0.03510  0.34430  Biso   1.000  H
  H762     1.0000 0.17290  0.07250  0.41580  Biso   1.000  H
  C733     1.0000 0.25160  0.07810  0.39889  Biso   1.000  C
  C734     1.0000 0.25490  0.05190  0.34918  Biso   1.000  C
  H763     1.0000 0.17920  0.03050  0.33260  Biso   1.000  H
  H764     1.0000 0.95510  0.97220  0.27970  Biso   1.000  H
  H765     1.0000 0.99040  0.94910  0.25310  Biso   1.000  H
  H766     1.0000 0.96480  0.90630  0.27590  Biso   1.000  H
  H767     1.0000 0.09610  0.74940  0.11390  Biso   1.000  H
  H768     1.0000 0.09600  0.73040  0.08120  Biso   1.000  H
  H769     1.0000 0.03970  0.75320  0.09560  Biso   1.000  H
  H770     1.0000 0.98130  0.10770  0.26250  Biso   1.000  H
  H771     1.0000 0.84920  0.06660  0.30600  Biso   1.000  H
  H772     1.0000 0.26950  0.09080  0.41580  Biso   1.000  H
  C735     1.0000 0.28230  0.06960  0.37377  Biso   1.000  C
  H773     1.0000 0.27540  0.04630  0.33210  Biso   1.000  H
  O24      1.0000 0.33810  0.07820  0.37083  Biso   1.000  O
  C736     1.0000 0.36650  0.09790  0.39460  Biso   1.000  C
  H774     1.0000 0.36640  0.06920  0.40980  Biso   1.000  H
  H775     1.0000 0.34810  0.13210  0.40200  Biso   1.000  H
  C737     1.0000 0.42700  0.11130  0.38570  Biso   1.000  C
  H776     1.0000 0.44370  0.07810  0.37640  Biso   1.000  H
  H777     1.0000 0.42690  0.14240  0.37170  Biso   1.000  H
  C738     1.0000 0.46220  0.12770  0.41160  Biso   1.000  C
  H778     1.0000 0.44180  0.15720  0.42210  Biso   1.000  H
  H779     1.0000 0.46480  0.09470  0.42430  Biso   1.000  H
  C739     1.0000 0.51870  0.14770  0.40620  Biso   1.000  C
  H780     1.0000 0.53640  0.15340  0.42510  Biso   1.000  H
  H781     1.0000 0.51500  0.18520  0.39740  Biso   1.000  H
  C740     1.0000 0.55990  0.11510  0.38820  Biso   1.000  C
  H782     1.0000 0.56830  0.07940  0.39800  Biso   1.000  H
  H783     1.0000 0.54170  0.10580  0.36980  Biso   1.000  H
  C741     1.0000 0.61110  0.14310  0.38240  Biso   1.000  C
  H784     1.0000 0.62340  0.15960  0.40080  Biso   1.000  H
  H785     1.0000 0.60160  0.17480  0.36980  Biso   1.000  H
  C742     1.0000 0.66250  0.11560  0.36950  Biso   1.000  C
  H786     1.0000 0.69540  0.13980  0.37310  Biso   1.000  H
  H787     1.0000 0.66910  0.07940  0.37930  Biso   1.000  H
  C743     1.0000 0.65790  0.10510  0.33790  Biso   1.000  C
  H788     1.0000 0.65020  0.14030  0.32750  Biso   1.000  H
  H789     1.0000 0.62770  0.07790  0.33380  Biso   1.000  H
  C744     1.0000 0.71580  0.08090  0.32950  Biso   1.000  C
  H790     1.0000 0.74370  0.11100  0.32950  Biso   1.000  H
  H791     1.0000 0.71350  0.06440  0.31040  Biso   1.000  H
  H792     1.0000 0.72680  0.05210  0.34330  Biso   1.000  H
  N97      1.0000 0.81840  0.18450  0.28271  Biso   1.000  N
  N98      1.0000 0.80000  0.07700  0.25156  Biso   1.000  N
  N99      1.0000 0.91100  0.09500  0.28211  Biso   1.000  N
  C745     1.0000 0.76340  0.19270  0.28135  Biso   1.000  C
  C746     1.0000 0.84470  0.20370  0.30613  Biso   1.000  C
  C747     1.0000 0.77920  0.04100  0.24560  Biso   1.000  C
  C748     1.0000 0.73310  0.21970  0.30271  Biso   1.000  C
  H793     1.0000 0.74380  0.17950  0.26500  Biso   1.000  H
  H794     1.0000 0.88390  0.19760  0.30760  Biso   1.000  H
  C749     1.0000 0.81920  0.23130  0.32771  Biso   1.000  C
  S25      1.0000 0.74870  0.98290  0.23560  Biso   1.000  S
  C750     1.0000 0.76020  0.23930  0.32680  Biso   1.000  C
  H795     1.0000 0.69380  0.22470  0.30070  Biso   1.000  H
  H796     1.0000 0.84040  0.24510  0.34330  Biso   1.000  H
  C751     1.0000 0.72970  0.26430  0.35134  Biso   1.000  C
  N100     1.0000 0.76080  0.27520  0.37487  Biso   1.000  N
  C752     1.0000 0.67260  0.27430  0.34998  Biso   1.000  C
  C753     1.0000 0.73430  0.29600  0.39786  Biso   1.000  C
  C754     1.0000 0.64510  0.29600  0.37392  Biso   1.000  C
  H797     1.0000 0.65240  0.26650  0.33300  Biso   1.000  H
  C755     1.0000 0.67750  0.30650  0.39816  Biso   1.000  C
  C756     1.0000 0.76970  0.30870  0.42333  Biso   1.000  C
  C757     1.0000 0.58410  0.30640  0.37411  Biso   1.000  C
  H798     1.0000 0.66030  0.32080  0.41490  Biso   1.000  H
  C758     1.0000 0.82800  0.30650  0.42235  Biso   1.000  C
  C759     1.0000 0.74590  0.32510  0.44871  Biso   1.000  C
  C760     1.0000 0.55280  0.29700  0.39898  Biso   1.000  C
  C761     1.0000 0.55650  0.32540  0.35022  Biso   1.000  C
  H799     1.0000 0.84650  0.29370  0.40560  Biso   1.000  H
  C762     1.0000 0.85850  0.32290  0.44565  Biso   1.000  C
  C763     1.0000 0.77930  0.34110  0.47121  Biso   1.000  C
  H800     1.0000 0.70630  0.32540  0.45070  Biso   1.000  H
  H801     1.0000 0.57120  0.28340  0.41560  Biso   1.000  H
  C764     1.0000 0.49610  0.30700  0.39977  Biso   1.000  C
  C765     1.0000 0.49890  0.33680  0.35039  Biso   1.000  C
  H802     1.0000 0.57710  0.33100  0.33310  Biso   1.000  H
  N101     1.0000 0.83550  0.34090  0.47022  Biso   1.000  N
  H803     1.0000 0.89820  0.32150  0.44440  Biso   1.000  H
  H804     1.0000 0.76170  0.35300  0.48830  Biso   1.000  H
  H805     1.0000 0.47570  0.30040  0.41680  Biso   1.000  H
  C766     1.0000 0.46860  0.32690  0.37547  Biso   1.000  C
  H806     1.0000 0.48080  0.35090  0.33380  Biso   1.000  H
  Co7      1.0000 0.87986  0.38181  0.50462  Biso   1.000  Co
  O25      1.0000 0.41273  0.33680  0.37833  Biso   1.000  O
  N102     1.0000 0.82876  0.33581  0.53508  Biso   1.000  N
  N103     1.0000 0.81770  0.44430  0.50408  Biso   1.000  N
  N104     1.0000 0.92940  0.42850  0.47393  Biso   1.000  N
  N105     1.0000 0.94090  0.32090  0.50752  Biso   1.000  N
  N106     1.0000 0.92020  0.42740  0.53900  Biso   1.000  N
  C767     1.0000 0.38490  0.36280  0.35508  Biso   1.000  C
  C768     1.0000 0.82120  0.28110  0.53234  Biso   1.000  C
  C769     1.0000 0.80650  0.36070  0.55815  Biso   1.000  C
  C770     1.0000 0.78430  0.47280  0.51480  Biso   1.000  C
  C771     1.0000 0.90360  0.45500  0.45212  Biso   1.000  C
  C772     1.0000 0.98490  0.43030  0.47565  Biso   1.000  C
  C773     1.0000 0.97250  0.28700  0.51473  Biso   1.000  C
  H807     1.0000 0.38420  0.33730  0.33840  Biso   1.000  H
  H808     1.0000 0.40480  0.39750  0.34950  Biso   1.000  H
  C774     1.0000 0.32590  0.37640  0.36430  Biso   1.000  C
  C775     1.0000 0.79090  0.24900  0.55170  Biso   1.000  C
  H809     1.0000 0.83740  0.26290  0.51630  Biso   1.000  H
  H810     1.0000 0.81080  0.40000  0.56020  Biso   1.000  H
  C776     1.0000 0.77740  0.33160  0.57933  Biso   1.000  C
  S26      1.0000 0.74100  0.51630  0.52987  Biso   1.000  S
  C777     1.0000 0.93370  0.48270  0.43117  Biso   1.000  C
  H811     1.0000 0.86390  0.45460  0.45110  Biso   1.000  H
  H812     1.0000 0.00270  0.41250  0.49130  Biso   1.000  H
  C778     1.0000 0.01790  0.45710  0.45561  Biso   1.000  C
  S27      1.0000 0.01601  0.23797  0.52485  Biso   1.000  S
  H813     1.0000 0.30350  0.34150  0.36430  Biso   1.000  H
  H814     1.0000 0.32680  0.39050  0.38420  Biso   1.000  H
  C779     1.0000 0.29720  0.41900  0.34580  Biso   1.000  C
  C780     1.0000 0.76950  0.27410  0.57616  Biso   1.000  C
  H815     1.0000 0.78490  0.21030  0.54820  Biso   1.000  H
  H816     1.0000 0.76330  0.35060  0.59560  Biso   1.000  H
  C781     1.0000 0.99230  0.48410  0.43262  Biso   1.000  C
  H817     1.0000 0.91480  0.50070  0.41590  Biso   1.000  H
  H818     1.0000 0.05750  0.45720  0.45750  Biso   1.000  H
  H819     1.0000 0.25990  0.42670  0.35410  Biso   1.000  H
  H820     1.0000 0.31890  0.45420  0.34680  Biso   1.000  H
  C782     1.0000 0.28950  0.40440  0.31530  Biso   1.000  C
  C783     1.0000 0.74270  0.24130  0.59963  Biso   1.000  C
  C784     1.0000 0.02540  0.51160  0.40955  Biso   1.000  C
  H821     1.0000 0.32550  0.39230  0.30680  Biso   1.000  H
  H822     1.0000 0.27540  0.43700  0.30450  Biso   1.000  H
  C785     1.0000 0.24790  0.35770  0.31460  Biso   1.000  C
  N107     1.0000 0.72960  0.26970  0.62340  Biso   1.000  N
  C786     1.0000 0.73280  0.18380  0.59655  Biso   1.000  C
  N108     1.0000 0.99690  0.52085  0.38527  Biso   1.000  N
  C787     1.0000 0.08180  0.52300  0.41252  Biso   1.000  C
  H823     1.0000 0.26560  0.32200  0.32050  Biso   1.000  H
  H824     1.0000 0.21620  0.36570  0.32760  Biso   1.000  H
  C788     1.0000 0.22830  0.35420  0.28460  Biso   1.000  C
  C789     1.0000 0.70730  0.24170  0.64510  Biso   1.000  C
  C790     1.0000 0.70920  0.15470  0.61945  Biso   1.000  C
  H825     1.0000 0.74190  0.16510  0.57930  Biso   1.000  H
  C791     1.0000 0.02520  0.54260  0.36314  Biso   1.000  C
  H826     1.0000 0.10040  0.51590  0.43010  Biso   1.000  H
  C792     1.0000 0.11130  0.54510  0.38921  Biso   1.000  C
  H827     1.0000 0.25980  0.34200  0.27240  Biso   1.000  H
  H828     1.0000 0.21660  0.39200  0.27820  Biso   1.000  H
  C793     1.0000 0.17940  0.31360  0.28090  Biso   1.000  C
  C794     1.0000 0.69790  0.18450  0.64412  Biso   1.000  C
  C795     1.0000 0.69200  0.27630  0.67078  Biso   1.000  C
  C796     1.0000 0.69720  0.09360  0.61785  Biso   1.000  C
  C797     1.0000 0.08180  0.55460  0.36436  Biso   1.000  C
  C798     1.0000 0.99240  0.55270  0.33708  Biso   1.000  C
  C799     1.0000 0.17210  0.55720  0.39034  Biso   1.000  C
  H829     1.0000 0.14620  0.32690  0.29150  Biso   1.000  H
  H830     1.0000 0.18960  0.27580  0.28790  Biso   1.000  H
  C800     1.0000 0.16770  0.31260  0.24880  Biso   1.000  C
  H831     1.0000 0.68380  0.16570  0.66050  Biso   1.000  H
  C801     1.0000 0.69760  0.33260  0.67105  Biso   1.000  C
  C802     1.0000 0.67000  0.25080  0.69510  Biso   1.000  C
  C803     1.0000 0.70200  0.05970  0.64157  Biso   1.000  C
  C804     1.0000 0.68130  0.06900  0.59245  Biso   1.000  C
  H832     1.0000 0.10040  0.56940  0.34810  Biso   1.000  H
  C805     1.0000 0.01650  0.56910  0.31136  Biso   1.000  C
  C806     1.0000 0.93290  0.54920  0.33738  Biso   1.000  C
  C807     1.0000 0.19860  0.57500  0.41557  Biso   1.000  C
  C808     1.0000 0.20540  0.55090  0.36597  Biso   1.000  C
  H833     1.0000 0.20080  0.32420  0.23750  Biso   1.000  H
  H834     1.0000 0.13520  0.33630  0.24360  Biso   1.000  H
  C809     1.0000 0.15500  0.24840  0.24510  Biso   1.000  C
  H835     1.0000 0.71420  0.35090  0.65510  Biso   1.000  H
  C810     1.0000 0.67950  0.36440  0.69431  Biso   1.000  C
  C811     1.0000 0.65290  0.28430  0.71708  Biso   1.000  C
  H836     1.0000 0.66700  0.21120  0.69630  Biso   1.000  H
  H837     1.0000 0.71330  0.07550  0.65930  Biso   1.000  H
  C812     1.0000 0.69050  0.00340  0.64004  Biso   1.000  C
  C813     1.0000 0.66940  0.01270  0.59033  Biso   1.000  C
  H838     1.0000 0.67860  0.09170  0.57580  Biso   1.000  H
  H839     1.0000 0.05610  0.57120  0.30970  Biso   1.000  H
  C814     1.0000 0.98330  0.58230  0.28848  Biso   1.000  C
  C815     1.0000 0.90340  0.56190  0.31303  Biso   1.000  C
  H840     1.0000 0.91380  0.53810  0.35420  Biso   1.000  H
  H841     1.0000 0.17710  0.57980  0.43250  Biso   1.000  H
  C816     1.0000 0.25670  0.58580  0.41610  Biso   1.000  C
  C817     1.0000 0.26250  0.56170  0.36630  Biso   1.000  C
  H842     1.0000 0.18840  0.53880  0.34870  Biso   1.000  H
  H843     1.0000 0.14590  0.24050  0.22510  Biso   1.000  H
  H844     1.0000 0.18720  0.22640  0.25100  Biso   1.000  H
  H845     1.0000 0.12240  0.23830  0.25700  Biso   1.000  H
  N109     1.0000 0.65650  0.34060  0.71752  Biso   1.000  N
  H846     1.0000 0.68350  0.40400  0.69370  Biso   1.000  H
  H847     1.0000 0.63730  0.26650  0.73340  Biso   1.000  H
  H848     1.0000 0.69370  0.98100  0.65670  Biso   1.000  H
  C818     1.0000 0.67460  0.97930  0.61474  Biso   1.000  C
  H849     1.0000 0.65790  0.99690  0.57270  Biso   1.000  H
  H850     1.0000 0.00100  0.59390  0.27130  Biso   1.000  H
  H851     1.0000 0.86390  0.55780  0.31340  Biso   1.000  H
  H852     1.0000 0.27430  0.59810  0.43320  Biso   1.000  H
  C819     1.0000 0.28760  0.57830  0.39160  Biso   1.000  C
  H853     1.0000 0.28410  0.55780  0.34940  Biso   1.000  H
  O26      1.0000 0.66490  0.92300  0.61489  Biso   1.000  O
  O27      1.0000 0.34390  0.58670  0.38963  Biso   1.000  O
  N110     1.0000 0.56500  0.42960  0.71710  Biso   1.000  N
  N111     1.0000 0.67340  0.45030  0.74743  Biso   1.000  N
  C820     1.0000 0.64840  0.89710  0.58900  Biso   1.000  C
  C821     1.0000 0.37190  0.60290  0.41470  Biso   1.000  C
  C822     1.0000 0.54400  0.40360  0.69464  Biso   1.000  C
  C823     1.0000 0.55960  0.48600  0.71793  Biso   1.000  C
  C824     1.0000 0.70280  0.48300  0.73714  Biso   1.000  C
  H854     1.0000 0.67800  0.90240  0.57450  Biso   1.000  H
  H855     1.0000 0.61370  0.91480  0.58190  Biso   1.000  H
  C825     1.0000 0.63850  0.83490  0.59370  Biso   1.000  C
  H856     1.0000 0.36770  0.57400  0.42970  Biso   1.000  H
  H857     1.0000 0.35690  0.63880  0.42190  Biso   1.000  H
  C826     1.0000 0.43440  0.60940  0.40590  Biso   1.000  C
  C827     1.0000 0.51910  0.43010  0.67187  Biso   1.000  C
  H858     1.0000 0.54620  0.36390  0.69420  Biso   1.000  H
  H859     1.0000 0.57430  0.50560  0.73390  Biso   1.000  H
  C828     1.0000 0.53370  0.51620  0.69661  Biso   1.000  C
  S28      1.0000 0.74290  0.52852  0.72057  Biso   1.000  S
  H860     1.0000 0.61020  0.83030  0.60890  Biso   1.000  H
  H861     1.0000 0.67380  0.81770  0.60050  Biso   1.000  H
  C829     1.0000 0.61870  0.80330  0.56710  Biso   1.000  C
  H862     1.0000 0.44540  0.57740  0.39370  Biso   1.000  H
  H863     1.0000 0.45810  0.60860  0.42330  Biso   1.000  H
  C830     1.0000 0.44440  0.66520  0.38960  Biso   1.000  C
  C831     1.0000 0.51340  0.48880  0.67226  Biso   1.000  C
  H864     1.0000 0.50600  0.40910  0.65600  Biso   1.000  H
  H865     1.0000 0.52970  0.55570  0.69840  Biso   1.000  H
  H866     1.0000 0.58310  0.81940  0.56010  Biso   1.000  H
  H867     1.0000 0.64700  0.80650  0.55180  Biso   1.000  H
  C832     1.0000 0.61050  0.74290  0.57500  Biso   1.000  C
  H868     1.0000 0.45730  0.69410  0.40320  Biso   1.000  H
  H869     1.0000 0.40850  0.67810  0.38120  Biso   1.000  H
  C833     1.0000 0.48920  0.65850  0.36500  Biso   1.000  C
  C834     1.0000 0.48930  0.51940  0.64744  Biso   1.000  C
  H870     1.0000 0.57550  0.73840  0.58610  Biso   1.000  H
  H871     1.0000 0.64220  0.72950  0.58680  Biso   1.000  H
  C835     1.0000 0.60710  0.70900  0.54690  Biso   1.000  C
  H872     1.0000 0.47590  0.62980  0.35130  Biso   1.000  H
  H873     1.0000 0.49220  0.69440  0.35450  Biso   1.000  H
  C836     1.0000 0.54690  0.64190  0.37580  Biso   1.000  C
  N112     1.0000 0.47780  0.48870  0.62452  Biso   1.000  N
  C837     1.0000 0.48050  0.57710  0.64842  Biso   1.000  C
  H874     1.0000 0.63110  0.72780  0.53260  Biso   1.000  H
  H875     1.0000 0.56810  0.71110  0.53990  Biso   1.000  H
  C838     1.0000 0.62440  0.64560  0.54820  Biso   1.000  C
  H876     1.0000 0.56020  0.67070  0.38940  Biso   1.000  H
  H877     1.0000 0.54380  0.60610  0.38640  Biso   1.000  H
  C839     1.0000 0.58900  0.63540  0.35270  Biso   1.000  C
  C840     1.0000 0.45710  0.51500  0.60141  Biso   1.000  C
  H878     1.0000 0.48820  0.59730  0.66540  Biso   1.000  H
  C841     1.0000 0.46060  0.60500  0.62450  Biso   1.000  C
  H879     1.0000 0.65520  0.64100  0.53430  Biso   1.000  H
  H880     1.0000 0.64110  0.63970  0.56730  Biso   1.000  H
  C842     1.0000 0.58410  0.59530  0.54320  Biso   1.000  C
  H881     1.0000 0.57450  0.60790  0.33870  Biso   1.000  H
  H882     1.0000 0.59280  0.67170  0.34270  Biso   1.000  H
  C843     1.0000 0.64510  0.61710  0.36180  Biso   1.000  C
  C844     1.0000 0.44850  0.57180  0.60067  Biso   1.000  C
  C845     1.0000 0.44330  0.47820  0.57682  Biso   1.000  C
  C846     1.0000 0.44950  0.66580  0.62453  Biso   1.000  C
  H883     1.0000 0.58060  0.60250  0.52250  Biso   1.000  H
  H884     1.0000 0.55130  0.61500  0.55130  Biso   1.000  H
  C847     1.0000 0.55250  0.53660  0.54150  Biso   1.000  C
  H885     1.0000 0.64130  0.58630  0.37580  Biso   1.000  H
  H886     1.0000 0.66450  0.64860  0.37130  Biso   1.000  H
  C848     1.0000 0.68140  0.59620  0.33570  Biso   1.000  C
  H887     1.0000 0.43420  0.58870  0.58380  Biso   1.000  H
  C849     1.0000 0.42250  0.50080  0.55152  Biso   1.000  C
  C850     1.0000 0.44850  0.42080  0.57816  Biso   1.000  C
  C851     1.0000 0.43240  0.69350  0.64862  Biso   1.000  C
  C852     1.0000 0.45750  0.69740  0.59957  Biso   1.000  C
  H888     1.0000 0.55500  0.52260  0.56130  Biso   1.000  H
  H889     1.0000 0.51290  0.54780  0.53900  Biso   1.000  H
  C853     1.0000 0.55660  0.48160  0.52330  Biso   1.000  C
  H890     1.0000 0.68290  0.62610  0.32110  Biso   1.000  H
  H891     1.0000 0.66330  0.56310  0.32710  Biso   1.000  H
  C854     1.0000 0.74290  0.58050  0.34500  Biso   1.000  C
  H892     1.0000 0.42020  0.54020  0.54910  Biso   1.000  H
  C855     1.0000 0.40500  0.46510  0.52991  Biso   1.000  C
  C856     1.0000 0.42910  0.38870  0.55514  Biso   1.000  C
  H893     1.0000 0.46490  0.40340  0.59430  Biso   1.000  H
  H894     1.0000 0.42750  0.67290  0.66580  Biso   1.000  H
  C857     1.0000 0.42190  0.75160  0.64889  Biso   1.000  C
  C858     1.0000 0.44810  0.75490  0.59918  Biso   1.000  C
  H895     1.0000 0.46950  0.67920  0.58260  Biso   1.000  H
  H896     1.0000 0.52780  0.45510  0.52970  Biso   1.000  H
  H897     1.0000 0.55090  0.49040  0.50310  Biso   1.000  H
  H898     1.0000 0.59370  0.46480  0.52590  Biso   1.000  H
  H899     1.0000 0.75060  0.59610  0.36390  Biso   1.000  H
  H900     1.0000 0.76960  0.59600  0.33120  Biso   1.000  H
  H901     1.0000 0.74680  0.53970  0.34560  Biso   1.000  H
  H902     1.0000 0.39230  0.48130  0.51250  Biso   1.000  H
  H903     1.0000 0.43340  0.34920  0.55600  Biso   1.000  H
  H904     1.0000 0.40920  0.76950  0.66580  Biso   1.000  H
  C859     1.0000 0.43040  0.78230  0.62377  Biso   1.000  C
  H905     1.0000 0.45370  0.77540  0.58210  Biso   1.000  H
  O28      1.0000 0.42180  0.83810  0.62083  Biso   1.000  O
  C860     1.0000 0.40210  0.86650  0.64460  Biso   1.000  C
  H906     1.0000 0.43080  0.86640  0.65980  Biso   1.000  H
  H907     1.0000 0.36790  0.84810  0.65200  Biso   1.000  H
  C861     1.0000 0.38870  0.92700  0.63570  Biso   1.000  C
  H908     1.0000 0.42190  0.94370  0.62640  Biso   1.000  H
  H909     1.0000 0.35760  0.92690  0.62170  Biso   1.000  H
  C862     1.0000 0.37230  0.96220  0.66160  Biso   1.000  C
  H910     1.0000 0.34280  0.94180  0.67210  Biso   1.000  H
  H911     1.0000 0.40530  0.96480  0.67430  Biso   1.000  H
  C863     1.0000 0.35230  0.01870  0.65620  Biso   1.000  C
  H912     1.0000 0.34660  0.03640  0.67510  Biso   1.000  H
  H913     1.0000 0.31480  0.01500  0.64740  Biso   1.000  H
  C864     1.0000 0.38490  0.05990  0.63820  Biso   1.000  C
  H914     1.0000 0.42060  0.06830  0.64800  Biso   1.000  H
  H915     1.0000 0.39420  0.04170  0.61980  Biso   1.000  H
  C865     1.0000 0.35690  0.11110  0.63240  Biso   1.000  C
  H916     1.0000 0.34040  0.12340  0.65080  Biso   1.000  H
  H917     1.0000 0.32520  0.10160  0.61980  Biso   1.000  H
  C866     1.0000 0.38440  0.16250  0.61950  Biso   1.000  C
  H918     1.0000 0.36020  0.19540  0.62310  Biso   1.000  H
  H919     1.0000 0.42060  0.16910  0.62930  Biso   1.000  H
  C867     1.0000 0.39490  0.15790  0.58790  Biso   1.000  C
  H920     1.0000 0.35970  0.15020  0.57750  Biso   1.000  H
  H921     1.0000 0.42210  0.12770  0.58380  Biso   1.000  H
  C868     1.0000 0.41910  0.21580  0.57950  Biso   1.000  C
  H922     1.0000 0.38900  0.24370  0.57950  Biso   1.000  H
  H923     1.0000 0.43560  0.21350  0.56040  Biso   1.000  H
  H924     1.0000 0.44790  0.22680  0.59330  Biso   1.000  H
  N113     1.0000 0.18160  0.81550  0.78271  Biso   1.000  N
  N114     1.0000 0.20000  0.92300  0.75156  Biso   1.000  N
  N115     1.0000 0.08900  0.90500  0.78211  Biso   1.000  N
  C869     1.0000 0.23660  0.80730  0.78135  Biso   1.000  C
  C870     1.0000 0.15530  0.79630  0.80613  Biso   1.000  C
  C871     1.0000 0.22080  0.95900  0.74560  Biso   1.000  C
  C872     1.0000 0.26690  0.78030  0.80271  Biso   1.000  C
  H925     1.0000 0.25620  0.82050  0.76500  Biso   1.000  H
  H926     1.0000 0.11610  0.80240  0.80760  Biso   1.000  H
  C873     1.0000 0.18080  0.76870  0.82771  Biso   1.000  C
  S29      1.0000 0.25130  0.01710  0.73560  Biso   1.000  S
  C874     1.0000 0.23980  0.76070  0.82680  Biso   1.000  C
  H927     1.0000 0.30620  0.77530  0.80070  Biso   1.000  H
  H928     1.0000 0.15960  0.75490  0.84330  Biso   1.000  H
  C875     1.0000 0.27030  0.73570  0.85134  Biso   1.000  C
  N116     1.0000 0.23920  0.72480  0.87487  Biso   1.000  N
  C876     1.0000 0.32740  0.72570  0.84998  Biso   1.000  C
  C877     1.0000 0.26570  0.70400  0.89786  Biso   1.000  C
  C878     1.0000 0.35490  0.70400  0.87392  Biso   1.000  C
  H929     1.0000 0.34760  0.73350  0.83300  Biso   1.000  H
  C879     1.0000 0.32250  0.69350  0.89816  Biso   1.000  C
  C880     1.0000 0.23030  0.69130  0.92333  Biso   1.000  C
  C881     1.0000 0.41590  0.69360  0.87411  Biso   1.000  C
  H930     1.0000 0.33970  0.67920  0.91490  Biso   1.000  H
  C882     1.0000 0.17200  0.69350  0.92235  Biso   1.000  C
  C883     1.0000 0.25410  0.67490  0.94871  Biso   1.000  C
  C884     1.0000 0.44720  0.70300  0.89898  Biso   1.000  C
  C885     1.0000 0.44350  0.67460  0.85022  Biso   1.000  C
  H931     1.0000 0.15350  0.70630  0.90560  Biso   1.000  H
  C886     1.0000 0.14150  0.67710  0.94565  Biso   1.000  C
  C887     1.0000 0.22070  0.65890  0.97121  Biso   1.000  C
  H932     1.0000 0.29370  0.67460  0.95070  Biso   1.000  H
  H933     1.0000 0.42880  0.71660  0.91560  Biso   1.000  H
  C888     1.0000 0.50390  0.69300  0.89977  Biso   1.000  C
  C889     1.0000 0.50110  0.66320  0.85039  Biso   1.000  C
  H934     1.0000 0.42290  0.66900  0.83310  Biso   1.000  H
  N117     1.0000 0.16450  0.65910  0.97022  Biso   1.000  N
  H935     1.0000 0.10180  0.67850  0.94440  Biso   1.000  H
  H936     1.0000 0.23830  0.64700  0.98830  Biso   1.000  H
  H937     1.0000 0.52430  0.69960  0.91680  Biso   1.000  H
  C890     1.0000 0.53140  0.67310  0.87547  Biso   1.000  C
  H938     1.0000 0.51920  0.64910  0.83380  Biso   1.000  H
  Co8      1.0000 0.12014  0.61819  0.00462  Biso   1.000  Co
  O29      1.0000 0.58727  0.66320  0.87833  Biso   1.000  O
  N118     1.0000 0.17124  0.66419  0.03508  Biso   1.000  N
  N119     1.0000 0.18230  0.55570  0.00408  Biso   1.000  N
  N120     1.0000 0.07060  0.57150  0.97393  Biso   1.000  N
  N121     1.0000 0.05910  0.67910  0.00752  Biso   1.000  N
  N122     1.0000 0.07980  0.57260  0.03900  Biso   1.000  N
  C891     1.0000 0.61510  0.63720  0.85508  Biso   1.000  C
  C892     1.0000 0.17880  0.71890  0.03234  Biso   1.000  C
  C893     1.0000 0.19350  0.63930  0.05815  Biso   1.000  C
  C894     1.0000 0.21570  0.52720  0.01480  Biso   1.000  C
  C895     1.0000 0.09640  0.54500  0.95212  Biso   1.000  C
  C896     1.0000 0.01510  0.56970  0.97565  Biso   1.000  C
  C897     1.0000 0.02750  0.71300  0.01473  Biso   1.000  C
  H939     1.0000 0.61580  0.66270  0.83840  Biso   1.000  H
  H940     1.0000 0.59520  0.60250  0.84950  Biso   1.000  H
  C898     1.0000 0.67410  0.62360  0.86430  Biso   1.000  C
  C899     1.0000 0.20910  0.75100  0.05170  Biso   1.000  C
  H941     1.0000 0.16260  0.73710  0.01630  Biso   1.000  H
  H942     1.0000 0.18920  0.60000  0.06020  Biso   1.000  H
  C900     1.0000 0.22260  0.66840  0.07933  Biso   1.000  C
  S30      1.0000 0.25900  0.48370  0.02987  Biso   1.000  S
  C901     1.0000 0.06630  0.51730  0.93117  Biso   1.000  C
  H943     1.0000 0.13610  0.54540  0.95110  Biso   1.000  H
  H944     1.0000 0.99730  0.58750  0.99130  Biso   1.000  H
  C902     1.0000 0.98210  0.54290  0.95561  Biso   1.000  C
  S31      1.0000 0.98399  0.76203  0.02485  Biso   1.000  S
  H945     1.0000 0.69650  0.65850  0.86430  Biso   1.000  H
  H946     1.0000 0.67320  0.60950  0.88420  Biso   1.000  H
  C903     1.0000 0.70280  0.58100  0.84580  Biso   1.000  C
  C904     1.0000 0.23050  0.72590  0.07616  Biso   1.000  C
  H947     1.0000 0.21510  0.78970  0.04820  Biso   1.000  H
  H948     1.0000 0.23670  0.64940  0.09560  Biso   1.000  H
  C905     1.0000 0.00770  0.51590  0.93262  Biso   1.000  C
  H949     1.0000 0.08520  0.49930  0.91590  Biso   1.000  H
  H950     1.0000 0.94250  0.54280  0.95750  Biso   1.000  H
  H951     1.0000 0.74010  0.57330  0.85410  Biso   1.000  H
  H952     1.0000 0.68110  0.54580  0.84680  Biso   1.000  H
  C906     1.0000 0.71050  0.59560  0.81530  Biso   1.000  C
  C907     1.0000 0.25730  0.75870  0.09963  Biso   1.000  C
  C908     1.0000 0.97460  0.48840  0.90955  Biso   1.000  C
  H953     1.0000 0.67450  0.60770  0.80680  Biso   1.000  H
  H954     1.0000 0.72460  0.56300  0.80450  Biso   1.000  H
  C909     1.0000 0.75210  0.64230  0.81460  Biso   1.000  C
  N123     1.0000 0.27040  0.73030  0.12340  Biso   1.000  N
  C910     1.0000 0.26720  0.81620  0.09655  Biso   1.000  C
  N124     1.0000 0.00310  0.47915  0.88527  Biso   1.000  N
  C911     1.0000 0.91820  0.47700  0.91252  Biso   1.000  C
  H955     1.0000 0.73440  0.67800  0.82050  Biso   1.000  H
  H956     1.0000 0.78380  0.63430  0.82760  Biso   1.000  H
  C912     1.0000 0.77170  0.64580  0.78460  Biso   1.000  C
  C913     1.0000 0.29270  0.75830  0.14510  Biso   1.000  C
  C914     1.0000 0.29080  0.84530  0.11945  Biso   1.000  C
  H957     1.0000 0.25810  0.83490  0.07930  Biso   1.000  H
  C915     1.0000 0.97480  0.45740  0.86314  Biso   1.000  C
  H958     1.0000 0.89960  0.48410  0.93010  Biso   1.000  H
  C916     1.0000 0.88870  0.45490  0.88921  Biso   1.000  C
  H959     1.0000 0.74020  0.65800  0.77240  Biso   1.000  H
  H960     1.0000 0.78340  0.60800  0.77820  Biso   1.000  H
  C917     1.0000 0.82060  0.68640  0.78090  Biso   1.000  C
  C918     1.0000 0.30210  0.81550  0.14412  Biso   1.000  C
  C919     1.0000 0.30800  0.72370  0.17078  Biso   1.000  C
  C920     1.0000 0.30280  0.90640  0.11785  Biso   1.000  C
  C921     1.0000 0.91820  0.44540  0.86436  Biso   1.000  C
  C922     1.0000 0.00760  0.44730  0.83708  Biso   1.000  C
  C923     1.0000 0.82790  0.44280  0.89034  Biso   1.000  C
  H961     1.0000 0.85380  0.67310  0.79150  Biso   1.000  H
  H962     1.0000 0.81040  0.72420  0.78790  Biso   1.000  H
  C924     1.0000 0.83230  0.68740  0.74880  Biso   1.000  C
  H963     1.0000 0.31620  0.83430  0.16050  Biso   1.000  H
  C925     1.0000 0.30240  0.66740  0.17105  Biso   1.000  C
  C926     1.0000 0.33000  0.74920  0.19510  Biso   1.000  C
  C927     1.0000 0.29800  0.94030  0.14157  Biso   1.000  C
  C928     1.0000 0.31870  0.93100  0.09245  Biso   1.000  C
  H964     1.0000 0.89960  0.43060  0.84810  Biso   1.000  H
  C929     1.0000 0.98350  0.43090  0.81136  Biso   1.000  C
  C930     1.0000 0.06710  0.45080  0.83738  Biso   1.000  C
  C931     1.0000 0.80140  0.42500  0.91557  Biso   1.000  C
  C932     1.0000 0.79460  0.44910  0.86597  Biso   1.000  C
  H965     1.0000 0.79920  0.67580  0.73750  Biso   1.000  H
  H966     1.0000 0.86480  0.66370  0.74360  Biso   1.000  H
  C933     1.0000 0.84500  0.75160  0.74510  Biso   1.000  C
  H967     1.0000 0.28580  0.64910  0.15510  Biso   1.000  H
  C934     1.0000 0.32050  0.63560  0.19431  Biso   1.000  C
  C935     1.0000 0.34710  0.71570  0.21708  Biso   1.000  C
  H968     1.0000 0.33300  0.78880  0.19630  Biso   1.000  H
  H969     1.0000 0.28670  0.92450  0.15930  Biso   1.000  H
  C936     1.0000 0.30950  0.99660  0.14004  Biso   1.000  C
  C937     1.0000 0.33060  0.98730  0.09033  Biso   1.000  C
  H970     1.0000 0.32140  0.90830  0.07580  Biso   1.000  H
  H971     1.0000 0.94390  0.42880  0.80970  Biso   1.000  H
  C938     1.0000 0.01670  0.41770  0.78848  Biso   1.000  C
  C939     1.0000 0.09660  0.43810  0.81303  Biso   1.000  C
  H972     1.0000 0.08620  0.46190  0.85420  Biso   1.000  H
  H973     1.0000 0.82290  0.42020  0.93250  Biso   1.000  H
  C940     1.0000 0.74330  0.41420  0.91610  Biso   1.000  C
  C941     1.0000 0.73750  0.43830  0.86630  Biso   1.000  C
  H974     1.0000 0.81160  0.46120  0.84870  Biso   1.000  H
  H975     1.0000 0.85410  0.75950  0.72510  Biso   1.000  H
  H976     1.0000 0.81280  0.77360  0.75100  Biso   1.000  H
  H977     1.0000 0.87760  0.76170  0.75700  Biso   1.000  H
  N125     1.0000 0.34350  0.65940  0.21752  Biso   1.000  N
  H978     1.0000 0.31650  0.59600  0.19370  Biso   1.000  H
  H979     1.0000 0.36270  0.73350  0.23340  Biso   1.000  H
  H980     1.0000 0.30630  0.01900  0.15670  Biso   1.000  H
  C942     1.0000 0.32540  0.02070  0.11474  Biso   1.000  C
  H981     1.0000 0.34210  0.00310  0.07270  Biso   1.000  H
  H982     1.0000 0.99900  0.40610  0.77130  Biso   1.000  H
  H983     1.0000 0.13610  0.44220  0.81340  Biso   1.000  H
  H984     1.0000 0.72570  0.40190  0.93320  Biso   1.000  H
  C943     1.0000 0.71240  0.42170  0.89160  Biso   1.000  C
  H985     1.0000 0.71590  0.44220  0.84940  Biso   1.000  H
  O30      1.0000 0.33510  0.07700  0.11489  Biso   1.000  O
  O31      1.0000 0.65610  0.41330  0.88963  Biso   1.000  O
  N126     1.0000 0.43500  0.57040  0.21710  Biso   1.000  N
  N127     1.0000 0.32660  0.54970  0.24743  Biso   1.000  N
  C944     1.0000 0.35160  0.10290  0.08900  Biso   1.000  C
  C945     1.0000 0.62810  0.39710  0.91470  Biso   1.000  C
  C946     1.0000 0.45600  0.59640  0.19464  Biso   1.000  C
  C947     1.0000 0.44040  0.51400  0.21793  Biso   1.000  C
  C948     1.0000 0.29720  0.51700  0.23714  Biso   1.000  C
  H986     1.0000 0.32200  0.09760  0.07450  Biso   1.000  H
  H987     1.0000 0.38630  0.08520  0.08190  Biso   1.000  H
  C949     1.0000 0.36150  0.16510  0.09370  Biso   1.000  C
  H988     1.0000 0.63230  0.42600  0.92970  Biso   1.000  H
  H989     1.0000 0.64310  0.36120  0.92190  Biso   1.000  H
  C950     1.0000 0.56560  0.39060  0.90590  Biso   1.000  C
  C951     1.0000 0.48090  0.56990  0.17187  Biso   1.000  C
  H990     1.0000 0.45380  0.63610  0.19420  Biso   1.000  H
  H991     1.0000 0.42570  0.49440  0.23390  Biso   1.000  H
  C952     1.0000 0.46630  0.48380  0.19661  Biso   1.000  C
  S32      1.0000 0.25710  0.47148  0.22057  Biso   1.000  S
  H992     1.0000 0.38980  0.16970  0.10890  Biso   1.000  H
  H993     1.0000 0.32620  0.18230  0.10050  Biso   1.000  H
  C953     1.0000 0.38130  0.19670  0.06710  Biso   1.000  C
  H994     1.0000 0.55460  0.42260  0.89370  Biso   1.000  H
  H995     1.0000 0.54190  0.39140  0.92330  Biso   1.000  H
  C954     1.0000 0.55560  0.33480  0.88960  Biso   1.000  C
  C955     1.0000 0.48660  0.51120  0.17226  Biso   1.000  C
  H996     1.0000 0.49400  0.59090  0.15600  Biso   1.000  H
  H997     1.0000 0.47030  0.44430  0.19840  Biso   1.000  H
  H998     1.0000 0.41690  0.18060  0.06010  Biso   1.000  H
  H999     1.0000 0.35300  0.19350  0.05180  Biso   1.000  H
  C956     1.0000 0.38950  0.25710  0.07500  Biso   1.000  C
  H1000    1.0000 0.54270  0.30590  0.90320  Biso   1.000  H
  H1001    1.0000 0.59150  0.32190  0.88120  Biso   1.000  H
  C957     1.0000 0.51080  0.34150  0.86500  Biso   1.000  C
  C958     1.0000 0.51070  0.48060  0.14744  Biso   1.000  C
  H1002    1.0000 0.42450  0.26160  0.08610  Biso   1.000  H
  H1003    1.0000 0.35780  0.27050  0.08680  Biso   1.000  H
  C959     1.0000 0.39290  0.29100  0.04690  Biso   1.000  C
  H1004    1.0000 0.52410  0.37020  0.85130  Biso   1.000  H
  H1005    1.0000 0.50780  0.30560  0.85450  Biso   1.000  H
  C960     1.0000 0.45310  0.35810  0.87580  Biso   1.000  C
  N128     1.0000 0.52220  0.51130  0.12452  Biso   1.000  N
  C961     1.0000 0.51950  0.42290  0.14842  Biso   1.000  C
  H1006    1.0000 0.36890  0.27220  0.03260  Biso   1.000  H
  H1007    1.0000 0.43190  0.28890  0.03990  Biso   1.000  H
  C962     1.0000 0.37560  0.35440  0.04820  Biso   1.000  C
  H1008    1.0000 0.43980  0.32930  0.88940  Biso   1.000  H
  H1009    1.0000 0.45620  0.39390  0.88640  Biso   1.000  H
  C963     1.0000 0.41100  0.36460  0.85270  Biso   1.000  C
  C964     1.0000 0.54290  0.48500  0.10141  Biso   1.000  C
  H1010    1.0000 0.51180  0.40270  0.16540  Biso   1.000  H
  C965     1.0000 0.53940  0.39500  0.12450  Biso   1.000  C
  H1011    1.0000 0.34480  0.35900  0.03430  Biso   1.000  H
  H1012    1.0000 0.35890  0.36030  0.06730  Biso   1.000  H
  C966     1.0000 0.41590  0.40470  0.04320  Biso   1.000  C
  H1013    1.0000 0.42550  0.39210  0.83870  Biso   1.000  H
  H1014    1.0000 0.40720  0.32830  0.84270  Biso   1.000  H
  C967     1.0000 0.35490  0.38290  0.86180  Biso   1.000  C
  C968     1.0000 0.55150  0.42820  0.10067  Biso   1.000  C
  C969     1.0000 0.55670  0.52180  0.07682  Biso   1.000  C
  C970     1.0000 0.55050  0.33420  0.12453  Biso   1.000  C
  H1015    1.0000 0.41940  0.39750  0.02250  Biso   1.000  H
  H1016    1.0000 0.44870  0.38500  0.05130  Biso   1.000  H
  C971     1.0000 0.44750  0.46340  0.04150  Biso   1.000  C
  H1017    1.0000 0.35870  0.41370  0.87580  Biso   1.000  H
  H1018    1.0000 0.33550  0.35140  0.87130  Biso   1.000  H
  C972     1.0000 0.31860  0.40380  0.83570  Biso   1.000  C
  H1019    1.0000 0.56580  0.41130  0.08380  Biso   1.000  H
  C973     1.0000 0.57750  0.49920  0.05152  Biso   1.000  C
  C974     1.0000 0.55150  0.57920  0.07816  Biso   1.000  C
  C975     1.0000 0.56760  0.30650  0.14862  Biso   1.000  C
  C976     1.0000 0.54250  0.30260  0.09957  Biso   1.000  C
  H1020    1.0000 0.44500  0.47740  0.06130  Biso   1.000  H
  H1021    1.0000 0.48710  0.45220  0.03900  Biso   1.000  H
  C977     1.0000 0.44340  0.51840  0.02330  Biso   1.000  C
  H1022    1.0000 0.31710  0.37390  0.82110  Biso   1.000  H
  H1023    1.0000 0.33670  0.43690  0.82710  Biso   1.000  H
  C978     1.0000 0.25710  0.41950  0.84500  Biso   1.000  C
  H1024    1.0000 0.57980  0.45980  0.04910  Biso   1.000  H
  C979     1.0000 0.59500  0.53490  0.02991  Biso   1.000  C
  C980     1.0000 0.57090  0.61130  0.05514  Biso   1.000  C
  H1025    1.0000 0.53510  0.59660  0.09430  Biso   1.000  H
  H1026    1.0000 0.57250  0.32710  0.16580  Biso   1.000  H
  C981     1.0000 0.57810  0.24840  0.14889  Biso   1.000  C
  C982     1.0000 0.55190  0.24510  0.09918  Biso   1.000  C
  H1027    1.0000 0.53050  0.32080  0.08260  Biso   1.000  H
  H1028    1.0000 0.47220  0.54490  0.02970  Biso   1.000  H
  H1029    1.0000 0.44910  0.50960  0.00310  Biso   1.000  H
  H1030    1.0000 0.40630  0.53520  0.02590  Biso   1.000  H
  H1031    1.0000 0.24940  0.40390  0.86390  Biso   1.000  H
  H1032    1.0000 0.23040  0.40400  0.83120  Biso   1.000  H
  H1033    1.0000 0.25320  0.46030  0.84560  Biso   1.000  H
  H1034    1.0000 0.60770  0.51870  0.01250  Biso   1.000  H
  H1035    1.0000 0.56660  0.65080  0.05600  Biso   1.000  H
  H1036    1.0000 0.59080  0.23050  0.16580  Biso   1.000  H
  C983     1.0000 0.56960  0.21770  0.12377  Biso   1.000  C
  H1037    1.0000 0.54630  0.22460  0.08210  Biso   1.000  H
  O32      1.0000 0.57820  0.16190  0.12083  Biso   1.000  O
  C984     1.0000 0.59790  0.13350  0.14460  Biso   1.000  C
  H1038    1.0000 0.56920  0.13360  0.15980  Biso   1.000  H
  H1039    1.0000 0.63210  0.15190  0.15200  Biso   1.000  H
  C985     1.0000 0.61130  0.07300  0.13570  Biso   1.000  C
  H1040    1.0000 0.57810  0.05630  0.12640  Biso   1.000  H
  H1041    1.0000 0.64240  0.07310  0.12170  Biso   1.000  H
  C986     1.0000 0.62770  0.03780  0.16160  Biso   1.000  C
  H1042    1.0000 0.65720  0.05820  0.17210  Biso   1.000  H
  H1043    1.0000 0.59470  0.03520  0.17430  Biso   1.000  H
  C987     1.0000 0.64770  0.98130  0.15620  Biso   1.000  C
  H1044    1.0000 0.65340  0.96360  0.17510  Biso   1.000  H
  H1045    1.0000 0.68520  0.98500  0.14740  Biso   1.000  H
  C988     1.0000 0.61510  0.94010  0.13820  Biso   1.000  C
  H1046    1.0000 0.57940  0.93170  0.14800  Biso   1.000  H
  H1047    1.0000 0.60580  0.95830  0.11980  Biso   1.000  H
  C989     1.0000 0.64310  0.88890  0.13240  Biso   1.000  C
  H1048    1.0000 0.65960  0.87660  0.15080  Biso   1.000  H
  H1049    1.0000 0.67480  0.89840  0.11980  Biso   1.000  H
  C990     1.0000 0.61560  0.83750  0.11950  Biso   1.000  C
  H1050    1.0000 0.63980  0.80460  0.12310  Biso   1.000  H
  H1051    1.0000 0.57940  0.83090  0.12930  Biso   1.000  H
  C991     1.0000 0.60510  0.84210  0.08790  Biso   1.000  C
  H1052    1.0000 0.64030  0.84980  0.07750  Biso   1.000  H
  H1053    1.0000 0.57790  0.87230  0.08380  Biso   1.000  H
  C992     1.0000 0.58090  0.78420  0.07950  Biso   1.000  C
  H1054    1.0000 0.61100  0.75630  0.07950  Biso   1.000  H
  H1055    1.0000 0.56440  0.78650  0.06040  Biso   1.000  H
  H1056    1.0000 0.55210  0.77320  0.09330  Biso   1.000  H
  Co9      1.0000 0.13831  0.86169  0.75000  Biso   1.000  Co
  Co10     1.0000 0.86169  0.13831  0.25000  Biso   1.000  Co
  Co11     1.0000 0.63831  0.63831  0.00000  Biso   1.000  Co
  Co12     1.0000 0.36169  0.36169  0.50000  Biso   1.000  Co
  Co13     1.0000 0.38740  0.61260  0.25000  Biso   1.000  Co
  Co14     1.0000 0.61260  0.38740  0.75000  Biso   1.000  Co
  Co15     1.0000 0.88740  0.88740  0.50000  Biso   1.000  Co
  Co16     1.0000 0.11260  0.11260  0.00000  Biso   1.000  Co
