data_image0
_cell_length_a       24.0967
_cell_length_b       18.4666
_cell_length_c       37.614
_cell_angle_alpha    90
_cell_angle_beta     94.2641
_cell_angle_gamma    90

_symmetry_space_group_name_H-M    "P 1"
_symmetry_int_tables_number       1

loop_
  _symmetry_equiv_pos_as_xyz
  'x, y, z'

loop_
  _atom_site_label
  _atom_site_occupancy
  _atom_site_fract_x
  _atom_site_fract_y
  _atom_site_fract_z
  _atom_site_thermal_displace_type
  _atom_site_B_iso_or_equiv
  _atom_site_type_symbol
  Zn1      1.0000 0.60131  0.36800  0.67627  Biso   1.000  Zn
  Zn2      1.0000 0.59171  0.36853  0.59736  Biso   1.000  Zn
  O1       1.0000 0.14739  0.95090  0.60581  Biso   1.000  O
  O2       1.0000 0.65652  0.29990  0.60734  Biso   1.000  O
  O3       1.0000 0.53844  0.28528  0.60461  Biso   1.000  O
  O4       1.0000 0.02976  0.93558  0.61128  Biso   1.000  O
  O5       1.0000 0.16534  0.93270  0.66438  Biso   1.000  O
  O6       1.0000 0.53423  0.30402  0.66362  Biso   1.000  O
  O7       1.0000 0.04774  0.95463  0.66997  Biso   1.000  O
  O8       1.0000 0.65247  0.28318  0.66629  Biso   1.000  O
  N1       1.0000 0.10680  0.13054  0.22981  Biso   1.000  N
  N2       1.0000 0.52419  0.38115  0.49320  Biso   1.000  N
  N3       1.0000 0.57516  0.38053  0.54454  Biso   1.000  N
  N4       1.0000 0.35271  0.32880  0.35194  Biso   1.000  N
  N5       1.0000 0.30670  0.29850  0.33492  Biso   1.000  N
  N6       1.0000 0.31398  0.26420  0.39240  Biso   1.000  N
  C1       1.0000 0.93034  0.00910  0.61083  Biso   1.000  C
  H1       1.0000 0.93700  0.98000  0.59140  Biso   1.000  H
  C2       1.0000 0.22545  0.00880  0.63475  Biso   1.000  C
  C3       1.0000 0.01933  0.96297  0.64039  Biso   1.000  C
  N7       1.0000 0.13085  0.14120  0.28694  Biso   1.000  N
  C4       1.0000 0.96863  0.01090  0.64023  Biso   1.000  C
  C5       1.0000 0.23572  0.04870  0.60527  Biso   1.000  C
  H2       1.0000 0.21070  0.04710  0.58520  Biso   1.000  H
  C6       1.0000 0.17531  0.96057  0.63494  Biso   1.000  C
  C7       1.0000 0.26276  0.01190  0.66476  Biso   1.000  C
  H3       1.0000 0.25560  0.98540  0.68500  Biso   1.000  H
  C8       1.0000 0.32169  0.09480  0.63449  Biso   1.000  C
  C9       1.0000 0.67298  0.27240  0.63685  Biso   1.000  C
  C10      1.0000 0.48118  0.36320  0.46638  Biso   1.000  C
  C11      1.0000 0.51763  0.27500  0.63431  Biso   1.000  C
  C12      1.0000 0.35584  0.30700  0.38631  Biso   1.000  C
  C13      1.0000 0.56602  0.43080  0.49052  Biso   1.000  C
  H4       1.0000 0.57200  0.45940  0.47080  Biso   1.000  H
  C14      1.0000 0.31031  0.05370  0.66485  Biso   1.000  C
  H5       1.0000 0.33500  0.05490  0.68500  Biso   1.000  H
  C15      1.0000 0.59691  0.43010  0.52219  Biso   1.000  C
  H6       1.0000 0.62800  0.45880  0.52790  Biso   1.000  H
  C16      1.0000 0.15980  0.16230  0.31994  Biso   1.000  C
  C17      1.0000 0.72298  0.22330  0.63703  Biso   1.000  C
  C18      1.0000 0.46457  0.41440  0.44085  Biso   1.000  C
  H7       1.0000 0.48040  0.46040  0.44140  Biso   1.000  H
  C19      1.0000 0.40023  0.32900  0.41318  Biso   1.000  C
  C20      1.0000 0.37290  0.13940  0.63470  Biso   1.000  C
  C21      1.0000 0.42378  0.39560  0.41433  Biso   1.000  C
  H8       1.0000 0.41240  0.42950  0.39700  Biso   1.000  H
  C22      1.0000 0.28332  0.09150  0.60505  Biso   1.000  C
  H9       1.0000 0.28950  0.11850  0.58480  Biso   1.000  H
  C23      1.0000 0.88183  0.05060  0.61013  Biso   1.000  C
  H10      1.0000 0.85630  0.04890  0.59040  Biso   1.000  H
  C24      1.0000 0.46849  0.22610  0.63441  Biso   1.000  C
  C25      1.0000 0.74860  0.20950  0.60607  Biso   1.000  C
  H11      1.0000 0.73340  0.22840  0.58460  Biso   1.000  H
  C26      1.0000 0.28479  0.25990  0.35992  Biso   1.000  C
  C27      1.0000 0.87170  0.09470  0.63898  Biso   1.000  C
  C28      1.0000 0.44532  0.19560  0.60292  Biso   1.000  C
  H12      1.0000 0.46170  0.20430  0.58170  Biso   1.000  H
  C29      1.0000 0.82012  0.13930  0.63852  Biso   1.000  C
  C30      1.0000 0.53115  0.35280  0.52621  Biso   1.000  C
  H13      1.0000 0.50790  0.31790  0.53510  Biso   1.000  H
  C31      1.0000 0.15990  0.15790  0.38288  Biso   1.000  C
  H14      1.0000 0.14390  0.14440  0.40360  Biso   1.000  H
  C32      1.0000 0.44363  0.21150  0.66605  Biso   1.000  C
  H15      1.0000 0.45920  0.23030  0.68740  Biso   1.000  H
  C33      1.0000 0.39840  0.15250  0.60265  Biso   1.000  C
  H16      1.0000 0.38360  0.13210  0.58140  Biso   1.000  H
  C34      1.0000 0.14088  0.15880  0.25431  Biso   1.000  C
  H17      1.0000 0.17010  0.18900  0.24910  Biso   1.000  H
  C35      1.0000 0.20806  0.20130  0.32157  Biso   1.000  C
  H18      1.0000 0.22380  0.21560  0.30080  Biso   1.000  H
  C36      1.0000 0.23300  0.21890  0.35455  Biso   1.000  C
  C37      1.0000 0.95918  0.05430  0.66917  Biso   1.000  C
  H19      1.0000 0.98490  0.05540  0.68890  Biso   1.000  H
  C38      1.0000 0.79640  0.16810  0.60650  Biso   1.000  C
  H20      1.0000 0.81290  0.15930  0.58540  Biso   1.000  H
  C39      1.0000 0.45760  0.29570  0.46614  Biso   1.000  C
  H21      1.0000 0.46920  0.26170  0.48330  Biso   1.000  H
  C40      1.0000 0.41640  0.27890  0.44000  Biso   1.000  C
  H22      1.0000 0.39910  0.23390  0.44020  Biso   1.000  H
  C41      1.0000 0.13630  0.14030  0.35104  Biso   1.000  C
  H23      1.0000 0.10380  0.11290  0.34940  Biso   1.000  H
  C42      1.0000 0.91127  0.09620  0.66874  Biso   1.000  C
  H24      1.0000 0.90510  0.12550  0.68820  Biso   1.000  H
  C43      1.0000 0.39667  0.16980  0.66598  Biso   1.000  C
  H25      1.0000 0.38040  0.16170  0.68730  Biso   1.000  H
  C44      1.0000 0.79370  0.15230  0.66964  Biso   1.000  C
  H26      1.0000 0.80850  0.13300  0.69110  Biso   1.000  H
  C45      1.0000 0.20670  0.19510  0.38420  Biso   1.000  C
  H27      1.0000 0.22350  0.20640  0.40660  Biso   1.000  H
  C46      1.0000 0.74580  0.19360  0.66913  Biso   1.000  C
  H28      1.0000 0.72870  0.20170  0.69010  Biso   1.000  H
  C47      1.0000 0.08840  0.06710  0.24770  Biso   1.000  C
  H29      1.0000 0.06830  0.02920  0.23670  Biso   1.000  H
  C48      1.0000 0.10450  0.07050  0.28290  Biso   1.000  C
  H30      1.0000 0.09990  0.03580  0.30040  Biso   1.000  H
  C49      1.0000 0.39060  0.37230  0.33187  Biso   1.000  C
  H31      1.0000 0.37760  0.42140  0.33040  Biso   1.000  H
  H32      1.0000 0.39190  0.35280  0.30830  Biso   1.000  H
  H33      1.0000 0.42730  0.37120  0.34380  Biso   1.000  H
  C50      1.0000 0.05610  0.12540  0.24740  Biso   1.000  C
  H34      1.0000 0.02110  0.11660  0.23610  Biso   1.000  H
  C51      1.0000 0.06690  0.13530  0.28240  Biso   1.000  C
  H35      1.0000 0.04180  0.13800  0.30000  Biso   1.000  H
  Zn3      1.0000 0.10131  0.86800  0.67627  Biso   1.000  Zn
  Zn4      1.0000 0.09171  0.86853  0.59736  Biso   1.000  Zn
  O9       1.0000 0.64739  0.45090  0.60581  Biso   1.000  O
  O10      1.0000 0.15652  0.79990  0.60734  Biso   1.000  O
  O11      1.0000 0.03844  0.78528  0.60461  Biso   1.000  O
  O12      1.0000 0.52976  0.43558  0.61128  Biso   1.000  O
  O13      1.0000 0.66534  0.43270  0.66438  Biso   1.000  O
  O14      1.0000 0.03423  0.80402  0.66362  Biso   1.000  O
  O15      1.0000 0.54774  0.45463  0.66997  Biso   1.000  O
  O16      1.0000 0.15247  0.78318  0.66629  Biso   1.000  O
  N8       1.0000 0.60680  0.63054  0.22981  Biso   1.000  N
  N9       1.0000 0.02419  0.88115  0.49320  Biso   1.000  N
  N10      1.0000 0.07516  0.88053  0.54454  Biso   1.000  N
  N11      1.0000 0.85271  0.82880  0.35194  Biso   1.000  N
  N12      1.0000 0.80670  0.79850  0.33492  Biso   1.000  N
  N13      1.0000 0.81398  0.76420  0.39240  Biso   1.000  N
  C52      1.0000 0.43034  0.50910  0.61083  Biso   1.000  C
  H36      1.0000 0.43700  0.48000  0.59140  Biso   1.000  H
  C53      1.0000 0.72545  0.50880  0.63475  Biso   1.000  C
  C54      1.0000 0.51933  0.46297  0.64039  Biso   1.000  C
  N14      1.0000 0.63085  0.64120  0.28694  Biso   1.000  N
  C55      1.0000 0.46863  0.51090  0.64023  Biso   1.000  C
  C56      1.0000 0.73572  0.54870  0.60527  Biso   1.000  C
  H37      1.0000 0.71070  0.54710  0.58520  Biso   1.000  H
  C57      1.0000 0.67531  0.46057  0.63494  Biso   1.000  C
  C58      1.0000 0.76276  0.51190  0.66476  Biso   1.000  C
  H38      1.0000 0.75560  0.48540  0.68500  Biso   1.000  H
  C59      1.0000 0.82169  0.59480  0.63449  Biso   1.000  C
  C60      1.0000 0.17298  0.77240  0.63685  Biso   1.000  C
  C61      1.0000 0.98118  0.86320  0.46638  Biso   1.000  C
  C62      1.0000 0.01763  0.77500  0.63431  Biso   1.000  C
  C63      1.0000 0.85584  0.80700  0.38631  Biso   1.000  C
  C64      1.0000 0.06602  0.93080  0.49052  Biso   1.000  C
  H39      1.0000 0.07200  0.95940  0.47080  Biso   1.000  H
  C65      1.0000 0.81031  0.55370  0.66485  Biso   1.000  C
  H40      1.0000 0.83500  0.55490  0.68500  Biso   1.000  H
  C66      1.0000 0.09691  0.93010  0.52219  Biso   1.000  C
  H41      1.0000 0.12800  0.95880  0.52790  Biso   1.000  H
  C67      1.0000 0.65980  0.66230  0.31994  Biso   1.000  C
  C68      1.0000 0.22298  0.72330  0.63703  Biso   1.000  C
  C69      1.0000 0.96457  0.91440  0.44085  Biso   1.000  C
  H42      1.0000 0.98040  0.96040  0.44140  Biso   1.000  H
  C70      1.0000 0.90023  0.82900  0.41318  Biso   1.000  C
  C71      1.0000 0.87290  0.63940  0.63470  Biso   1.000  C
  C72      1.0000 0.92378  0.89560  0.41433  Biso   1.000  C
  H43      1.0000 0.91240  0.92950  0.39700  Biso   1.000  H
  C73      1.0000 0.78332  0.59150  0.60505  Biso   1.000  C
  H44      1.0000 0.78950  0.61850  0.58480  Biso   1.000  H
  C74      1.0000 0.38183  0.55060  0.61013  Biso   1.000  C
  H45      1.0000 0.35630  0.54890  0.59040  Biso   1.000  H
  C75      1.0000 0.96849  0.72610  0.63441  Biso   1.000  C
  C76      1.0000 0.24860  0.70950  0.60607  Biso   1.000  C
  H46      1.0000 0.23340  0.72840  0.58460  Biso   1.000  H
  C77      1.0000 0.78479  0.75990  0.35992  Biso   1.000  C
  C78      1.0000 0.37170  0.59470  0.63898  Biso   1.000  C
  C79      1.0000 0.94532  0.69560  0.60292  Biso   1.000  C
  H47      1.0000 0.96170  0.70430  0.58170  Biso   1.000  H
  C80      1.0000 0.32012  0.63930  0.63852  Biso   1.000  C
  C81      1.0000 0.03115  0.85280  0.52621  Biso   1.000  C
  H48      1.0000 0.00790  0.81790  0.53510  Biso   1.000  H
  C82      1.0000 0.65990  0.65790  0.38288  Biso   1.000  C
  H49      1.0000 0.64390  0.64440  0.40360  Biso   1.000  H
  C83      1.0000 0.94363  0.71150  0.66605  Biso   1.000  C
  H50      1.0000 0.95920  0.73030  0.68740  Biso   1.000  H
  C84      1.0000 0.89840  0.65250  0.60265  Biso   1.000  C
  H51      1.0000 0.88360  0.63210  0.58140  Biso   1.000  H
  C85      1.0000 0.64088  0.65880  0.25431  Biso   1.000  C
  H52      1.0000 0.67010  0.68900  0.24910  Biso   1.000  H
  C86      1.0000 0.70806  0.70130  0.32157  Biso   1.000  C
  H53      1.0000 0.72380  0.71560  0.30080  Biso   1.000  H
  C87      1.0000 0.73300  0.71890  0.35455  Biso   1.000  C
  C88      1.0000 0.45918  0.55430  0.66917  Biso   1.000  C
  H54      1.0000 0.48490  0.55540  0.68890  Biso   1.000  H
  C89      1.0000 0.29640  0.66810  0.60650  Biso   1.000  C
  H55      1.0000 0.31290  0.65930  0.58540  Biso   1.000  H
  C90      1.0000 0.95760  0.79570  0.46614  Biso   1.000  C
  H56      1.0000 0.96920  0.76170  0.48330  Biso   1.000  H
  C91      1.0000 0.91640  0.77890  0.44000  Biso   1.000  C
  H57      1.0000 0.89910  0.73390  0.44020  Biso   1.000  H
  C92      1.0000 0.63630  0.64030  0.35104  Biso   1.000  C
  H58      1.0000 0.60380  0.61290  0.34940  Biso   1.000  H
  C93      1.0000 0.41127  0.59620  0.66874  Biso   1.000  C
  H59      1.0000 0.40510  0.62550  0.68820  Biso   1.000  H
  C94      1.0000 0.89667  0.66980  0.66598  Biso   1.000  C
  H60      1.0000 0.88040  0.66170  0.68730  Biso   1.000  H
  C95      1.0000 0.29370  0.65230  0.66964  Biso   1.000  C
  H61      1.0000 0.30850  0.63300  0.69110  Biso   1.000  H
  C96      1.0000 0.70670  0.69510  0.38420  Biso   1.000  C
  H62      1.0000 0.72350  0.70640  0.40660  Biso   1.000  H
  C97      1.0000 0.24580  0.69360  0.66913  Biso   1.000  C
  H63      1.0000 0.22870  0.70170  0.69010  Biso   1.000  H
  C98      1.0000 0.58840  0.56710  0.24770  Biso   1.000  C
  H64      1.0000 0.56830  0.52920  0.23670  Biso   1.000  H
  C99      1.0000 0.60450  0.57050  0.28290  Biso   1.000  C
  H65      1.0000 0.59990  0.53580  0.30040  Biso   1.000  H
  C100     1.0000 0.89060  0.87230  0.33187  Biso   1.000  C
  H66      1.0000 0.87760  0.92140  0.33040  Biso   1.000  H
  H67      1.0000 0.89190  0.85280  0.30830  Biso   1.000  H
  H68      1.0000 0.92730  0.87120  0.34380  Biso   1.000  H
  C101     1.0000 0.55610  0.62540  0.24740  Biso   1.000  C
  H69      1.0000 0.52110  0.61660  0.23610  Biso   1.000  H
  C102     1.0000 0.56690  0.63530  0.28240  Biso   1.000  C
  H70      1.0000 0.54180  0.63800  0.30000  Biso   1.000  H
  Zn5      1.0000 0.60131  0.63200  0.17627  Biso   1.000  Zn
  Zn6      1.0000 0.59171  0.63147  0.09736  Biso   1.000  Zn
  O17      1.0000 0.14739  0.04910  0.10581  Biso   1.000  O
  O18      1.0000 0.65652  0.70010  0.10734  Biso   1.000  O
  O19      1.0000 0.53844  0.71472  0.10461  Biso   1.000  O
  O20      1.0000 0.02976  0.06442  0.11128  Biso   1.000  O
  O21      1.0000 0.16534  0.06730  0.16438  Biso   1.000  O
  O22      1.0000 0.53423  0.69598  0.16362  Biso   1.000  O
  O23      1.0000 0.04774  0.04537  0.16997  Biso   1.000  O
  O24      1.0000 0.65247  0.71682  0.16629  Biso   1.000  O
  N15      1.0000 0.10680  0.86946  0.72981  Biso   1.000  N
  N16      1.0000 0.52419  0.61885  0.99320  Biso   1.000  N
  N17      1.0000 0.57516  0.61947  0.04454  Biso   1.000  N
  N18      1.0000 0.35271  0.67120  0.85194  Biso   1.000  N
  N19      1.0000 0.30670  0.70150  0.83492  Biso   1.000  N
  N20      1.0000 0.31398  0.73580  0.89240  Biso   1.000  N
  C103     1.0000 0.93034  0.99090  0.11083  Biso   1.000  C
  H71      1.0000 0.93700  0.02000  0.09140  Biso   1.000  H
  C104     1.0000 0.22545  0.99120  0.13475  Biso   1.000  C
  C105     1.0000 0.01933  0.03703  0.14039  Biso   1.000  C
  N21      1.0000 0.13085  0.85880  0.78694  Biso   1.000  N
  C106     1.0000 0.96863  0.98910  0.14023  Biso   1.000  C
  C107     1.0000 0.23572  0.95130  0.10527  Biso   1.000  C
  H72      1.0000 0.21070  0.95290  0.08520  Biso   1.000  H
  C108     1.0000 0.17531  0.03943  0.13494  Biso   1.000  C
  C109     1.0000 0.26276  0.98810  0.16476  Biso   1.000  C
  H73      1.0000 0.25560  0.01460  0.18500  Biso   1.000  H
  C110     1.0000 0.32169  0.90520  0.13449  Biso   1.000  C
  C111     1.0000 0.67298  0.72760  0.13685  Biso   1.000  C
  C112     1.0000 0.48118  0.63680  0.96638  Biso   1.000  C
  C113     1.0000 0.51763  0.72500  0.13431  Biso   1.000  C
  C114     1.0000 0.35584  0.69300  0.88631  Biso   1.000  C
  C115     1.0000 0.56602  0.56920  0.99052  Biso   1.000  C
  H74      1.0000 0.57200  0.54060  0.97080  Biso   1.000  H
  C116     1.0000 0.31031  0.94630  0.16485  Biso   1.000  C
  H75      1.0000 0.33500  0.94510  0.18500  Biso   1.000  H
  C117     1.0000 0.59691  0.56990  0.02219  Biso   1.000  C
  H76      1.0000 0.62800  0.54120  0.02790  Biso   1.000  H
  C118     1.0000 0.15980  0.83770  0.81994  Biso   1.000  C
  C119     1.0000 0.72298  0.77670  0.13703  Biso   1.000  C
  C120     1.0000 0.46457  0.58560  0.94085  Biso   1.000  C
  H77      1.0000 0.48040  0.53960  0.94140  Biso   1.000  H
  C121     1.0000 0.40023  0.67100  0.91318  Biso   1.000  C
  C122     1.0000 0.37290  0.86060  0.13470  Biso   1.000  C
  C123     1.0000 0.42378  0.60440  0.91433  Biso   1.000  C
  H78      1.0000 0.41240  0.57050  0.89700  Biso   1.000  H
  C124     1.0000 0.28332  0.90850  0.10505  Biso   1.000  C
  H79      1.0000 0.28950  0.88150  0.08480  Biso   1.000  H
  C125     1.0000 0.88183  0.94940  0.11013  Biso   1.000  C
  H80      1.0000 0.85630  0.95110  0.09040  Biso   1.000  H
  C126     1.0000 0.46849  0.77390  0.13441  Biso   1.000  C
  C127     1.0000 0.74860  0.79050  0.10607  Biso   1.000  C
  H81      1.0000 0.73340  0.77160  0.08460  Biso   1.000  H
  C128     1.0000 0.28479  0.74010  0.85992  Biso   1.000  C
  C129     1.0000 0.87170  0.90530  0.13898  Biso   1.000  C
  C130     1.0000 0.44532  0.80440  0.10292  Biso   1.000  C
  H82      1.0000 0.46170  0.79570  0.08170  Biso   1.000  H
  C131     1.0000 0.82012  0.86070  0.13852  Biso   1.000  C
  C132     1.0000 0.53115  0.64720  0.02621  Biso   1.000  C
  H83      1.0000 0.50790  0.68210  0.03510  Biso   1.000  H
  C133     1.0000 0.15990  0.84210  0.88288  Biso   1.000  C
  H84      1.0000 0.14390  0.85560  0.90360  Biso   1.000  H
  C134     1.0000 0.44363  0.78850  0.16605  Biso   1.000  C
  H85      1.0000 0.45920  0.76970  0.18740  Biso   1.000  H
  C135     1.0000 0.39840  0.84750  0.10265  Biso   1.000  C
  H86      1.0000 0.38360  0.86790  0.08140  Biso   1.000  H
  C136     1.0000 0.14088  0.84120  0.75431  Biso   1.000  C
  H87      1.0000 0.17010  0.81100  0.74910  Biso   1.000  H
  C137     1.0000 0.20806  0.79870  0.82157  Biso   1.000  C
  H88      1.0000 0.22380  0.78440  0.80080  Biso   1.000  H
  C138     1.0000 0.23300  0.78110  0.85455  Biso   1.000  C
  C139     1.0000 0.95918  0.94570  0.16917  Biso   1.000  C
  H89      1.0000 0.98490  0.94460  0.18890  Biso   1.000  H
  C140     1.0000 0.79640  0.83190  0.10650  Biso   1.000  C
  H90      1.0000 0.81290  0.84070  0.08540  Biso   1.000  H
  C141     1.0000 0.45760  0.70430  0.96614  Biso   1.000  C
  H91      1.0000 0.46920  0.73830  0.98330  Biso   1.000  H
  C142     1.0000 0.41640  0.72110  0.94000  Biso   1.000  C
  H92      1.0000 0.39910  0.76610  0.94020  Biso   1.000  H
  C143     1.0000 0.13630  0.85970  0.85104  Biso   1.000  C
  H93      1.0000 0.10380  0.88710  0.84940  Biso   1.000  H
  C144     1.0000 0.91127  0.90380  0.16874  Biso   1.000  C
  H94      1.0000 0.90510  0.87450  0.18820  Biso   1.000  H
  C145     1.0000 0.39667  0.83020  0.16598  Biso   1.000  C
  H95      1.0000 0.38040  0.83830  0.18730  Biso   1.000  H
  C146     1.0000 0.79370  0.84770  0.16964  Biso   1.000  C
  H96      1.0000 0.80850  0.86700  0.19110  Biso   1.000  H
  C147     1.0000 0.20670  0.80490  0.88420  Biso   1.000  C
  H97      1.0000 0.22350  0.79360  0.90660  Biso   1.000  H
  C148     1.0000 0.74580  0.80640  0.16913  Biso   1.000  C
  H98      1.0000 0.72870  0.79830  0.19010  Biso   1.000  H
  C149     1.0000 0.08840  0.93290  0.74770  Biso   1.000  C
  H99      1.0000 0.06830  0.97080  0.73670  Biso   1.000  H
  C150     1.0000 0.10450  0.92950  0.78290  Biso   1.000  C
  H100     1.0000 0.09990  0.96420  0.80040  Biso   1.000  H
  C151     1.0000 0.39060  0.62770  0.83187  Biso   1.000  C
  H101     1.0000 0.37760  0.57860  0.83040  Biso   1.000  H
  H102     1.0000 0.39190  0.64720  0.80830  Biso   1.000  H
  H103     1.0000 0.42730  0.62880  0.84380  Biso   1.000  H
  C152     1.0000 0.05610  0.87460  0.74740  Biso   1.000  C
  H104     1.0000 0.02110  0.88340  0.73610  Biso   1.000  H
  C153     1.0000 0.06690  0.86470  0.78240  Biso   1.000  C
  H105     1.0000 0.04180  0.86200  0.80000  Biso   1.000  H
  Zn7      1.0000 0.10131  0.13200  0.17627  Biso   1.000  Zn
  Zn8      1.0000 0.09171  0.13147  0.09736  Biso   1.000  Zn
  O25      1.0000 0.64739  0.54910  0.10581  Biso   1.000  O
  O26      1.0000 0.15652  0.20010  0.10734  Biso   1.000  O
  O27      1.0000 0.03844  0.21472  0.10461  Biso   1.000  O
  O28      1.0000 0.52976  0.56442  0.11128  Biso   1.000  O
  O29      1.0000 0.66534  0.56730  0.16438  Biso   1.000  O
  O30      1.0000 0.03423  0.19598  0.16362  Biso   1.000  O
  O31      1.0000 0.54774  0.54537  0.16997  Biso   1.000  O
  O32      1.0000 0.15247  0.21682  0.16629  Biso   1.000  O
  N22      1.0000 0.60680  0.36946  0.72981  Biso   1.000  N
  N23      1.0000 0.02419  0.11885  0.99320  Biso   1.000  N
  N24      1.0000 0.07516  0.11947  0.04454  Biso   1.000  N
  N25      1.0000 0.85271  0.17120  0.85194  Biso   1.000  N
  N26      1.0000 0.80670  0.20150  0.83492  Biso   1.000  N
  N27      1.0000 0.81398  0.23580  0.89240  Biso   1.000  N
  C154     1.0000 0.43034  0.49090  0.11083  Biso   1.000  C
  H106     1.0000 0.43700  0.52000  0.09140  Biso   1.000  H
  C155     1.0000 0.72545  0.49120  0.13475  Biso   1.000  C
  C156     1.0000 0.51933  0.53703  0.14039  Biso   1.000  C
  N28      1.0000 0.63085  0.35880  0.78694  Biso   1.000  N
  C157     1.0000 0.46863  0.48910  0.14023  Biso   1.000  C
  C158     1.0000 0.73572  0.45130  0.10527  Biso   1.000  C
  H107     1.0000 0.71070  0.45290  0.08520  Biso   1.000  H
  C159     1.0000 0.67531  0.53943  0.13494  Biso   1.000  C
  C160     1.0000 0.76276  0.48810  0.16476  Biso   1.000  C
  H108     1.0000 0.75560  0.51460  0.18500  Biso   1.000  H
  C161     1.0000 0.82169  0.40520  0.13449  Biso   1.000  C
  C162     1.0000 0.17298  0.22760  0.13685  Biso   1.000  C
  C163     1.0000 0.98118  0.13680  0.96638  Biso   1.000  C
  C164     1.0000 0.01763  0.22500  0.13431  Biso   1.000  C
  C165     1.0000 0.85584  0.19300  0.88631  Biso   1.000  C
  C166     1.0000 0.06602  0.06920  0.99052  Biso   1.000  C
  H109     1.0000 0.07200  0.04060  0.97080  Biso   1.000  H
  C167     1.0000 0.81031  0.44630  0.16485  Biso   1.000  C
  H110     1.0000 0.83500  0.44510  0.18500  Biso   1.000  H
  C168     1.0000 0.09691  0.06990  0.02219  Biso   1.000  C
  H111     1.0000 0.12800  0.04120  0.02790  Biso   1.000  H
  C169     1.0000 0.65980  0.33770  0.81994  Biso   1.000  C
  C170     1.0000 0.22298  0.27670  0.13703  Biso   1.000  C
  C171     1.0000 0.96457  0.08560  0.94085  Biso   1.000  C
  H112     1.0000 0.98040  0.03960  0.94140  Biso   1.000  H
  C172     1.0000 0.90023  0.17100  0.91318  Biso   1.000  C
  C173     1.0000 0.87290  0.36060  0.13470  Biso   1.000  C
  C174     1.0000 0.92378  0.10440  0.91433  Biso   1.000  C
  H113     1.0000 0.91240  0.07050  0.89700  Biso   1.000  H
  C175     1.0000 0.78332  0.40850  0.10505  Biso   1.000  C
  H114     1.0000 0.78950  0.38150  0.08480  Biso   1.000  H
  C176     1.0000 0.38183  0.44940  0.11013  Biso   1.000  C
  H115     1.0000 0.35630  0.45110  0.09040  Biso   1.000  H
  C177     1.0000 0.96849  0.27390  0.13441  Biso   1.000  C
  C178     1.0000 0.24860  0.29050  0.10607  Biso   1.000  C
  H116     1.0000 0.23340  0.27160  0.08460  Biso   1.000  H
  C179     1.0000 0.78479  0.24010  0.85992  Biso   1.000  C
  C180     1.0000 0.37170  0.40530  0.13898  Biso   1.000  C
  C181     1.0000 0.94532  0.30440  0.10292  Biso   1.000  C
  H117     1.0000 0.96170  0.29570  0.08170  Biso   1.000  H
  C182     1.0000 0.32012  0.36070  0.13852  Biso   1.000  C
  C183     1.0000 0.03115  0.14720  0.02621  Biso   1.000  C
  H118     1.0000 0.00790  0.18210  0.03510  Biso   1.000  H
  C184     1.0000 0.65990  0.34210  0.88288  Biso   1.000  C
  H119     1.0000 0.64390  0.35560  0.90360  Biso   1.000  H
  C185     1.0000 0.94363  0.28850  0.16605  Biso   1.000  C
  H120     1.0000 0.95920  0.26970  0.18740  Biso   1.000  H
  C186     1.0000 0.89840  0.34750  0.10265  Biso   1.000  C
  H121     1.0000 0.88360  0.36790  0.08140  Biso   1.000  H
  C187     1.0000 0.64088  0.34120  0.75431  Biso   1.000  C
  H122     1.0000 0.67010  0.31100  0.74910  Biso   1.000  H
  C188     1.0000 0.70806  0.29870  0.82157  Biso   1.000  C
  H123     1.0000 0.72380  0.28440  0.80080  Biso   1.000  H
  C189     1.0000 0.73300  0.28110  0.85455  Biso   1.000  C
  C190     1.0000 0.45918  0.44570  0.16917  Biso   1.000  C
  H124     1.0000 0.48490  0.44460  0.18890  Biso   1.000  H
  C191     1.0000 0.29640  0.33190  0.10650  Biso   1.000  C
  H125     1.0000 0.31290  0.34070  0.08540  Biso   1.000  H
  C192     1.0000 0.95760  0.20430  0.96614  Biso   1.000  C
  H126     1.0000 0.96920  0.23830  0.98330  Biso   1.000  H
  C193     1.0000 0.91640  0.22110  0.94000  Biso   1.000  C
  H127     1.0000 0.89910  0.26610  0.94020  Biso   1.000  H
  C194     1.0000 0.63630  0.35970  0.85104  Biso   1.000  C
  H128     1.0000 0.60380  0.38710  0.84940  Biso   1.000  H
  C195     1.0000 0.41127  0.40380  0.16874  Biso   1.000  C
  H129     1.0000 0.40510  0.37450  0.18820  Biso   1.000  H
  C196     1.0000 0.89667  0.33020  0.16598  Biso   1.000  C
  H130     1.0000 0.88040  0.33830  0.18730  Biso   1.000  H
  C197     1.0000 0.29370  0.34770  0.16964  Biso   1.000  C
  H131     1.0000 0.30850  0.36700  0.19110  Biso   1.000  H
  C198     1.0000 0.70670  0.30490  0.88420  Biso   1.000  C
  H132     1.0000 0.72350  0.29360  0.90660  Biso   1.000  H
  C199     1.0000 0.24580  0.30640  0.16913  Biso   1.000  C
  H133     1.0000 0.22870  0.29830  0.19010  Biso   1.000  H
  C200     1.0000 0.58840  0.43290  0.74770  Biso   1.000  C
  H134     1.0000 0.56830  0.47080  0.73670  Biso   1.000  H
  C201     1.0000 0.60450  0.42950  0.78290  Biso   1.000  C
  H135     1.0000 0.59990  0.46420  0.80040  Biso   1.000  H
  C202     1.0000 0.89060  0.12770  0.83187  Biso   1.000  C
  H136     1.0000 0.87760  0.07860  0.83040  Biso   1.000  H
  H137     1.0000 0.89190  0.14720  0.80830  Biso   1.000  H
  H138     1.0000 0.92730  0.12880  0.84380  Biso   1.000  H
  C203     1.0000 0.55610  0.37460  0.74740  Biso   1.000  C
  H139     1.0000 0.52110  0.38340  0.73610  Biso   1.000  H
  C204     1.0000 0.56690  0.36470  0.78240  Biso   1.000  C
  H140     1.0000 0.54180  0.36200  0.80000  Biso   1.000  H
  Zn9      1.0000 0.39869  0.36800  0.82373  Biso   1.000  Zn
  Zn10     1.0000 0.40829  0.36853  0.90264  Biso   1.000  Zn
  O33      1.0000 0.85261  0.95090  0.89419  Biso   1.000  O
  O34      1.0000 0.34348  0.29990  0.89266  Biso   1.000  O
  O35      1.0000 0.46156  0.28528  0.89539  Biso   1.000  O
  O36      1.0000 0.97024  0.93558  0.88872  Biso   1.000  O
  O37      1.0000 0.83466  0.93270  0.83562  Biso   1.000  O
  O38      1.0000 0.46577  0.30402  0.83638  Biso   1.000  O
  O39      1.0000 0.95226  0.95463  0.83003  Biso   1.000  O
  O40      1.0000 0.34753  0.28318  0.83371  Biso   1.000  O
  N29      1.0000 0.89320  0.13054  0.27019  Biso   1.000  N
  N30      1.0000 0.47581  0.38115  0.00680  Biso   1.000  N
  N31      1.0000 0.42484  0.38053  0.95546  Biso   1.000  N
  N32      1.0000 0.64729  0.32880  0.14806  Biso   1.000  N
  N33      1.0000 0.69330  0.29850  0.16508  Biso   1.000  N
  N34      1.0000 0.68602  0.26420  0.10760  Biso   1.000  N
  C205     1.0000 0.06966  0.00910  0.88917  Biso   1.000  C
  H141     1.0000 0.06300  0.98000  0.90860  Biso   1.000  H
  C206     1.0000 0.77455  0.00880  0.86525  Biso   1.000  C
  C207     1.0000 0.98067  0.96297  0.85961  Biso   1.000  C
  N35      1.0000 0.86915  0.14120  0.21306  Biso   1.000  N
  C208     1.0000 0.03137  0.01090  0.85977  Biso   1.000  C
  C209     1.0000 0.76428  0.04870  0.89473  Biso   1.000  C
  H142     1.0000 0.78930  0.04710  0.91480  Biso   1.000  H
  C210     1.0000 0.82469  0.96057  0.86506  Biso   1.000  C
  C211     1.0000 0.73724  0.01190  0.83524  Biso   1.000  C
  H143     1.0000 0.74440  0.98540  0.81500  Biso   1.000  H
  C212     1.0000 0.67831  0.09480  0.86551  Biso   1.000  C
  C213     1.0000 0.32702  0.27240  0.86315  Biso   1.000  C
  C214     1.0000 0.51882  0.36320  0.03362  Biso   1.000  C
  C215     1.0000 0.48237  0.27500  0.86569  Biso   1.000  C
  C216     1.0000 0.64416  0.30700  0.11369  Biso   1.000  C
  C217     1.0000 0.43398  0.43080  0.00948  Biso   1.000  C
  H144     1.0000 0.42800  0.45940  0.02920  Biso   1.000  H
  C218     1.0000 0.68969  0.05370  0.83515  Biso   1.000  C
  H145     1.0000 0.66500  0.05490  0.81500  Biso   1.000  H
  C219     1.0000 0.40309  0.43010  0.97781  Biso   1.000  C
  H146     1.0000 0.37200  0.45880  0.97210  Biso   1.000  H
  C220     1.0000 0.84020  0.16230  0.18006  Biso   1.000  C
  C221     1.0000 0.27702  0.22330  0.86297  Biso   1.000  C
  C222     1.0000 0.53543  0.41440  0.05915  Biso   1.000  C
  H147     1.0000 0.51960  0.46040  0.05860  Biso   1.000  H
  C223     1.0000 0.59977  0.32900  0.08682  Biso   1.000  C
  C224     1.0000 0.62710  0.13940  0.86530  Biso   1.000  C
  C225     1.0000 0.57622  0.39560  0.08567  Biso   1.000  C
  H148     1.0000 0.58760  0.42950  0.10300  Biso   1.000  H
  C226     1.0000 0.71668  0.09150  0.89495  Biso   1.000  C
  H149     1.0000 0.71050  0.11850  0.91520  Biso   1.000  H
  C227     1.0000 0.11817  0.05060  0.88987  Biso   1.000  C
  H150     1.0000 0.14370  0.04890  0.90960  Biso   1.000  H
  C228     1.0000 0.53151  0.22610  0.86559  Biso   1.000  C
  C229     1.0000 0.25140  0.20950  0.89393  Biso   1.000  C
  H151     1.0000 0.26660  0.22840  0.91540  Biso   1.000  H
  C230     1.0000 0.71521  0.25990  0.14008  Biso   1.000  C
  C231     1.0000 0.12830  0.09470  0.86102  Biso   1.000  C
  C232     1.0000 0.55468  0.19560  0.89708  Biso   1.000  C
  H152     1.0000 0.53830  0.20430  0.91830  Biso   1.000  H
  C233     1.0000 0.17988  0.13930  0.86148  Biso   1.000  C
  C234     1.0000 0.46885  0.35280  0.97379  Biso   1.000  C
  H153     1.0000 0.49210  0.31790  0.96490  Biso   1.000  H
  C235     1.0000 0.84010  0.15790  0.11712  Biso   1.000  C
  H154     1.0000 0.85610  0.14440  0.09640  Biso   1.000  H
  C236     1.0000 0.55637  0.21150  0.83395  Biso   1.000  C
  H155     1.0000 0.54080  0.23030  0.81260  Biso   1.000  H
  C237     1.0000 0.60160  0.15250  0.89735  Biso   1.000  C
  H156     1.0000 0.61640  0.13210  0.91860  Biso   1.000  H
  C238     1.0000 0.85912  0.15880  0.24569  Biso   1.000  C
  H157     1.0000 0.82990  0.18900  0.25090  Biso   1.000  H
  C239     1.0000 0.79194  0.20130  0.17843  Biso   1.000  C
  H158     1.0000 0.77620  0.21560  0.19920  Biso   1.000  H
  C240     1.0000 0.76700  0.21890  0.14545  Biso   1.000  C
  C241     1.0000 0.04082  0.05430  0.83083  Biso   1.000  C
  H159     1.0000 0.01510  0.05540  0.81110  Biso   1.000  H
  C242     1.0000 0.20360  0.16810  0.89350  Biso   1.000  C
  H160     1.0000 0.18710  0.15930  0.91460  Biso   1.000  H
  C243     1.0000 0.54240  0.29570  0.03386  Biso   1.000  C
  H161     1.0000 0.53080  0.26170  0.01670  Biso   1.000  H
  C244     1.0000 0.58360  0.27890  0.06000  Biso   1.000  C
  H162     1.0000 0.60090  0.23390  0.05980  Biso   1.000  H
  C245     1.0000 0.86370  0.14030  0.14896  Biso   1.000  C
  H163     1.0000 0.89620  0.11290  0.15060  Biso   1.000  H
  C246     1.0000 0.08873  0.09620  0.83126  Biso   1.000  C
  H164     1.0000 0.09490  0.12550  0.81180  Biso   1.000  H
  C247     1.0000 0.60333  0.16980  0.83402  Biso   1.000  C
  H165     1.0000 0.61960  0.16170  0.81270  Biso   1.000  H
  C248     1.0000 0.20630  0.15230  0.83036  Biso   1.000  C
  H166     1.0000 0.19150  0.13300  0.80890  Biso   1.000  H
  C249     1.0000 0.79330  0.19510  0.11580  Biso   1.000  C
  H167     1.0000 0.77650  0.20640  0.09340  Biso   1.000  H
  C250     1.0000 0.25420  0.19360  0.83087  Biso   1.000  C
  H168     1.0000 0.27130  0.20170  0.80990  Biso   1.000  H
  C251     1.0000 0.91160  0.06710  0.25230  Biso   1.000  C
  H169     1.0000 0.93170  0.02920  0.26330  Biso   1.000  H
  C252     1.0000 0.89550  0.07050  0.21710  Biso   1.000  C
  H170     1.0000 0.90010  0.03580  0.19960  Biso   1.000  H
  C253     1.0000 0.60940  0.37230  0.16813  Biso   1.000  C
  H171     1.0000 0.62240  0.42140  0.16960  Biso   1.000  H
  H172     1.0000 0.60810  0.35280  0.19170  Biso   1.000  H
  H173     1.0000 0.57270  0.37120  0.15620  Biso   1.000  H
  C254     1.0000 0.94390  0.12540  0.25260  Biso   1.000  C
  H174     1.0000 0.97890  0.11660  0.26390  Biso   1.000  H
  C255     1.0000 0.93310  0.13530  0.21760  Biso   1.000  C
  H175     1.0000 0.95820  0.13800  0.20000  Biso   1.000  H
  Zn11     1.0000 0.89869  0.86800  0.82373  Biso   1.000  Zn
  Zn12     1.0000 0.90829  0.86853  0.90264  Biso   1.000  Zn
  O41      1.0000 0.35261  0.45090  0.89419  Biso   1.000  O
  O42      1.0000 0.84348  0.79990  0.89266  Biso   1.000  O
  O43      1.0000 0.96156  0.78528  0.89539  Biso   1.000  O
  O44      1.0000 0.47024  0.43558  0.88872  Biso   1.000  O
  O45      1.0000 0.33466  0.43270  0.83562  Biso   1.000  O
  O46      1.0000 0.96577  0.80402  0.83638  Biso   1.000  O
  O47      1.0000 0.45226  0.45463  0.83003  Biso   1.000  O
  O48      1.0000 0.84753  0.78318  0.83371  Biso   1.000  O
  N36      1.0000 0.39320  0.63054  0.27019  Biso   1.000  N
  N37      1.0000 0.97581  0.88115  0.00680  Biso   1.000  N
  N38      1.0000 0.92484  0.88053  0.95546  Biso   1.000  N
  N39      1.0000 0.14729  0.82880  0.14806  Biso   1.000  N
  N40      1.0000 0.19330  0.79850  0.16508  Biso   1.000  N
  N41      1.0000 0.18602  0.76420  0.10760  Biso   1.000  N
  C256     1.0000 0.56966  0.50910  0.88917  Biso   1.000  C
  H176     1.0000 0.56300  0.48000  0.90860  Biso   1.000  H
  C257     1.0000 0.27455  0.50880  0.86525  Biso   1.000  C
  C258     1.0000 0.48067  0.46297  0.85961  Biso   1.000  C
  N42      1.0000 0.36915  0.64120  0.21306  Biso   1.000  N
  C259     1.0000 0.53137  0.51090  0.85977  Biso   1.000  C
  C260     1.0000 0.26428  0.54870  0.89473  Biso   1.000  C
  H177     1.0000 0.28930  0.54710  0.91480  Biso   1.000  H
  C261     1.0000 0.32469  0.46057  0.86506  Biso   1.000  C
  C262     1.0000 0.23724  0.51190  0.83524  Biso   1.000  C
  H178     1.0000 0.24440  0.48540  0.81500  Biso   1.000  H
  C263     1.0000 0.17831  0.59480  0.86551  Biso   1.000  C
  C264     1.0000 0.82702  0.77240  0.86315  Biso   1.000  C
  C265     1.0000 0.01882  0.86320  0.03362  Biso   1.000  C
  C266     1.0000 0.98237  0.77500  0.86569  Biso   1.000  C
  C267     1.0000 0.14416  0.80700  0.11369  Biso   1.000  C
  C268     1.0000 0.93398  0.93080  0.00948  Biso   1.000  C
  H179     1.0000 0.92800  0.95940  0.02920  Biso   1.000  H
  C269     1.0000 0.18969  0.55370  0.83515  Biso   1.000  C
  H180     1.0000 0.16500  0.55490  0.81500  Biso   1.000  H
  C270     1.0000 0.90309  0.93010  0.97781  Biso   1.000  C
  H181     1.0000 0.87200  0.95880  0.97210  Biso   1.000  H
  C271     1.0000 0.34020  0.66230  0.18006  Biso   1.000  C
  C272     1.0000 0.77702  0.72330  0.86297  Biso   1.000  C
  C273     1.0000 0.03543  0.91440  0.05915  Biso   1.000  C
  H182     1.0000 0.01960  0.96040  0.05860  Biso   1.000  H
  C274     1.0000 0.09977  0.82900  0.08682  Biso   1.000  C
  C275     1.0000 0.12710  0.63940  0.86530  Biso   1.000  C
  C276     1.0000 0.07622  0.89560  0.08567  Biso   1.000  C
  H183     1.0000 0.08760  0.92950  0.10300  Biso   1.000  H
  C277     1.0000 0.21668  0.59150  0.89495  Biso   1.000  C
  H184     1.0000 0.21050  0.61850  0.91520  Biso   1.000  H
  C278     1.0000 0.61817  0.55060  0.88987  Biso   1.000  C
  H185     1.0000 0.64370  0.54890  0.90960  Biso   1.000  H
  C279     1.0000 0.03151  0.72610  0.86559  Biso   1.000  C
  C280     1.0000 0.75140  0.70950  0.89393  Biso   1.000  C
  H186     1.0000 0.76660  0.72840  0.91540  Biso   1.000  H
  C281     1.0000 0.21521  0.75990  0.14008  Biso   1.000  C
  C282     1.0000 0.62830  0.59470  0.86102  Biso   1.000  C
  C283     1.0000 0.05468  0.69560  0.89708  Biso   1.000  C
  H187     1.0000 0.03830  0.70430  0.91830  Biso   1.000  H
  C284     1.0000 0.67988  0.63930  0.86148  Biso   1.000  C
  C285     1.0000 0.96885  0.85280  0.97379  Biso   1.000  C
  H188     1.0000 0.99210  0.81790  0.96490  Biso   1.000  H
  C286     1.0000 0.34010  0.65790  0.11712  Biso   1.000  C
  H189     1.0000 0.35610  0.64440  0.09640  Biso   1.000  H
  C287     1.0000 0.05637  0.71150  0.83395  Biso   1.000  C
  H190     1.0000 0.04080  0.73030  0.81260  Biso   1.000  H
  C288     1.0000 0.10160  0.65250  0.89735  Biso   1.000  C
  H191     1.0000 0.11640  0.63210  0.91860  Biso   1.000  H
  C289     1.0000 0.35912  0.65880  0.24569  Biso   1.000  C
  H192     1.0000 0.32990  0.68900  0.25090  Biso   1.000  H
  C290     1.0000 0.29194  0.70130  0.17843  Biso   1.000  C
  H193     1.0000 0.27620  0.71560  0.19920  Biso   1.000  H
  C291     1.0000 0.26700  0.71890  0.14545  Biso   1.000  C
  C292     1.0000 0.54082  0.55430  0.83083  Biso   1.000  C
  H194     1.0000 0.51510  0.55540  0.81110  Biso   1.000  H
  C293     1.0000 0.70360  0.66810  0.89350  Biso   1.000  C
  H195     1.0000 0.68710  0.65930  0.91460  Biso   1.000  H
  C294     1.0000 0.04240  0.79570  0.03386  Biso   1.000  C
  H196     1.0000 0.03080  0.76170  0.01670  Biso   1.000  H
  C295     1.0000 0.08360  0.77890  0.06000  Biso   1.000  C
  H197     1.0000 0.10090  0.73390  0.05980  Biso   1.000  H
  C296     1.0000 0.36370  0.64030  0.14896  Biso   1.000  C
  H198     1.0000 0.39620  0.61290  0.15060  Biso   1.000  H
  C297     1.0000 0.58873  0.59620  0.83126  Biso   1.000  C
  H199     1.0000 0.59490  0.62550  0.81180  Biso   1.000  H
  C298     1.0000 0.10333  0.66980  0.83402  Biso   1.000  C
  H200     1.0000 0.11960  0.66170  0.81270  Biso   1.000  H
  C299     1.0000 0.70630  0.65230  0.83036  Biso   1.000  C
  H201     1.0000 0.69150  0.63300  0.80890  Biso   1.000  H
  C300     1.0000 0.29330  0.69510  0.11580  Biso   1.000  C
  H202     1.0000 0.27650  0.70640  0.09340  Biso   1.000  H
  C301     1.0000 0.75420  0.69360  0.83087  Biso   1.000  C
  H203     1.0000 0.77130  0.70170  0.80990  Biso   1.000  H
  C302     1.0000 0.41160  0.56710  0.25230  Biso   1.000  C
  H204     1.0000 0.43170  0.52920  0.26330  Biso   1.000  H
  C303     1.0000 0.39550  0.57050  0.21710  Biso   1.000  C
  H205     1.0000 0.40010  0.53580  0.19960  Biso   1.000  H
  C304     1.0000 0.10940  0.87230  0.16813  Biso   1.000  C
  H206     1.0000 0.12240  0.92140  0.16960  Biso   1.000  H
  H207     1.0000 0.10810  0.85280  0.19170  Biso   1.000  H
  H208     1.0000 0.07270  0.87120  0.15620  Biso   1.000  H
  C305     1.0000 0.44390  0.62540  0.25260  Biso   1.000  C
  H209     1.0000 0.47890  0.61660  0.26390  Biso   1.000  H
  C306     1.0000 0.43310  0.63530  0.21760  Biso   1.000  C
  H210     1.0000 0.45820  0.63800  0.20000  Biso   1.000  H
  Zn13     1.0000 0.39869  0.63200  0.32373  Biso   1.000  Zn
  Zn14     1.0000 0.40829  0.63147  0.40264  Biso   1.000  Zn
  O49      1.0000 0.85261  0.04910  0.39419  Biso   1.000  O
  O50      1.0000 0.34348  0.70010  0.39266  Biso   1.000  O
  O51      1.0000 0.46156  0.71472  0.39539  Biso   1.000  O
  O52      1.0000 0.97024  0.06442  0.38872  Biso   1.000  O
  O53      1.0000 0.83466  0.06730  0.33562  Biso   1.000  O
  O54      1.0000 0.46577  0.69598  0.33638  Biso   1.000  O
  O55      1.0000 0.95226  0.04537  0.33003  Biso   1.000  O
  O56      1.0000 0.34753  0.71682  0.33371  Biso   1.000  O
  N43      1.0000 0.89320  0.86946  0.77019  Biso   1.000  N
  N44      1.0000 0.47581  0.61885  0.50680  Biso   1.000  N
  N45      1.0000 0.42484  0.61947  0.45546  Biso   1.000  N
  N46      1.0000 0.64729  0.67120  0.64806  Biso   1.000  N
  N47      1.0000 0.69330  0.70150  0.66508  Biso   1.000  N
  N48      1.0000 0.68602  0.73580  0.60760  Biso   1.000  N
  C307     1.0000 0.06966  0.99090  0.38917  Biso   1.000  C
  H211     1.0000 0.06300  0.02000  0.40860  Biso   1.000  H
  C308     1.0000 0.77455  0.99120  0.36525  Biso   1.000  C
  C309     1.0000 0.98067  0.03703  0.35961  Biso   1.000  C
  N49      1.0000 0.86915  0.85880  0.71306  Biso   1.000  N
  C310     1.0000 0.03137  0.98910  0.35977  Biso   1.000  C
  C311     1.0000 0.76428  0.95130  0.39473  Biso   1.000  C
  H212     1.0000 0.78930  0.95290  0.41480  Biso   1.000  H
  C312     1.0000 0.82469  0.03943  0.36506  Biso   1.000  C
  C313     1.0000 0.73724  0.98810  0.33524  Biso   1.000  C
  H213     1.0000 0.74440  0.01460  0.31500  Biso   1.000  H
  C314     1.0000 0.67831  0.90520  0.36551  Biso   1.000  C
  C315     1.0000 0.32702  0.72760  0.36315  Biso   1.000  C
  C316     1.0000 0.51882  0.63680  0.53362  Biso   1.000  C
  C317     1.0000 0.48237  0.72500  0.36569  Biso   1.000  C
  C318     1.0000 0.64416  0.69300  0.61369  Biso   1.000  C
  C319     1.0000 0.43398  0.56920  0.50948  Biso   1.000  C
  H214     1.0000 0.42800  0.54060  0.52920  Biso   1.000  H
  C320     1.0000 0.68969  0.94630  0.33515  Biso   1.000  C
  H215     1.0000 0.66500  0.94510  0.31500  Biso   1.000  H
  C321     1.0000 0.40309  0.56990  0.47781  Biso   1.000  C
  H216     1.0000 0.37200  0.54120  0.47210  Biso   1.000  H
  C322     1.0000 0.84020  0.83770  0.68006  Biso   1.000  C
  C323     1.0000 0.27702  0.77670  0.36297  Biso   1.000  C
  C324     1.0000 0.53543  0.58560  0.55915  Biso   1.000  C
  H217     1.0000 0.51960  0.53960  0.55860  Biso   1.000  H
  C325     1.0000 0.59977  0.67100  0.58682  Biso   1.000  C
  C326     1.0000 0.62710  0.86060  0.36530  Biso   1.000  C
  C327     1.0000 0.57622  0.60440  0.58567  Biso   1.000  C
  H218     1.0000 0.58760  0.57050  0.60300  Biso   1.000  H
  C328     1.0000 0.71668  0.90850  0.39495  Biso   1.000  C
  H219     1.0000 0.71050  0.88150  0.41520  Biso   1.000  H
  C329     1.0000 0.11817  0.94940  0.38987  Biso   1.000  C
  H220     1.0000 0.14370  0.95110  0.40960  Biso   1.000  H
  C330     1.0000 0.53151  0.77390  0.36559  Biso   1.000  C
  C331     1.0000 0.25140  0.79050  0.39393  Biso   1.000  C
  H221     1.0000 0.26660  0.77160  0.41540  Biso   1.000  H
  C332     1.0000 0.71521  0.74010  0.64008  Biso   1.000  C
  C333     1.0000 0.12830  0.90530  0.36102  Biso   1.000  C
  C334     1.0000 0.55468  0.80440  0.39708  Biso   1.000  C
  H222     1.0000 0.53830  0.79570  0.41830  Biso   1.000  H
  C335     1.0000 0.17988  0.86070  0.36148  Biso   1.000  C
  C336     1.0000 0.46885  0.64720  0.47379  Biso   1.000  C
  H223     1.0000 0.49210  0.68210  0.46490  Biso   1.000  H
  C337     1.0000 0.84010  0.84210  0.61712  Biso   1.000  C
  H224     1.0000 0.85610  0.85560  0.59640  Biso   1.000  H
  C338     1.0000 0.55637  0.78850  0.33395  Biso   1.000  C
  H225     1.0000 0.54080  0.76970  0.31260  Biso   1.000  H
  C339     1.0000 0.60160  0.84750  0.39735  Biso   1.000  C
  H226     1.0000 0.61640  0.86790  0.41860  Biso   1.000  H
  C340     1.0000 0.85912  0.84120  0.74569  Biso   1.000  C
  H227     1.0000 0.82990  0.81100  0.75090  Biso   1.000  H
  C341     1.0000 0.79194  0.79870  0.67843  Biso   1.000  C
  H228     1.0000 0.77620  0.78440  0.69920  Biso   1.000  H
  C342     1.0000 0.76700  0.78110  0.64545  Biso   1.000  C
  C343     1.0000 0.04082  0.94570  0.33083  Biso   1.000  C
  H229     1.0000 0.01510  0.94460  0.31110  Biso   1.000  H
  C344     1.0000 0.20360  0.83190  0.39350  Biso   1.000  C
  H230     1.0000 0.18710  0.84070  0.41460  Biso   1.000  H
  C345     1.0000 0.54240  0.70430  0.53386  Biso   1.000  C
  H231     1.0000 0.53080  0.73830  0.51670  Biso   1.000  H
  C346     1.0000 0.58360  0.72110  0.56000  Biso   1.000  C
  H232     1.0000 0.60090  0.76610  0.55980  Biso   1.000  H
  C347     1.0000 0.86370  0.85970  0.64896  Biso   1.000  C
  H233     1.0000 0.89620  0.88710  0.65060  Biso   1.000  H
  C348     1.0000 0.08873  0.90380  0.33126  Biso   1.000  C
  H234     1.0000 0.09490  0.87450  0.31180  Biso   1.000  H
  C349     1.0000 0.60333  0.83020  0.33402  Biso   1.000  C
  H235     1.0000 0.61960  0.83830  0.31270  Biso   1.000  H
  C350     1.0000 0.20630  0.84770  0.33036  Biso   1.000  C
  H236     1.0000 0.19150  0.86700  0.30890  Biso   1.000  H
  C351     1.0000 0.79330  0.80490  0.61580  Biso   1.000  C
  H237     1.0000 0.77650  0.79360  0.59340  Biso   1.000  H
  C352     1.0000 0.25420  0.80640  0.33087  Biso   1.000  C
  H238     1.0000 0.27130  0.79830  0.30990  Biso   1.000  H
  C353     1.0000 0.91160  0.93290  0.75230  Biso   1.000  C
  H239     1.0000 0.93170  0.97080  0.76330  Biso   1.000  H
  C354     1.0000 0.89550  0.92950  0.71710  Biso   1.000  C
  H240     1.0000 0.90010  0.96420  0.69960  Biso   1.000  H
  C355     1.0000 0.60940  0.62770  0.66813  Biso   1.000  C
  H241     1.0000 0.62240  0.57860  0.66960  Biso   1.000  H
  H242     1.0000 0.60810  0.64720  0.69170  Biso   1.000  H
  H243     1.0000 0.57270  0.62880  0.65620  Biso   1.000  H
  C356     1.0000 0.94390  0.87460  0.75260  Biso   1.000  C
  H244     1.0000 0.97890  0.88340  0.76390  Biso   1.000  H
  C357     1.0000 0.93310  0.86470  0.71760  Biso   1.000  C
  H245     1.0000 0.95820  0.86200  0.70000  Biso   1.000  H
  Zn15     1.0000 0.89869  0.13200  0.32373  Biso   1.000  Zn
  Zn16     1.0000 0.90829  0.13147  0.40264  Biso   1.000  Zn
  O57      1.0000 0.35261  0.54910  0.39419  Biso   1.000  O
  O58      1.0000 0.84348  0.20010  0.39266  Biso   1.000  O
  O59      1.0000 0.96156  0.21472  0.39539  Biso   1.000  O
  O60      1.0000 0.47024  0.56442  0.38872  Biso   1.000  O
  O61      1.0000 0.33466  0.56730  0.33562  Biso   1.000  O
  O62      1.0000 0.96577  0.19598  0.33638  Biso   1.000  O
  O63      1.0000 0.45226  0.54537  0.33003  Biso   1.000  O
  O64      1.0000 0.84753  0.21682  0.33371  Biso   1.000  O
  N50      1.0000 0.39320  0.36946  0.77019  Biso   1.000  N
  N51      1.0000 0.97581  0.11885  0.50680  Biso   1.000  N
  N52      1.0000 0.92484  0.11947  0.45546  Biso   1.000  N
  N53      1.0000 0.14729  0.17120  0.64806  Biso   1.000  N
  N54      1.0000 0.19330  0.20150  0.66508  Biso   1.000  N
  N55      1.0000 0.18602  0.23580  0.60760  Biso   1.000  N
  C358     1.0000 0.56966  0.49090  0.38917  Biso   1.000  C
  H246     1.0000 0.56300  0.52000  0.40860  Biso   1.000  H
  C359     1.0000 0.27455  0.49120  0.36525  Biso   1.000  C
  C360     1.0000 0.48067  0.53703  0.35961  Biso   1.000  C
  N56      1.0000 0.36915  0.35880  0.71306  Biso   1.000  N
  C361     1.0000 0.53137  0.48910  0.35977  Biso   1.000  C
  C362     1.0000 0.26428  0.45130  0.39473  Biso   1.000  C
  H247     1.0000 0.28930  0.45290  0.41480  Biso   1.000  H
  C363     1.0000 0.32469  0.53943  0.36506  Biso   1.000  C
  C364     1.0000 0.23724  0.48810  0.33524  Biso   1.000  C
  H248     1.0000 0.24440  0.51460  0.31500  Biso   1.000  H
  C365     1.0000 0.17831  0.40520  0.36551  Biso   1.000  C
  C366     1.0000 0.82702  0.22760  0.36315  Biso   1.000  C
  C367     1.0000 0.01882  0.13680  0.53362  Biso   1.000  C
  C368     1.0000 0.98237  0.22500  0.36569  Biso   1.000  C
  C369     1.0000 0.14416  0.19300  0.61369  Biso   1.000  C
  C370     1.0000 0.93398  0.06920  0.50948  Biso   1.000  C
  H249     1.0000 0.92800  0.04060  0.52920  Biso   1.000  H
  C371     1.0000 0.18969  0.44630  0.33515  Biso   1.000  C
  H250     1.0000 0.16500  0.44510  0.31500  Biso   1.000  H
  C372     1.0000 0.90309  0.06990  0.47781  Biso   1.000  C
  H251     1.0000 0.87200  0.04120  0.47210  Biso   1.000  H
  C373     1.0000 0.34020  0.33770  0.68006  Biso   1.000  C
  C374     1.0000 0.77702  0.27670  0.36297  Biso   1.000  C
  C375     1.0000 0.03543  0.08560  0.55915  Biso   1.000  C
  H252     1.0000 0.01960  0.03960  0.55860  Biso   1.000  H
  C376     1.0000 0.09977  0.17100  0.58682  Biso   1.000  C
  C377     1.0000 0.12710  0.36060  0.36530  Biso   1.000  C
  C378     1.0000 0.07622  0.10440  0.58567  Biso   1.000  C
  H253     1.0000 0.08760  0.07050  0.60300  Biso   1.000  H
  C379     1.0000 0.21668  0.40850  0.39495  Biso   1.000  C
  H254     1.0000 0.21050  0.38150  0.41520  Biso   1.000  H
  C380     1.0000 0.61817  0.44940  0.38987  Biso   1.000  C
  H255     1.0000 0.64370  0.45110  0.40960  Biso   1.000  H
  C381     1.0000 0.03151  0.27390  0.36559  Biso   1.000  C
  C382     1.0000 0.75140  0.29050  0.39393  Biso   1.000  C
  H256     1.0000 0.76660  0.27160  0.41540  Biso   1.000  H
  C383     1.0000 0.21521  0.24010  0.64008  Biso   1.000  C
  C384     1.0000 0.62830  0.40530  0.36102  Biso   1.000  C
  C385     1.0000 0.05468  0.30440  0.39708  Biso   1.000  C
  H257     1.0000 0.03830  0.29570  0.41830  Biso   1.000  H
  C386     1.0000 0.67988  0.36070  0.36148  Biso   1.000  C
  C387     1.0000 0.96885  0.14720  0.47379  Biso   1.000  C
  H258     1.0000 0.99210  0.18210  0.46490  Biso   1.000  H
  C388     1.0000 0.34010  0.34210  0.61712  Biso   1.000  C
  H259     1.0000 0.35610  0.35560  0.59640  Biso   1.000  H
  C389     1.0000 0.05637  0.28850  0.33395  Biso   1.000  C
  H260     1.0000 0.04080  0.26970  0.31260  Biso   1.000  H
  C390     1.0000 0.10160  0.34750  0.39735  Biso   1.000  C
  H261     1.0000 0.11640  0.36790  0.41860  Biso   1.000  H
  C391     1.0000 0.35912  0.34120  0.74569  Biso   1.000  C
  H262     1.0000 0.32990  0.31100  0.75090  Biso   1.000  H
  C392     1.0000 0.29194  0.29870  0.67843  Biso   1.000  C
  H263     1.0000 0.27620  0.28440  0.69920  Biso   1.000  H
  C393     1.0000 0.26700  0.28110  0.64545  Biso   1.000  C
  C394     1.0000 0.54082  0.44570  0.33083  Biso   1.000  C
  H264     1.0000 0.51510  0.44460  0.31110  Biso   1.000  H
  C395     1.0000 0.70360  0.33190  0.39350  Biso   1.000  C
  H265     1.0000 0.68710  0.34070  0.41460  Biso   1.000  H
  C396     1.0000 0.04240  0.20430  0.53386  Biso   1.000  C
  H266     1.0000 0.03080  0.23830  0.51670  Biso   1.000  H
  C397     1.0000 0.08360  0.22110  0.56000  Biso   1.000  C
  H267     1.0000 0.10090  0.26610  0.55980  Biso   1.000  H
  C398     1.0000 0.36370  0.35970  0.64896  Biso   1.000  C
  H268     1.0000 0.39620  0.38710  0.65060  Biso   1.000  H
  C399     1.0000 0.58873  0.40380  0.33126  Biso   1.000  C
  H269     1.0000 0.59490  0.37450  0.31180  Biso   1.000  H
  C400     1.0000 0.10333  0.33020  0.33402  Biso   1.000  C
  H270     1.0000 0.11960  0.33830  0.31270  Biso   1.000  H
  C401     1.0000 0.70630  0.34770  0.33036  Biso   1.000  C
  H271     1.0000 0.69150  0.36700  0.30890  Biso   1.000  H
  C402     1.0000 0.29330  0.30490  0.61580  Biso   1.000  C
  H272     1.0000 0.27650  0.29360  0.59340  Biso   1.000  H
  C403     1.0000 0.75420  0.30640  0.33087  Biso   1.000  C
  H273     1.0000 0.77130  0.29830  0.30990  Biso   1.000  H
  C404     1.0000 0.41160  0.43290  0.75230  Biso   1.000  C
  H274     1.0000 0.43170  0.47080  0.76330  Biso   1.000  H
  C405     1.0000 0.39550  0.42950  0.71710  Biso   1.000  C
  H275     1.0000 0.40010  0.46420  0.69960  Biso   1.000  H
  C406     1.0000 0.10940  0.12770  0.66813  Biso   1.000  C
  H276     1.0000 0.12240  0.07860  0.66960  Biso   1.000  H
  H277     1.0000 0.10810  0.14720  0.69170  Biso   1.000  H
  H278     1.0000 0.07270  0.12880  0.65620  Biso   1.000  H
  C407     1.0000 0.44390  0.37460  0.75260  Biso   1.000  C
  H279     1.0000 0.47890  0.38340  0.76390  Biso   1.000  H
  C408     1.0000 0.43310  0.36470  0.71760  Biso   1.000  C
  H280     1.0000 0.45820  0.36200  0.70000  Biso   1.000  H
