data_image0
_cell_length_a       29.536
_cell_length_b       29.536
_cell_length_c       41.76
_cell_angle_alpha    90
_cell_angle_beta     90
_cell_angle_gamma    120

_symmetry_space_group_name_H-M    P 1
_symmetry_int_tables_number       1

loop_
  _symmetry_equiv_pos_as_xyz
  'x, y, z'

loop_
  _atom_site_label
  _atom_site_occupancy
  _atom_site_fract_x
  _atom_site_fract_y
  _atom_site_fract_z
  _atom_site_thermal_displace_type
  _atom_site_B_iso_or_equiv
  _atom_site_type_symbol
  Zn1      1.0000 0.37527  0.31007  0.98149  Biso   1.000  Zn
  Zn2      1.0000 0.37062  0.41599  0.98890  Biso   1.000  Zn
  Zn3      1.0000 0.26520  0.30169  0.97914  Biso   1.000  Zn
  Zn4      1.0000 0.32869  0.33011  0.04285  Biso   1.000  Zn
  Zn5      1.0000 0.93480  0.62473  0.64816  Biso   1.000  Zn
  Zn6      1.0000 0.04537  0.62938  0.65557  Biso   1.000  Zn
  Zn7      1.0000 0.03649  0.73480  0.64581  Biso   1.000  Zn
  Zn8      1.0000 0.00142  0.67131  0.70952  Biso   1.000  Zn
  Zn9      1.0000 0.68993  0.06520  0.31482  Biso   1.000  Zn
  Zn10     1.0000 0.58401  0.95463  0.32223  Biso   1.000  Zn
  Zn11     1.0000 0.69831  0.96351  0.31247  Biso   1.000  Zn
  Zn12     1.0000 0.66989  0.99858  0.37618  Biso   1.000  Zn
  H1       1.0000 0.46000  0.47030  0.90270  Biso   1.000  H
  H2       1.0000 0.52960  0.51380  0.86680  Biso   1.000  H
  H3       1.0000 0.59670  0.43330  0.90190  Biso   1.000  H
  H4       1.0000 0.52710  0.38980  0.93780  Biso   1.000  H
  H5       1.0000 0.71330  0.54100  0.73050  Biso   1.000  H
  H6       1.0000 0.78520  0.57010  0.69610  Biso   1.000  H
  H7       1.0000 0.87990  0.59660  0.77250  Biso   1.000  H
  H8       1.0000 0.80800  0.56750  0.80690  Biso   1.000  H
  H9       1.0000 0.18890  0.15640  0.92890  Biso   1.000  H
  H10      1.0000 0.15970  0.08820  0.89170  Biso   1.000  H
  H11      1.0000 0.30990  0.13070  0.87100  Biso   1.000  H
  H12      1.0000 0.33910  0.19880  0.90830  Biso   1.000  H
  H13      1.0000 0.07420  0.86350  0.80170  Biso   1.000  H
  H14      1.0000 0.03300  0.79340  0.76610  Biso   1.000  H
  H15      1.0000 0.13080  0.88300  0.69530  Biso   1.000  H
  H16      1.0000 0.17200  0.95310  0.73100  Biso   1.000  H
  H17      1.0000 0.04100  0.59010  0.77600  Biso   1.000  H
  H18      1.0000 0.07740  0.54700  0.80350  Biso   1.000  H
  H19      1.0000 0.20450  0.61520  0.74570  Biso   1.000  H
  H20      1.0000 0.16820  0.65830  0.71820  Biso   1.000  H
  H21      1.0000 0.16850  0.38370  0.86780  Biso   1.000  H
  H22      1.0000 0.19580  0.34620  0.90720  Biso   1.000  H
  H23      1.0000 0.32440  0.48720  0.92360  Biso   1.000  H
  H24      1.0000 0.29700  0.52480  0.88430  Biso   1.000  H
  H25      1.0000 0.47760  0.49200  0.01960  Biso   1.000  H
  H26      1.0000 0.50900  0.42350  0.09060  Biso   1.000  H
  H27      1.0000 0.48230  0.38820  0.05960  Biso   1.000  H
  H28      1.0000 0.44850  0.40240  0.08320  Biso   1.000  H
  H29      1.0000 0.55880  0.50430  0.08390  Biso   1.000  H
  H30      1.0000 0.53030  0.53540  0.07220  Biso   1.000  H
  H31      1.0000 0.56730  0.52640  0.04810  Biso   1.000  H
  H32      1.0000 0.36120  0.50690  0.97120  Biso   1.000  H
  H33      1.0000 0.47540  0.63440  0.01090  Biso   1.000  H
  H34      1.0000 0.49130  0.59410  0.99640  Biso   1.000  H
  H35      1.0000 0.45820  0.58030  0.02880  Biso   1.000  H
  H36      1.0000 0.41430  0.63970  0.98860  Biso   1.000  H
  H37      1.0000 0.35770  0.58890  0.99220  Biso   1.000  H
  H38      1.0000 0.38670  0.60300  0.95820  Biso   1.000  H
  H39      1.0000 0.01030  0.54000  0.56937  Biso   1.000  H
  H40      1.0000 0.98420  0.47040  0.53347  Biso   1.000  H
  H41      1.0000 0.83660  0.40330  0.56857  Biso   1.000  H
  H42      1.0000 0.86270  0.47290  0.60447  Biso   1.000  H
  H43      1.0000 0.82770  0.28670  0.39717  Biso   1.000  H
  H44      1.0000 0.78490  0.21480  0.36277  Biso   1.000  H
  H45      1.0000 0.71670  0.12010  0.43917  Biso   1.000  H
  H46      1.0000 0.75950  0.19200  0.47357  Biso   1.000  H
  H47      1.0000 0.96750  0.81110  0.59557  Biso   1.000  H
  H48      1.0000 0.92850  0.84030  0.55837  Biso   1.000  H
  H49      1.0000 0.82080  0.69010  0.53767  Biso   1.000  H
  H50      1.0000 0.85970  0.66090  0.57497  Biso   1.000  H
  H51      1.0000 0.78930  0.92580  0.46837  Biso   1.000  H
  H52      1.0000 0.76040  0.96700  0.43277  Biso   1.000  H
  H53      1.0000 0.75220  0.86920  0.36197  Biso   1.000  H
  H54      1.0000 0.78110  0.82800  0.39767  Biso   1.000  H
  H55      1.0000 0.54910  0.95900  0.44267  Biso   1.000  H
  H56      1.0000 0.46960  0.92260  0.47017  Biso   1.000  H
  H57      1.0000 0.41070  0.79550  0.41237  Biso   1.000  H
  H58      1.0000 0.49010  0.83180  0.38487  Biso   1.000  H
  H59      1.0000 0.21520  0.83150  0.53447  Biso   1.000  H
  H60      1.0000 0.15040  0.80420  0.57387  Biso   1.000  H
  H61      1.0000 0.16280  0.67560  0.59027  Biso   1.000  H
  H62      1.0000 0.22780  0.70300  0.55097  Biso   1.000  H
  H63      1.0000 0.01440  0.52240  0.68627  Biso   1.000  H
  H64      1.0000 0.91450  0.49100  0.75727  Biso   1.000  H
  H65      1.0000 0.90590  0.51770  0.72627  Biso   1.000  H
  H66      1.0000 0.95390  0.55150  0.74987  Biso   1.000  H
  H67      1.0000 0.94550  0.44120  0.75057  Biso   1.000  H
  H68      1.0000 0.00510  0.46970  0.73887  Biso   1.000  H
  H69      1.0000 0.95910  0.43270  0.71477  Biso   1.000  H
  H70      1.0000 0.14570  0.63880  0.63787  Biso   1.000  H
  H71      1.0000 0.15900  0.52460  0.67757  Biso   1.000  H
  H72      1.0000 0.10280  0.50870  0.66307  Biso   1.000  H
  H73      1.0000 0.12210  0.54180  0.69547  Biso   1.000  H
  H74      1.0000 0.22540  0.58570  0.65527  Biso   1.000  H
  H75      1.0000 0.23120  0.64230  0.65887  Biso   1.000  H
  H76      1.0000 0.21630  0.61330  0.62487  Biso   1.000  H
  H77      1.0000 0.52970  0.98970  0.23603  Biso   1.000  H
  H78      1.0000 0.48620  0.01580  0.20013  Biso   1.000  H
  H79      1.0000 0.56670  0.16340  0.23523  Biso   1.000  H
  H80      1.0000 0.61020  0.13730  0.27113  Biso   1.000  H
  H81      1.0000 0.45900  0.17230  0.06383  Biso   1.000  H
  H82      1.0000 0.42990  0.21510  0.02943  Biso   1.000  H
  H83      1.0000 0.40340  0.28330  0.10583  Biso   1.000  H
  H84      1.0000 0.43250  0.24050  0.14023  Biso   1.000  H
  H85      1.0000 0.84360  0.03250  0.26223  Biso   1.000  H
  H86      1.0000 0.91180  0.07150  0.22503  Biso   1.000  H
  H87      1.0000 0.86930  0.17920  0.20433  Biso   1.000  H
  H88      1.0000 0.80120  0.14030  0.24163  Biso   1.000  H
  H89      1.0000 0.13650  0.21070  0.13503  Biso   1.000  H
  H90      1.0000 0.20660  0.23960  0.09943  Biso   1.000  H
  H91      1.0000 0.11700  0.24780  0.02863  Biso   1.000  H
  H92      1.0000 0.04690  0.21890  0.06433  Biso   1.000  H
  H93      1.0000 0.40990  0.45090  0.10933  Biso   1.000  H
  H94      1.0000 0.45300  0.53040  0.13683  Biso   1.000  H
  H95      1.0000 0.38480  0.58930  0.07903  Biso   1.000  H
  H96      1.0000 0.34170  0.50990  0.05153  Biso   1.000  H
  H97      1.0000 0.61630  0.78480  0.20113  Biso   1.000  H
  H98      1.0000 0.65380  0.84960  0.24053  Biso   1.000  H
  H99      1.0000 0.51280  0.83720  0.25693  Biso   1.000  H
  H100     1.0000 0.47520  0.77220  0.21763  Biso   1.000  H
  H101     1.0000 0.50800  0.98560  0.35293  Biso   1.000  H
  H102     1.0000 0.57650  0.08550  0.42393  Biso   1.000  H
  H103     1.0000 0.61180  0.09410  0.39293  Biso   1.000  H
  H104     1.0000 0.59760  0.04610  0.41653  Biso   1.000  H
  H105     1.0000 0.49570  0.05450  0.41723  Biso   1.000  H
  H106     1.0000 0.46460  0.99490  0.40553  Biso   1.000  H
  H107     1.0000 0.47360  0.04090  0.38143  Biso   1.000  H
  H108     1.0000 0.49310  0.85430  0.30453  Biso   1.000  H
  H109     1.0000 0.36560  0.84100  0.34423  Biso   1.000  H
  H110     1.0000 0.40590  0.89720  0.32973  Biso   1.000  H
  H111     1.0000 0.41970  0.87790  0.36213  Biso   1.000  H
  H112     1.0000 0.36030  0.77460  0.32193  Biso   1.000  H
  H113     1.0000 0.41110  0.76880  0.32553  Biso   1.000  H
  H114     1.0000 0.39700  0.78370  0.29153  Biso   1.000  H
  C1       1.0000 0.44180  0.39640  0.94640  Biso   1.000  C
  C2       1.0000 0.48710  0.42610  0.92360  Biso   1.000  C
  C3       1.0000 0.48780  0.46280  0.90260  Biso   1.000  C
  C4       1.0000 0.52910  0.48860  0.88120  Biso   1.000  C
  C5       1.0000 0.56970  0.47760  0.88100  Biso   1.000  C
  C6       1.0000 0.56890  0.44070  0.90200  Biso   1.000  C
  C7       1.0000 0.52760  0.41500  0.92340  Biso   1.000  C
  C8       1.0000 0.60750  0.49830  0.85540  Biso   1.000  C
  C9       1.0000 0.64240  0.51070  0.83710  Biso   1.000  C
  C10      1.0000 0.67580  0.52470  0.81130  Biso   1.000  C
  C11      1.0000 0.70990  0.53800  0.79230  Biso   1.000  C
  C12      1.0000 0.75390  0.55160  0.77191  Biso   1.000  C
  C13      1.0000 0.74710  0.55230  0.73901  Biso   1.000  C
  C14      1.0000 0.78980  0.56960  0.71861  Biso   1.000  C
  C15      1.0000 0.83930  0.58610  0.73110  Biso   1.000  C
  C16      1.0000 0.84610  0.58540  0.76400  Biso   1.000  C
  C17      1.0000 0.80340  0.56810  0.78440  Biso   1.000  C
  C18      1.0000 0.88570  0.60890  0.70940  Biso   1.000  C
  C19      1.0000 0.28530  0.22870  0.94440  Biso   1.000  C
  C20      1.0000 0.26670  0.18400  0.92208  Biso   1.000  C
  C21      1.0000 0.21350  0.15120  0.91720  Biso   1.000  C
  C22      1.0000 0.19610  0.11060  0.89500  Biso   1.000  C
  C23      1.0000 0.23210  0.10310  0.87786  Biso   1.000  C
  C24      1.0000 0.28530  0.13580  0.88280  Biso   1.000  C
  C25      1.0000 0.30270  0.17640  0.90490  Biso   1.000  C
  C26      1.0000 0.21440  0.06070  0.85510  Biso   1.000  C
  C27      1.0000 0.19570  0.02710  0.83550  Biso   1.000  C
  C28      1.0000 0.17490  0.99010  0.81290  Biso   1.000  C
  C29      1.0000 0.15600  0.95590  0.79290  Biso   1.000  C
  C30      1.0000 0.12700  0.91490  0.76974  Biso   1.000  C
  C31      1.0000 0.08570  0.86750  0.78014  Biso   1.000  C
  C32      1.0000 0.06120  0.82580  0.75895  Biso   1.000  C
  C33      1.0000 0.07800  0.83160  0.72734  Biso   1.000  C
  C34      1.0000 0.11930  0.87900  0.71694  Biso   1.000  C
  C35      1.0000 0.14380  0.92070  0.73814  Biso   1.000  C
  C36      1.0000 0.05170  0.78540  0.70630  Biso   1.000  C
  C37      1.0000 0.07860  0.65570  0.72570  Biso   1.000  C
  C38      1.0000 0.10120  0.62830  0.74450  Biso   1.000  C
  C39      1.0000 0.07420  0.59520  0.76980  Biso   1.000  C
  C40      1.0000 0.09580  0.56960  0.78620  Biso   1.000  C
  C41      1.0000 0.14440  0.57700  0.77720  Biso   1.000  C
  C42      1.0000 0.17130  0.61010  0.75190  Biso   1.000  C
  C43      1.0000 0.14970  0.63570  0.73545  Biso   1.000  C
  C44      1.0000 0.16280  0.54870  0.79600  Biso   1.000  C
  C45      1.0000 0.18230  0.52780  0.81070  Biso   1.000  C
  C46      1.0000 0.19960  0.49950  0.82690  Biso   1.000  C
  C47      1.0000 0.21420  0.48160  0.84790  Biso   1.000  C
  C48      1.0000 0.23020  0.45780  0.87240  Biso   1.000  C
  C49      1.0000 0.20010  0.40470  0.87920  Biso   1.000  C
  C50      1.0000 0.21640  0.38240  0.90250  Biso   1.000  C
  C51      1.0000 0.26270  0.41320  0.91904  Biso   1.000  C
  C52      1.0000 0.29270  0.46620  0.91230  Biso   1.000  C
  C53      1.0000 0.27650  0.48850  0.88890  Biso   1.000  C
  C54      1.0000 0.27720  0.38880  0.94520  Biso   1.000  C
  C55      1.0000 0.46800  0.46030  0.03070  Biso   1.000  C
  C56      1.0000 0.48310  0.41520  0.07360  Biso   1.000  C
  C57      1.0000 0.54210  0.51110  0.06570  Biso   1.000  C
  C58      1.0000 0.39340  0.52230  0.98250  Biso   1.000  C
  C59      1.0000 0.46410  0.59730  0.00790  Biso   1.000  C
  C60      1.0000 0.39170  0.60360  0.98140  Biso   1.000  C
  C61      1.0000 0.95460  0.55820  0.61307  Biso   1.000  C
  C62      1.0000 0.93900  0.51290  0.59027  Biso   1.000  C
  C63      1.0000 0.97500  0.51220  0.56927  Biso   1.000  C
  C64      1.0000 0.95950  0.47090  0.54787  Biso   1.000  C
  C65      1.0000 0.90790  0.43030  0.54767  Biso   1.000  C
  C66      1.0000 0.87180  0.43110  0.56867  Biso   1.000  C
  C67      1.0000 0.88740  0.47240  0.59007  Biso   1.000  C
  C68      1.0000 0.89080  0.39250  0.52207  Biso   1.000  C
  C69      1.0000 0.86830  0.35760  0.50377  Biso   1.000  C
  C70      1.0000 0.84890  0.32420  0.47797  Biso   1.000  C
  C71      1.0000 0.82810  0.29010  0.45897  Biso   1.000  C
  C72      1.0000 0.79770  0.24610  0.43858  Biso   1.000  C
  C73      1.0000 0.80520  0.25290  0.40568  Biso   1.000  C
  C74      1.0000 0.77980  0.21020  0.38528  Biso   1.000  C
  C75      1.0000 0.74680  0.16070  0.39777  Biso   1.000  C
  C76      1.0000 0.73930  0.15390  0.43067  Biso   1.000  C
  C77      1.0000 0.76470  0.19660  0.45107  Biso   1.000  C
  C78      1.0000 0.72320  0.11430  0.37607  Biso   1.000  C
  C79      1.0000 0.94340  0.71470  0.61107  Biso   1.000  C
  C80      1.0000 0.91730  0.73330  0.58875  Biso   1.000  C
  C81      1.0000 0.93770  0.78650  0.58387  Biso   1.000  C
  C82      1.0000 0.91450  0.80390  0.56167  Biso   1.000  C
  C83      1.0000 0.87100  0.76790  0.54453  Biso   1.000  C
  C84      1.0000 0.85050  0.71470  0.54947  Biso   1.000  C
  C85      1.0000 0.87370  0.69730  0.57157  Biso   1.000  C
  C86      1.0000 0.84630  0.78560  0.52177  Biso   1.000  C
  C87      1.0000 0.83140  0.80430  0.50217  Biso   1.000  C
  C88      1.0000 0.81520  0.82510  0.47957  Biso   1.000  C
  C89      1.0000 0.79990  0.84400  0.45957  Biso   1.000  C
  C90      1.0000 0.78790  0.87300  0.43641  Biso   1.000  C
  C91      1.0000 0.78180  0.91430  0.44681  Biso   1.000  C
  C92      1.0000 0.76460  0.93880  0.42562  Biso   1.000  C
  C93      1.0000 0.75360  0.92200  0.39401  Biso   1.000  C
  C94      1.0000 0.75970  0.88070  0.38361  Biso   1.000  C
  C95      1.0000 0.77690  0.85620  0.40481  Biso   1.000  C
  C96      1.0000 0.73370  0.94830  0.37297  Biso   1.000  C
  C97      1.0000 0.57710  0.92140  0.39237  Biso   1.000  C
  C98      1.0000 0.52710  0.89880  0.41117  Biso   1.000  C
  C99      1.0000 0.52100  0.92580  0.43647  Biso   1.000  C
  C100     1.0000 0.47380  0.90420  0.45287  Biso   1.000  C
  C101     1.0000 0.43260  0.85560  0.44387  Biso   1.000  C
  C102     1.0000 0.43880  0.82870  0.41857  Biso   1.000  C
  C103     1.0000 0.48600  0.85030  0.40212  Biso   1.000  C
  C104     1.0000 0.38590  0.83720  0.46267  Biso   1.000  C
  C105     1.0000 0.34550  0.81770  0.47737  Biso   1.000  C
  C106     1.0000 0.29990  0.80040  0.49357  Biso   1.000  C
  C107     1.0000 0.26740  0.78580  0.51457  Biso   1.000  C
  C108     1.0000 0.22760  0.76980  0.53907  Biso   1.000  C
  C109     1.0000 0.20460  0.79990  0.54587  Biso   1.000  C
  C110     1.0000 0.16600  0.78360  0.56917  Biso   1.000  C
  C111     1.0000 0.15050  0.73730  0.58571  Biso   1.000  C
  C112     1.0000 0.17350  0.70730  0.57897  Biso   1.000  C
  C113     1.0000 0.21200  0.72350  0.55557  Biso   1.000  C
  C114     1.0000 0.11160  0.72280  0.61187  Biso   1.000  C
  C115     1.0000 0.99230  0.53200  0.69737  Biso   1.000  C
  C116     1.0000 0.93210  0.51690  0.74027  Biso   1.000  C
  C117     1.0000 0.96900  0.45790  0.73237  Biso   1.000  C
  C118     1.0000 0.12890  0.60660  0.64917  Biso   1.000  C
  C119     1.0000 0.13320  0.53590  0.67457  Biso   1.000  C
  C120     1.0000 0.21190  0.60830  0.64807  Biso   1.000  C
  C121     1.0000 0.60360  0.04540  0.27973  Biso   1.000  C
  C122     1.0000 0.57390  0.06100  0.25693  Biso   1.000  C
  C123     1.0000 0.53720  0.02500  0.23593  Biso   1.000  C
  C124     1.0000 0.51140  0.04050  0.21453  Biso   1.000  C
  C125     1.0000 0.52240  0.09210  0.21433  Biso   1.000  C
  C126     1.0000 0.55930  0.12820  0.23533  Biso   1.000  C
  C127     1.0000 0.58500  0.11260  0.25673  Biso   1.000  C
  C128     1.0000 0.50170  0.10920  0.18873  Biso   1.000  C
  C129     1.0000 0.48930  0.13170  0.17043  Biso   1.000  C
  C130     1.0000 0.47530  0.15110  0.14463  Biso   1.000  C
  C131     1.0000 0.46200  0.17190  0.12563  Biso   1.000  C
  C132     1.0000 0.44840  0.20230  0.10524  Biso   1.000  C
  C133     1.0000 0.44770  0.19480  0.07234  Biso   1.000  C
  C134     1.0000 0.43040  0.22020  0.05194  Biso   1.000  C
  C135     1.0000 0.41390  0.25320  0.06443  Biso   1.000  C
  C136     1.0000 0.41460  0.26070  0.09733  Biso   1.000  C
  C137     1.0000 0.43190  0.23530  0.11773  Biso   1.000  C
  C138     1.0000 0.39110  0.27680  0.04273  Biso   1.000  C
  C139     1.0000 0.77130  0.05660  0.27773  Biso   1.000  C
  C140     1.0000 0.81600  0.08270  0.25541  Biso   1.000  C
  C141     1.0000 0.84880  0.06230  0.25053  Biso   1.000  C
  C142     1.0000 0.88940  0.08550  0.22833  Biso   1.000  C
  C143     1.0000 0.89690  0.12900  0.21119  Biso   1.000  C
  C144     1.0000 0.86420  0.14950  0.21613  Biso   1.000  C
  C145     1.0000 0.82360  0.12630  0.23823  Biso   1.000  C
  C146     1.0000 0.93930  0.15370  0.18843  Biso   1.000  C
  C147     1.0000 0.97290  0.16860  0.16883  Biso   1.000  C
  C148     1.0000 0.00990  0.18480  0.14623  Biso   1.000  C
  C149     1.0000 0.04410  0.20010  0.12623  Biso   1.000  C
  C150     1.0000 0.08510  0.21210  0.10307  Biso   1.000  C
  C151     1.0000 0.13250  0.21820  0.11347  Biso   1.000  C
  C152     1.0000 0.17420  0.23540  0.09228  Biso   1.000  C
  C153     1.0000 0.16840  0.24640  0.06067  Biso   1.000  C
  C154     1.0000 0.12100  0.24030  0.05027  Biso   1.000  C
  C155     1.0000 0.07930  0.22310  0.07147  Biso   1.000  C
  C156     1.0000 0.21460  0.26630  0.03963  Biso   1.000  C
  C157     1.0000 0.34430  0.42290  0.05903  Biso   1.000  C
  C158     1.0000 0.37170  0.47290  0.07783  Biso   1.000  C
  C159     1.0000 0.40480  0.47900  0.10313  Biso   1.000  C
  C160     1.0000 0.43040  0.52620  0.11953  Biso   1.000  C
  C161     1.0000 0.42300  0.56740  0.11053  Biso   1.000  C
  C162     1.0000 0.38990  0.56120  0.08523  Biso   1.000  C
  C163     1.0000 0.36430  0.51400  0.06878  Biso   1.000  C
  C164     1.0000 0.45130  0.61410  0.12933  Biso   1.000  C
  C165     1.0000 0.47220  0.65450  0.14403  Biso   1.000  C
  C166     1.0000 0.50050  0.70010  0.16023  Biso   1.000  C
  C167     1.0000 0.51840  0.73260  0.18123  Biso   1.000  C
  C168     1.0000 0.54220  0.77240  0.20573  Biso   1.000  C
  C169     1.0000 0.59530  0.79540  0.21253  Biso   1.000  C
  C170     1.0000 0.61760  0.83400  0.23583  Biso   1.000  C
  C171     1.0000 0.58680  0.84950  0.25237  Biso   1.000  C
  C172     1.0000 0.53380  0.82650  0.24563  Biso   1.000  C
  C173     1.0000 0.51150  0.78800  0.22223  Biso   1.000  C
  C174     1.0000 0.61120  0.88840  0.27853  Biso   1.000  C
  C175     1.0000 0.53970  0.00770  0.36403  Biso   1.000  C
  C176     1.0000 0.58480  0.06790  0.40693  Biso   1.000  C
  C177     1.0000 0.48890  0.03100  0.39903  Biso   1.000  C
  C178     1.0000 0.47770  0.87110  0.31583  Biso   1.000  C
  C179     1.0000 0.40270  0.86680  0.34123  Biso   1.000  C
  C180     1.0000 0.39640  0.78810  0.31473  Biso   1.000  C
  N1       1.0000 0.49730  0.46200  0.05500  Biso   1.000  N
  N2       1.0000 0.41600  0.57240  0.98950  Biso   1.000  N
  N3       1.0000 0.96470  0.50270  0.72167  Biso   1.000  N
  N4       1.0000 0.15640  0.58400  0.65617  Biso   1.000  N
  N5       1.0000 0.53800  0.03530  0.38833  Biso   1.000  N
  N6       1.0000 0.42760  0.84360  0.32283  Biso   1.000  N
  O1       1.0000 0.33550  0.33980  0.99686  Biso   1.000  O
  O2       1.0000 0.43890  0.35780  0.95974  Biso   1.000  O
  O3       1.0000 0.41100  0.41370  0.95040  Biso   1.000  O
  O4       1.0000 0.92940  0.63040  0.72386  Biso   1.000  O
  O5       1.0000 0.87870  0.60430  0.67968  Biso   1.000  O
  O6       1.0000 0.33360  0.25480  0.94966  Biso   1.000  O
  O7       1.0000 0.25170  0.23800  0.95668  Biso   1.000  O
  O8       1.0000 0.06720  0.79160  0.67748  Biso   1.000  O
  O9       1.0000 0.01850  0.74430  0.71867  Biso   1.000  O
  O10      1.0000 0.09510  0.67110  0.69910  Biso   1.000  O
  O11      1.0000 0.04080  0.65700  0.73970  Biso   1.000  O
  O12      1.0000 0.31560  0.41920  0.96190  Biso   1.000  O
  O13      1.0000 0.25270  0.34010  0.94619  Biso   1.000  O
  O14      1.0000 0.42850  0.41970  0.02148  Biso   1.000  O
  O15      1.0000 0.41180  0.49390  0.98980  Biso   1.000  O
  O16      1.0000 0.00430  0.66450  0.66353  Biso   1.000  O
  O17      1.0000 0.91890  0.56110  0.62641  Biso   1.000  O
  O18      1.0000 0.00270  0.58900  0.61707  Biso   1.000  O
  O19      1.0000 0.70100  0.07060  0.39053  Biso   1.000  O
  O20      1.0000 0.72560  0.12130  0.34635  Biso   1.000  O
  O21      1.0000 0.92120  0.66640  0.61633  Biso   1.000  O
  O22      1.0000 0.98630  0.74830  0.62335  Biso   1.000  O
  O23      1.0000 0.72440  0.93280  0.34415  Biso   1.000  O
  O24      1.0000 0.72580  0.98150  0.38534  Biso   1.000  O
  O25      1.0000 0.57600  0.90490  0.36577  Biso   1.000  O
  O26      1.0000 0.61620  0.95920  0.40637  Biso   1.000  O
  O27      1.0000 0.10360  0.68440  0.62857  Biso   1.000  O
  O28      1.0000 0.08740  0.74730  0.61286  Biso   1.000  O
  O29      1.0000 0.99120  0.57150  0.68815  Biso   1.000  O
  O30      1.0000 0.08210  0.58820  0.65647  Biso   1.000  O
  O31      1.0000 0.66020  0.99570  0.33019  Biso   1.000  O
  O32      1.0000 0.64220  0.08110  0.29307  Biso   1.000  O
  O33      1.0000 0.58630  0.99730  0.28373  Biso   1.000  O
  O34      1.0000 0.36960  0.29900  0.05719  Biso   1.000  O
  O35      1.0000 0.39570  0.27440  0.01301  Biso   1.000  O
  O36      1.0000 0.74520  0.07880  0.28299  Biso   1.000  O
  O37      1.0000 0.76200  0.01370  0.29001  Biso   1.000  O
  O38      1.0000 0.20840  0.27560  0.01081  Biso   1.000  O
  O39      1.0000 0.25570  0.27420  0.05200  Biso   1.000  O
  O40      1.0000 0.32890  0.42400  0.03243  Biso   1.000  O
  O41      1.0000 0.34300  0.38380  0.07303  Biso   1.000  O
  O42      1.0000 0.58080  0.89640  0.29523  Biso   1.000  O
  O43      1.0000 0.65990  0.91260  0.27952  Biso   1.000  O
  O44      1.0000 0.58030  0.00880  0.35481  Biso   1.000  O
  O45      1.0000 0.50610  0.91790  0.32313  Biso   1.000  O
  Zn13     1.0000 0.93480  0.31007  0.35184  Biso   1.000  Zn
  Zn14     1.0000 0.04537  0.41599  0.34443  Biso   1.000  Zn
  Zn15     1.0000 0.03649  0.30169  0.35419  Biso   1.000  Zn
  Zn16     1.0000 0.00142  0.33011  0.29048  Biso   1.000  Zn
  Zn17     1.0000 0.68993  0.62473  0.68518  Biso   1.000  Zn
  Zn18     1.0000 0.58401  0.62938  0.67777  Biso   1.000  Zn
  Zn19     1.0000 0.69831  0.73480  0.68753  Biso   1.000  Zn
  Zn20     1.0000 0.66989  0.67131  0.62382  Biso   1.000  Zn
  Zn21     1.0000 0.37527  0.06520  0.01851  Biso   1.000  Zn
  Zn22     1.0000 0.37062  0.95463  0.01110  Biso   1.000  Zn
  Zn23     1.0000 0.26520  0.96351  0.02086  Biso   1.000  Zn
  Zn24     1.0000 0.32869  0.99858  0.95715  Biso   1.000  Zn
  H115     1.0000 0.01030  0.47030  0.43063  Biso   1.000  H
  H116     1.0000 0.98420  0.51380  0.46653  Biso   1.000  H
  H117     1.0000 0.83660  0.43330  0.43143  Biso   1.000  H
  H118     1.0000 0.86270  0.38980  0.39553  Biso   1.000  H
  H119     1.0000 0.82770  0.54100  0.60283  Biso   1.000  H
  H120     1.0000 0.78490  0.57010  0.63723  Biso   1.000  H
  H121     1.0000 0.71670  0.59660  0.56083  Biso   1.000  H
  H122     1.0000 0.75950  0.56750  0.52643  Biso   1.000  H
  H123     1.0000 0.96750  0.15640  0.40443  Biso   1.000  H
  H124     1.0000 0.92850  0.08820  0.44163  Biso   1.000  H
  H125     1.0000 0.82080  0.13070  0.46233  Biso   1.000  H
  H126     1.0000 0.85970  0.19880  0.42503  Biso   1.000  H
  H127     1.0000 0.78930  0.86350  0.53163  Biso   1.000  H
  H128     1.0000 0.76040  0.79340  0.56723  Biso   1.000  H
  H129     1.0000 0.75220  0.88300  0.63803  Biso   1.000  H
  H130     1.0000 0.78110  0.95310  0.60233  Biso   1.000  H
  H131     1.0000 0.54910  0.59010  0.55733  Biso   1.000  H
  H132     1.0000 0.46960  0.54700  0.52983  Biso   1.000  H
  H133     1.0000 0.41070  0.61520  0.58763  Biso   1.000  H
  H134     1.0000 0.49010  0.65830  0.61513  Biso   1.000  H
  H135     1.0000 0.21520  0.38370  0.46553  Biso   1.000  H
  H136     1.0000 0.15040  0.34620  0.42613  Biso   1.000  H
  H137     1.0000 0.16280  0.48720  0.40973  Biso   1.000  H
  H138     1.0000 0.22780  0.52480  0.44903  Biso   1.000  H
  H139     1.0000 0.01440  0.49200  0.31373  Biso   1.000  H
  H140     1.0000 0.91450  0.42350  0.24273  Biso   1.000  H
  H141     1.0000 0.90590  0.38820  0.27373  Biso   1.000  H
  H142     1.0000 0.95390  0.40240  0.25013  Biso   1.000  H
  H143     1.0000 0.94550  0.50430  0.24943  Biso   1.000  H
  H144     1.0000 0.00510  0.53540  0.26113  Biso   1.000  H
  H145     1.0000 0.95910  0.52640  0.28523  Biso   1.000  H
  H146     1.0000 0.14570  0.50690  0.36213  Biso   1.000  H
  H147     1.0000 0.15900  0.63440  0.32243  Biso   1.000  H
  H148     1.0000 0.10280  0.59410  0.33693  Biso   1.000  H
  H149     1.0000 0.12210  0.58030  0.30453  Biso   1.000  H
  H150     1.0000 0.22540  0.63970  0.34473  Biso   1.000  H
  H151     1.0000 0.23120  0.58890  0.34113  Biso   1.000  H
  H152     1.0000 0.21630  0.60300  0.37513  Biso   1.000  H
  H153     1.0000 0.52970  0.54000  0.76397  Biso   1.000  H
  H154     1.0000 0.48620  0.47040  0.79987  Biso   1.000  H
  H155     1.0000 0.56670  0.40330  0.76477  Biso   1.000  H
  H156     1.0000 0.61020  0.47290  0.72887  Biso   1.000  H
  H157     1.0000 0.45900  0.28670  0.93617  Biso   1.000  H
  H158     1.0000 0.42990  0.21480  0.97057  Biso   1.000  H
  H159     1.0000 0.40340  0.12010  0.89417  Biso   1.000  H
  H160     1.0000 0.43250  0.19200  0.85977  Biso   1.000  H
  H161     1.0000 0.84360  0.81110  0.73777  Biso   1.000  H
  H162     1.0000 0.91180  0.84030  0.77497  Biso   1.000  H
  H163     1.0000 0.86930  0.69010  0.79567  Biso   1.000  H
  H164     1.0000 0.80120  0.66090  0.75837  Biso   1.000  H
  H165     1.0000 0.13650  0.92580  0.86497  Biso   1.000  H
  H166     1.0000 0.20660  0.96700  0.90057  Biso   1.000  H
  H167     1.0000 0.11700  0.86920  0.97137  Biso   1.000  H
  H168     1.0000 0.04690  0.82800  0.93567  Biso   1.000  H
  H169     1.0000 0.40990  0.95900  0.89067  Biso   1.000  H
  H170     1.0000 0.45300  0.92260  0.86317  Biso   1.000  H
  H171     1.0000 0.38480  0.79550  0.92097  Biso   1.000  H
  H172     1.0000 0.34170  0.83180  0.94847  Biso   1.000  H
  H173     1.0000 0.61630  0.83150  0.79887  Biso   1.000  H
  H174     1.0000 0.65380  0.80420  0.75947  Biso   1.000  H
  H175     1.0000 0.51280  0.67560  0.74307  Biso   1.000  H
  H176     1.0000 0.47520  0.70300  0.78237  Biso   1.000  H
  H177     1.0000 0.50800  0.52240  0.64707  Biso   1.000  H
  H178     1.0000 0.57650  0.49100  0.57607  Biso   1.000  H
  H179     1.0000 0.61180  0.51770  0.60707  Biso   1.000  H
  H180     1.0000 0.59760  0.55150  0.58347  Biso   1.000  H
  H181     1.0000 0.49570  0.44120  0.58277  Biso   1.000  H
  H182     1.0000 0.46460  0.46970  0.59447  Biso   1.000  H
  H183     1.0000 0.47360  0.43270  0.61857  Biso   1.000  H
  H184     1.0000 0.49310  0.63880  0.69547  Biso   1.000  H
  H185     1.0000 0.36560  0.52460  0.65577  Biso   1.000  H
  H186     1.0000 0.40590  0.50870  0.67027  Biso   1.000  H
  H187     1.0000 0.41970  0.54180  0.63787  Biso   1.000  H
  H188     1.0000 0.36030  0.58570  0.67807  Biso   1.000  H
  H189     1.0000 0.41110  0.64230  0.67447  Biso   1.000  H
  H190     1.0000 0.39700  0.61330  0.70847  Biso   1.000  H
  H191     1.0000 0.46000  0.98970  0.09730  Biso   1.000  H
  H192     1.0000 0.52960  0.01580  0.13320  Biso   1.000  H
  H193     1.0000 0.59670  0.16340  0.09810  Biso   1.000  H
  H194     1.0000 0.52710  0.13730  0.06220  Biso   1.000  H
  H195     1.0000 0.71330  0.17230  0.26950  Biso   1.000  H
  H196     1.0000 0.78520  0.21510  0.30390  Biso   1.000  H
  H197     1.0000 0.87990  0.28330  0.22750  Biso   1.000  H
  H198     1.0000 0.80800  0.24050  0.19310  Biso   1.000  H
  H199     1.0000 0.18890  0.03250  0.07110  Biso   1.000  H
  H200     1.0000 0.15970  0.07150  0.10830  Biso   1.000  H
  H201     1.0000 0.30990  0.17920  0.12900  Biso   1.000  H
  H202     1.0000 0.33910  0.14030  0.09170  Biso   1.000  H
  H203     1.0000 0.07420  0.21070  0.19830  Biso   1.000  H
  H204     1.0000 0.03300  0.23960  0.23390  Biso   1.000  H
  H205     1.0000 0.13080  0.24780  0.30470  Biso   1.000  H
  H206     1.0000 0.17200  0.21890  0.26900  Biso   1.000  H
  H207     1.0000 0.04100  0.45090  0.22400  Biso   1.000  H
  H208     1.0000 0.07740  0.53040  0.19650  Biso   1.000  H
  H209     1.0000 0.20450  0.58930  0.25430  Biso   1.000  H
  H210     1.0000 0.16820  0.50990  0.28180  Biso   1.000  H
  H211     1.0000 0.16850  0.78480  0.13220  Biso   1.000  H
  H212     1.0000 0.19580  0.84960  0.09280  Biso   1.000  H
  H213     1.0000 0.32440  0.83720  0.07640  Biso   1.000  H
  H214     1.0000 0.29700  0.77220  0.11570  Biso   1.000  H
  H215     1.0000 0.47760  0.98560  0.98040  Biso   1.000  H
  H216     1.0000 0.50900  0.08550  0.90940  Biso   1.000  H
  H217     1.0000 0.48230  0.09410  0.94040  Biso   1.000  H
  H218     1.0000 0.44850  0.04610  0.91680  Biso   1.000  H
  H219     1.0000 0.55880  0.05450  0.91610  Biso   1.000  H
  H220     1.0000 0.53030  0.99490  0.92780  Biso   1.000  H
  H221     1.0000 0.56730  0.04090  0.95190  Biso   1.000  H
  H222     1.0000 0.36120  0.85430  0.02880  Biso   1.000  H
  H223     1.0000 0.47540  0.84100  0.98910  Biso   1.000  H
  H224     1.0000 0.49130  0.89720  0.00360  Biso   1.000  H
  H225     1.0000 0.45820  0.87790  0.97120  Biso   1.000  H
  H226     1.0000 0.41430  0.77460  0.01140  Biso   1.000  H
  H227     1.0000 0.35770  0.76880  0.00780  Biso   1.000  H
  H228     1.0000 0.38670  0.78370  0.04180  Biso   1.000  H
  C181     1.0000 0.95460  0.39640  0.38693  Biso   1.000  C
  C182     1.0000 0.93900  0.42610  0.40973  Biso   1.000  C
  C183     1.0000 0.97500  0.46280  0.43073  Biso   1.000  C
  C184     1.0000 0.95950  0.48860  0.45213  Biso   1.000  C
  C185     1.0000 0.90790  0.47760  0.45233  Biso   1.000  C
  C186     1.0000 0.87180  0.44070  0.43133  Biso   1.000  C
  C187     1.0000 0.88740  0.41500  0.40993  Biso   1.000  C
  C188     1.0000 0.89080  0.49830  0.47793  Biso   1.000  C
  C189     1.0000 0.86830  0.51070  0.49623  Biso   1.000  C
  C190     1.0000 0.84890  0.52470  0.52203  Biso   1.000  C
  C191     1.0000 0.82810  0.53800  0.54103  Biso   1.000  C
  C192     1.0000 0.79770  0.55160  0.56142  Biso   1.000  C
  C193     1.0000 0.80520  0.55230  0.59432  Biso   1.000  C
  C194     1.0000 0.77980  0.56960  0.61472  Biso   1.000  C
  C195     1.0000 0.74680  0.58610  0.60223  Biso   1.000  C
  C196     1.0000 0.73930  0.58540  0.56933  Biso   1.000  C
  C197     1.0000 0.76470  0.56810  0.54893  Biso   1.000  C
  C198     1.0000 0.72320  0.60890  0.62393  Biso   1.000  C
  C199     1.0000 0.94340  0.22870  0.38893  Biso   1.000  C
  C200     1.0000 0.91730  0.18400  0.41125  Biso   1.000  C
  C201     1.0000 0.93770  0.15120  0.41613  Biso   1.000  C
  C202     1.0000 0.91450  0.11060  0.43833  Biso   1.000  C
  C203     1.0000 0.87100  0.10310  0.45547  Biso   1.000  C
  C204     1.0000 0.85050  0.13580  0.45053  Biso   1.000  C
  C205     1.0000 0.87370  0.17640  0.42843  Biso   1.000  C
  C206     1.0000 0.84630  0.06070  0.47823  Biso   1.000  C
  C207     1.0000 0.83140  0.02710  0.49783  Biso   1.000  C
  C208     1.0000 0.81520  0.99010  0.52043  Biso   1.000  C
  C209     1.0000 0.79990  0.95590  0.54043  Biso   1.000  C
  C210     1.0000 0.78790  0.91490  0.56359  Biso   1.000  C
  C211     1.0000 0.78180  0.86750  0.55319  Biso   1.000  C
  C212     1.0000 0.76460  0.82580  0.57438  Biso   1.000  C
  C213     1.0000 0.75360  0.83160  0.60599  Biso   1.000  C
  C214     1.0000 0.75970  0.87900  0.61639  Biso   1.000  C
  C215     1.0000 0.77690  0.92070  0.59519  Biso   1.000  C
  C216     1.0000 0.73370  0.78540  0.62703  Biso   1.000  C
  C217     1.0000 0.57710  0.65570  0.60763  Biso   1.000  C
  C218     1.0000 0.52710  0.62830  0.58883  Biso   1.000  C
  C219     1.0000 0.52100  0.59520  0.56353  Biso   1.000  C
  C220     1.0000 0.47380  0.56960  0.54713  Biso   1.000  C
  C221     1.0000 0.43260  0.57700  0.55613  Biso   1.000  C
  C222     1.0000 0.43880  0.61010  0.58143  Biso   1.000  C
  C223     1.0000 0.48600  0.63570  0.59788  Biso   1.000  C
  C224     1.0000 0.38590  0.54870  0.53733  Biso   1.000  C
  C225     1.0000 0.34550  0.52780  0.52263  Biso   1.000  C
  C226     1.0000 0.29990  0.49950  0.50643  Biso   1.000  C
  C227     1.0000 0.26740  0.48160  0.48543  Biso   1.000  C
  C228     1.0000 0.22760  0.45780  0.46093  Biso   1.000  C
  C229     1.0000 0.20460  0.40470  0.45413  Biso   1.000  C
  C230     1.0000 0.16600  0.38240  0.43083  Biso   1.000  C
  C231     1.0000 0.15050  0.41320  0.41429  Biso   1.000  C
  C232     1.0000 0.17350  0.46620  0.42103  Biso   1.000  C
  C233     1.0000 0.21200  0.48850  0.44443  Biso   1.000  C
  C234     1.0000 0.11160  0.38880  0.38813  Biso   1.000  C
  C235     1.0000 0.99230  0.46030  0.30263  Biso   1.000  C
  C236     1.0000 0.93210  0.41520  0.25973  Biso   1.000  C
  C237     1.0000 0.96900  0.51110  0.26763  Biso   1.000  C
  C238     1.0000 0.12890  0.52230  0.35083  Biso   1.000  C
  C239     1.0000 0.13320  0.59730  0.32543  Biso   1.000  C
  C240     1.0000 0.21190  0.60360  0.35193  Biso   1.000  C
  C241     1.0000 0.60360  0.55820  0.72027  Biso   1.000  C
  C242     1.0000 0.57390  0.51290  0.74307  Biso   1.000  C
  C243     1.0000 0.53720  0.51220  0.76407  Biso   1.000  C
  C244     1.0000 0.51140  0.47090  0.78547  Biso   1.000  C
  C245     1.0000 0.52240  0.43030  0.78567  Biso   1.000  C
  C246     1.0000 0.55930  0.43110  0.76467  Biso   1.000  C
  C247     1.0000 0.58500  0.47240  0.74327  Biso   1.000  C
  C248     1.0000 0.50170  0.39250  0.81127  Biso   1.000  C
  C249     1.0000 0.48930  0.35760  0.82957  Biso   1.000  C
  C250     1.0000 0.47530  0.32420  0.85537  Biso   1.000  C
  C251     1.0000 0.46200  0.29010  0.87437  Biso   1.000  C
  C252     1.0000 0.44840  0.24610  0.89476  Biso   1.000  C
  C253     1.0000 0.44770  0.25290  0.92766  Biso   1.000  C
  C254     1.0000 0.43040  0.21020  0.94806  Biso   1.000  C
  C255     1.0000 0.41390  0.16070  0.93557  Biso   1.000  C
  C256     1.0000 0.41460  0.15390  0.90267  Biso   1.000  C
  C257     1.0000 0.43190  0.19660  0.88227  Biso   1.000  C
  C258     1.0000 0.39110  0.11430  0.95727  Biso   1.000  C
  C259     1.0000 0.77130  0.71470  0.72227  Biso   1.000  C
  C260     1.0000 0.81600  0.73330  0.74459  Biso   1.000  C
  C261     1.0000 0.84880  0.78650  0.74947  Biso   1.000  C
  C262     1.0000 0.88940  0.80390  0.77167  Biso   1.000  C
  C263     1.0000 0.89690  0.76790  0.78881  Biso   1.000  C
  C264     1.0000 0.86420  0.71470  0.78387  Biso   1.000  C
  C265     1.0000 0.82360  0.69730  0.76177  Biso   1.000  C
  C266     1.0000 0.93930  0.78560  0.81157  Biso   1.000  C
  C267     1.0000 0.97290  0.80430  0.83117  Biso   1.000  C
  C268     1.0000 0.00990  0.82510  0.85377  Biso   1.000  C
  C269     1.0000 0.04410  0.84400  0.87377  Biso   1.000  C
  C270     1.0000 0.08510  0.87300  0.89693  Biso   1.000  C
  C271     1.0000 0.13250  0.91430  0.88653  Biso   1.000  C
  C272     1.0000 0.17420  0.93880  0.90772  Biso   1.000  C
  C273     1.0000 0.16840  0.92200  0.93933  Biso   1.000  C
  C274     1.0000 0.12100  0.88070  0.94973  Biso   1.000  C
  C275     1.0000 0.07930  0.85620  0.92853  Biso   1.000  C
  C276     1.0000 0.21460  0.94830  0.96037  Biso   1.000  C
  C277     1.0000 0.34430  0.92140  0.94097  Biso   1.000  C
  C278     1.0000 0.37170  0.89880  0.92217  Biso   1.000  C
  C279     1.0000 0.40480  0.92580  0.89687  Biso   1.000  C
  C280     1.0000 0.43040  0.90420  0.88047  Biso   1.000  C
  C281     1.0000 0.42300  0.85560  0.88947  Biso   1.000  C
  C282     1.0000 0.38990  0.82870  0.91477  Biso   1.000  C
  C283     1.0000 0.36430  0.85030  0.93122  Biso   1.000  C
  C284     1.0000 0.45130  0.83720  0.87067  Biso   1.000  C
  C285     1.0000 0.47220  0.81770  0.85597  Biso   1.000  C
  C286     1.0000 0.50050  0.80040  0.83977  Biso   1.000  C
  C287     1.0000 0.51840  0.78580  0.81877  Biso   1.000  C
  C288     1.0000 0.54220  0.76980  0.79427  Biso   1.000  C
  C289     1.0000 0.59530  0.79990  0.78747  Biso   1.000  C
  C290     1.0000 0.61760  0.78360  0.76417  Biso   1.000  C
  C291     1.0000 0.58680  0.73730  0.74763  Biso   1.000  C
  C292     1.0000 0.53380  0.70730  0.75437  Biso   1.000  C
  C293     1.0000 0.51150  0.72350  0.77777  Biso   1.000  C
  C294     1.0000 0.61120  0.72280  0.72147  Biso   1.000  C
  C295     1.0000 0.53970  0.53200  0.63597  Biso   1.000  C
  C296     1.0000 0.58480  0.51690  0.59307  Biso   1.000  C
  C297     1.0000 0.48890  0.45790  0.60097  Biso   1.000  C
  C298     1.0000 0.47770  0.60660  0.68417  Biso   1.000  C
  C299     1.0000 0.40270  0.53590  0.65877  Biso   1.000  C
  C300     1.0000 0.39640  0.60830  0.68527  Biso   1.000  C
  C301     1.0000 0.44180  0.04540  0.05360  Biso   1.000  C
  C302     1.0000 0.48710  0.06100  0.07640  Biso   1.000  C
  C303     1.0000 0.48780  0.02500  0.09740  Biso   1.000  C
  C304     1.0000 0.52910  0.04050  0.11880  Biso   1.000  C
  C305     1.0000 0.56970  0.09210  0.11900  Biso   1.000  C
  C306     1.0000 0.56890  0.12820  0.09800  Biso   1.000  C
  C307     1.0000 0.52760  0.11260  0.07660  Biso   1.000  C
  C308     1.0000 0.60750  0.10920  0.14460  Biso   1.000  C
  C309     1.0000 0.64240  0.13170  0.16290  Biso   1.000  C
  C310     1.0000 0.67580  0.15110  0.18870  Biso   1.000  C
  C311     1.0000 0.70990  0.17190  0.20770  Biso   1.000  C
  C312     1.0000 0.75390  0.20230  0.22809  Biso   1.000  C
  C313     1.0000 0.74710  0.19480  0.26099  Biso   1.000  C
  C314     1.0000 0.78980  0.22020  0.28139  Biso   1.000  C
  C315     1.0000 0.83930  0.25320  0.26890  Biso   1.000  C
  C316     1.0000 0.84610  0.26070  0.23600  Biso   1.000  C
  C317     1.0000 0.80340  0.23530  0.21560  Biso   1.000  C
  C318     1.0000 0.88570  0.27680  0.29060  Biso   1.000  C
  C319     1.0000 0.28530  0.05660  0.05560  Biso   1.000  C
  C320     1.0000 0.26670  0.08270  0.07792  Biso   1.000  C
  C321     1.0000 0.21350  0.06230  0.08280  Biso   1.000  C
  C322     1.0000 0.19610  0.08550  0.10500  Biso   1.000  C
  C323     1.0000 0.23210  0.12900  0.12214  Biso   1.000  C
  C324     1.0000 0.28530  0.14950  0.11720  Biso   1.000  C
  C325     1.0000 0.30270  0.12630  0.09510  Biso   1.000  C
  C326     1.0000 0.21440  0.15370  0.14490  Biso   1.000  C
  C327     1.0000 0.19570  0.16860  0.16450  Biso   1.000  C
  C328     1.0000 0.17490  0.18480  0.18710  Biso   1.000  C
  C329     1.0000 0.15600  0.20010  0.20710  Biso   1.000  C
  C330     1.0000 0.12700  0.21210  0.23026  Biso   1.000  C
  C331     1.0000 0.08570  0.21820  0.21986  Biso   1.000  C
  C332     1.0000 0.06120  0.23540  0.24105  Biso   1.000  C
  C333     1.0000 0.07800  0.24640  0.27266  Biso   1.000  C
  C334     1.0000 0.11930  0.24030  0.28306  Biso   1.000  C
  C335     1.0000 0.14380  0.22310  0.26186  Biso   1.000  C
  C336     1.0000 0.05170  0.26630  0.29370  Biso   1.000  C
  C337     1.0000 0.07860  0.42290  0.27430  Biso   1.000  C
  C338     1.0000 0.10120  0.47290  0.25550  Biso   1.000  C
  C339     1.0000 0.07420  0.47900  0.23020  Biso   1.000  C
  C340     1.0000 0.09580  0.52620  0.21380  Biso   1.000  C
  C341     1.0000 0.14440  0.56740  0.22280  Biso   1.000  C
  C342     1.0000 0.17130  0.56120  0.24810  Biso   1.000  C
  C343     1.0000 0.14970  0.51400  0.26455  Biso   1.000  C
  C344     1.0000 0.16280  0.61410  0.20400  Biso   1.000  C
  C345     1.0000 0.18230  0.65450  0.18930  Biso   1.000  C
  C346     1.0000 0.19960  0.70010  0.17310  Biso   1.000  C
  C347     1.0000 0.21420  0.73260  0.15210  Biso   1.000  C
  C348     1.0000 0.23020  0.77240  0.12760  Biso   1.000  C
  C349     1.0000 0.20010  0.79540  0.12080  Biso   1.000  C
  C350     1.0000 0.21640  0.83400  0.09750  Biso   1.000  C
  C351     1.0000 0.26270  0.84950  0.08096  Biso   1.000  C
  C352     1.0000 0.29270  0.82650  0.08770  Biso   1.000  C
  C353     1.0000 0.27650  0.78800  0.11110  Biso   1.000  C
  C354     1.0000 0.27720  0.88840  0.05480  Biso   1.000  C
  C355     1.0000 0.46800  0.00770  0.96930  Biso   1.000  C
  C356     1.0000 0.48310  0.06790  0.92640  Biso   1.000  C
  C357     1.0000 0.54210  0.03100  0.93430  Biso   1.000  C
  C358     1.0000 0.39340  0.87110  0.01750  Biso   1.000  C
  C359     1.0000 0.46410  0.86680  0.99210  Biso   1.000  C
  C360     1.0000 0.39170  0.78810  0.01860  Biso   1.000  C
  N7       1.0000 0.96470  0.46200  0.27833  Biso   1.000  N
  N8       1.0000 0.15640  0.57240  0.34383  Biso   1.000  N
  N9       1.0000 0.53800  0.50270  0.61167  Biso   1.000  N
  N10      1.0000 0.42760  0.58400  0.67717  Biso   1.000  N
  N11      1.0000 0.49730  0.03530  0.94500  Biso   1.000  N
  N12      1.0000 0.41600  0.84360  0.01050  Biso   1.000  N
  O46      1.0000 0.00430  0.33980  0.33647  Biso   1.000  O
  O47      1.0000 0.91890  0.35780  0.37359  Biso   1.000  O
  O48      1.0000 0.00270  0.41370  0.38293  Biso   1.000  O
  O49      1.0000 0.70100  0.63040  0.60947  Biso   1.000  O
  O50      1.0000 0.72560  0.60430  0.65365  Biso   1.000  O
  O51      1.0000 0.92120  0.25480  0.38367  Biso   1.000  O
  O52      1.0000 0.98630  0.23800  0.37665  Biso   1.000  O
  O53      1.0000 0.72440  0.79160  0.65585  Biso   1.000  O
  O54      1.0000 0.72580  0.74430  0.61466  Biso   1.000  O
  O55      1.0000 0.57600  0.67110  0.63423  Biso   1.000  O
  O56      1.0000 0.61620  0.65700  0.59363  Biso   1.000  O
  O57      1.0000 0.10360  0.41920  0.37143  Biso   1.000  O
  O58      1.0000 0.08740  0.34010  0.38714  Biso   1.000  O
  O59      1.0000 0.99120  0.41970  0.31185  Biso   1.000  O
  O60      1.0000 0.08210  0.49390  0.34353  Biso   1.000  O
  O61      1.0000 0.66020  0.66450  0.66981  Biso   1.000  O
  O62      1.0000 0.64220  0.56110  0.70693  Biso   1.000  O
  O63      1.0000 0.58630  0.58900  0.71627  Biso   1.000  O
  O64      1.0000 0.36960  0.07060  0.94281  Biso   1.000  O
  O65      1.0000 0.39570  0.12130  0.98699  Biso   1.000  O
  O66      1.0000 0.74520  0.66640  0.71701  Biso   1.000  O
  O67      1.0000 0.76200  0.74830  0.70999  Biso   1.000  O
  O68      1.0000 0.20840  0.93280  0.98919  Biso   1.000  O
  O69      1.0000 0.25570  0.98150  0.94800  Biso   1.000  O
  O70      1.0000 0.32890  0.90490  0.96757  Biso   1.000  O
  O71      1.0000 0.34300  0.95920  0.92697  Biso   1.000  O
  O72      1.0000 0.58080  0.68440  0.70477  Biso   1.000  O
  O73      1.0000 0.65990  0.74730  0.72048  Biso   1.000  O
  O74      1.0000 0.58030  0.57150  0.64519  Biso   1.000  O
  O75      1.0000 0.50610  0.58820  0.67687  Biso   1.000  O
  O76      1.0000 0.33550  0.99570  0.00314  Biso   1.000  O
  O77      1.0000 0.43890  0.08110  0.04026  Biso   1.000  O
  O78      1.0000 0.41100  0.99730  0.04960  Biso   1.000  O
  O79      1.0000 0.92940  0.29900  0.27614  Biso   1.000  O
  O80      1.0000 0.87870  0.27440  0.32032  Biso   1.000  O
  O81      1.0000 0.33360  0.07880  0.05034  Biso   1.000  O
  O82      1.0000 0.25170  0.01370  0.04332  Biso   1.000  O
  O83      1.0000 0.06720  0.27560  0.32252  Biso   1.000  O
  O84      1.0000 0.01850  0.27420  0.28133  Biso   1.000  O
  O85      1.0000 0.09510  0.42400  0.30090  Biso   1.000  O
  O86      1.0000 0.04080  0.38380  0.26030  Biso   1.000  O
  O87      1.0000 0.31560  0.89640  0.03810  Biso   1.000  O
  O88      1.0000 0.25270  0.91260  0.05381  Biso   1.000  O
  O89      1.0000 0.42850  0.00880  0.97852  Biso   1.000  O
  O90      1.0000 0.41180  0.91790  0.01020  Biso   1.000  O
  Zn25     1.0000 0.02208  0.72961  0.97558  Biso   1.000  Zn
  Zn26     1.0000 0.03425  0.63000  0.97482  Biso   1.000  Zn
  Zn27     1.0000 0.98225  0.65119  0.03474  Biso   1.000  Zn
  Zn28     1.0000 0.92211  0.61651  0.96831  Biso   1.000  Zn
  Zn29     1.0000 0.70753  0.97792  0.64225  Biso   1.000  Zn
  Zn30     1.0000 0.59575  0.96575  0.64149  Biso   1.000  Zn
  Zn31     1.0000 0.66894  0.01775  0.70141  Biso   1.000  Zn
  Zn32     1.0000 0.69440  0.07789  0.63498  Biso   1.000  Zn
  Zn33     1.0000 0.27039  0.29247  0.30891  Biso   1.000  Zn
  Zn34     1.0000 0.37000  0.40425  0.30815  Biso   1.000  Zn
  Zn35     1.0000 0.34881  0.33106  0.36807  Biso   1.000  Zn
  Zn36     1.0000 0.38349  0.30560  0.30164  Biso   1.000  Zn
  H229     1.0000 0.12020  0.86950  0.03070  Biso   1.000  H
  H230     1.0000 0.16190  0.93630  0.06840  Biso   1.000  H
  H231     1.0000 0.08350  0.83350  0.13970  Biso   1.000  H
  H232     1.0000 0.04180  0.76660  0.10190  Biso   1.000  H
  H233     1.0000 0.29890  0.12150  0.19540  Biso   1.000  H
  H234     1.0000 0.33070  0.19540  0.22820  Biso   1.000  H
  H235     1.0000 0.18940  0.13380  0.27160  Biso   1.000  H
  H236     1.0000 0.15760  0.05990  0.23880  Biso   1.000  H
  H237     1.0000 0.18720  0.71190  0.93520  Biso   1.000  H
  H238     1.0000 0.25840  0.75110  0.90000  Biso   1.000  H
  H239     1.0000 0.20450  0.84330  0.86500  Biso   1.000  H
  H240     1.0000 0.13330  0.80410  0.90010  Biso   1.000  H
  H241     1.0000 0.48380  0.88390  0.80180  Biso   1.000  H
  H242     1.0000 0.55140  0.91700  0.76410  Biso   1.000  H
  H243     1.0000 0.45080  0.91150  0.69610  Biso   1.000  H
  H244     1.0000 0.38320  0.87840  0.73390  Biso   1.000  H
  H245     1.0000 0.89190  0.54140  0.88080  Biso   1.000  H
  H246     1.0000 0.87390  0.48820  0.83570  Biso   1.000  H
  H247     1.0000 0.99310  0.46360  0.85900  Biso   1.000  H
  H248     1.0000 0.01120  0.51690  0.90420  Biso   1.000  H
  H249     1.0000 0.82740  0.30640  0.70120  Biso   1.000  H
  H250     1.0000 0.78190  0.22830  0.67230  Biso   1.000  H
  H251     1.0000 0.77520  0.14610  0.75170  Biso   1.000  H
  H252     1.0000 0.82070  0.22420  0.78060  Biso   1.000  H
  H253     1.0000 0.74930  0.87980  0.69737  Biso   1.000  H
  H254     1.0000 0.77440  0.83810  0.73507  Biso   1.000  H
  H255     1.0000 0.75000  0.91650  0.80637  Biso   1.000  H
  H256     1.0000 0.72480  0.95820  0.76857  Biso   1.000  H
  H257     1.0000 0.82260  0.70110  0.86207  Biso   1.000  H
  H258     1.0000 0.86470  0.66930  0.89487  Biso   1.000  H
  H259     1.0000 0.94440  0.81060  0.93827  Biso   1.000  H
  H260     1.0000 0.90230  0.84240  0.90547  Biso   1.000  H
  H261     1.0000 0.52470  0.81280  0.60187  Biso   1.000  H
  H262     1.0000 0.49270  0.74160  0.56667  Biso   1.000  H
  H263     1.0000 0.63880  0.79550  0.53167  Biso   1.000  H
  H264     1.0000 0.67080  0.86670  0.56677  Biso   1.000  H
  H265     1.0000 0.40010  0.51620  0.46847  Biso   1.000  H
  H266     1.0000 0.36560  0.44860  0.43077  Biso   1.000  H
  H267     1.0000 0.46070  0.54920  0.36277  Biso   1.000  H
  H268     1.0000 0.49520  0.61680  0.40057  Biso   1.000  H
  H269     1.0000 0.64950  0.10810  0.54747  Biso   1.000  H
  H270     1.0000 0.61430  0.12610  0.50237  Biso   1.000  H
  H271     1.0000 0.47050  0.00690  0.52567  Biso   1.000  H
  H272     1.0000 0.50570  0.98880  0.57087  Biso   1.000  H
  H273     1.0000 0.47900  0.17260  0.36787  Biso   1.000  H
  H274     1.0000 0.44640  0.21810  0.33897  Biso   1.000  H
  H275     1.0000 0.37090  0.22480  0.41837  Biso   1.000  H
  H276     1.0000 0.40350  0.17930  0.44727  Biso   1.000  H
  H277     1.0000 0.13050  0.25070  0.36403  Biso   1.000  H
  H278     1.0000 0.06370  0.22560  0.40173  Biso   1.000  H
  H279     1.0000 0.16650  0.25000  0.47303  Biso   1.000  H
  H280     1.0000 0.23340  0.27520  0.43523  Biso   1.000  H
  H281     1.0000 0.87850  0.17740  0.52873  Biso   1.000  H
  H282     1.0000 0.80460  0.13530  0.56153  Biso   1.000  H
  H283     1.0000 0.86620  0.05560  0.60493  Biso   1.000  H
  H284     1.0000 0.94010  0.09770  0.57213  Biso   1.000  H
  H285     1.0000 0.28810  0.47530  0.26853  Biso   1.000  H
  H286     1.0000 0.24890  0.50730  0.23333  Biso   1.000  H
  H287     1.0000 0.15670  0.36120  0.19833  Biso   1.000  H
  H288     1.0000 0.19590  0.32920  0.23343  Biso   1.000  H
  H289     1.0000 0.11610  0.59990  0.13513  Biso   1.000  H
  H290     1.0000 0.08300  0.63440  0.09743  Biso   1.000  H
  H291     1.0000 0.08850  0.53930  0.02943  Biso   1.000  H
  H292     1.0000 0.12160  0.50480  0.06723  Biso   1.000  H
  H293     1.0000 0.45860  0.35050  0.21413  Biso   1.000  H
  H294     1.0000 0.51180  0.38570  0.16903  Biso   1.000  H
  H295     1.0000 0.53640  0.52950  0.19233  Biso   1.000  H
  H296     1.0000 0.48310  0.49430  0.23753  Biso   1.000  H
  H297     1.0000 0.69360  0.52100  0.03453  Biso   1.000  H
  H298     1.0000 0.77170  0.55360  0.00563  Biso   1.000  H
  H299     1.0000 0.85390  0.62910  0.08503  Biso   1.000  H
  H300     1.0000 0.77580  0.59650  0.11393  Biso   1.000  H
  C361     1.0000 0.05130  0.76880  0.03930  Biso   1.000  C
  C362     1.0000 0.07710  0.81180  0.06274  Biso   1.000  C
  C363     1.0000 0.11270  0.86210  0.05279  Biso   1.000  C
  C364     1.0000 0.13750  0.90190  0.07520  Biso   1.000  C
  C365     1.0000 0.12660  0.89120  0.10763  Biso   1.000  C
  C366     1.0000 0.09090  0.84070  0.11758  Biso   1.000  C
  C367     1.0000 0.06620  0.80110  0.09514  Biso   1.000  C
  C368     1.0000 0.15000  0.93370  0.13060  Biso   1.000  C
  C369     1.0000 0.16740  0.96610  0.15080  Biso   1.000  C
  C370     1.0000 0.18610  0.00370  0.17400  Biso   1.000  C
  C371     1.0000 0.20370  0.04030  0.19200  Biso   1.000  C
  C372     1.0000 0.22530  0.08380  0.21400  Biso   1.000  C
  C373     1.0000 0.27670  0.12410  0.21084  Biso   1.000  C
  C374     1.0000 0.29560  0.16790  0.23040  Biso   1.000  C
  C375     1.0000 0.26300  0.17150  0.25300  Biso   1.000  C
  C376     1.0000 0.21160  0.13130  0.25613  Biso   1.000  C
  C377     1.0000 0.19270  0.08740  0.23660  Biso   1.000  C
  C378     1.0000 0.28420  0.21840  0.27420  Biso   1.000  C
  C379     1.0000 0.10730  0.72780  0.94200  Biso   1.000  C
  C380     1.0000 0.15350  0.75430  0.92095  Biso   1.000  C
  C381     1.0000 0.19070  0.73860  0.92092  Biso   1.000  C
  C382     1.0000 0.23300  0.76180  0.90010  Biso   1.000  C
  C383     1.0000 0.23810  0.80080  0.87924  Biso   1.000  C
  C384     1.0000 0.20100  0.81660  0.87926  Biso   1.000  C
  C385     1.0000 0.15870  0.79340  0.90012  Biso   1.000  C
  C386     1.0000 0.28200  0.82290  0.85730  Biso   1.000  C
  C387     1.0000 0.31470  0.83440  0.83720  Biso   1.000  C
  C388     1.0000 0.35450  0.85180  0.81610  Biso   1.000  C
  C389     1.0000 0.38730  0.86550  0.79590  Biso   1.000  C
  C390     1.0000 0.42720  0.87810  0.77141  Biso   1.000  C
  C391     1.0000 0.47710  0.88950  0.78037  Biso   1.000  C
  C392     1.0000 0.51730  0.90920  0.75794  Biso   1.000  C
  C393     1.0000 0.50750  0.91740  0.72654  Biso   1.000  C
  C394     1.0000 0.45750  0.90590  0.71758  Biso   1.000  C
  C395     1.0000 0.41740  0.88630  0.74002  Biso   1.000  C
  C396     1.0000 0.55110  0.94310  0.70340  Biso   1.000  C
  C397     1.0000 0.97110  0.57370  0.92240  Biso   1.000  C
  C398     1.0000 0.95320  0.53410  0.89680  Biso   1.000  C
  C399     1.0000 0.91250  0.52560  0.87640  Biso   1.000  C
  C400     1.0000 0.90180  0.49400  0.84960  Biso   1.000  C
  C401     1.0000 0.93180  0.47090  0.84310  Biso   1.000  C
  C402     1.0000 0.97260  0.47940  0.86350  Biso   1.000  C
  C403     1.0000 0.98330  0.51100  0.89030  Biso   1.000  C
  C404     1.0000 0.91360  0.43290  0.81780  Biso   1.000  C
  C405     1.0000 0.89590  0.39280  0.80340  Biso   1.000  C
  C406     1.0000 0.86100  0.35070  0.78480  Biso   1.000  C
  C407     1.0000 0.85220  0.31940  0.76280  Biso   1.000  C
  C408     1.0000 0.82830  0.27260  0.74360  Biso   1.000  C
  C409     1.0000 0.81680  0.27390  0.71140  Biso   1.000  C
  C410     1.0000 0.78980  0.22750  0.69430  Biso   1.000  C
  C411     1.0000 0.77430  0.17990  0.70930  Biso   1.000  C
  C412     1.0000 0.78580  0.17870  0.74140  Biso   1.000  C
  C413     1.0000 0.81280  0.22500  0.75860  Biso   1.000  C
  C414     1.0000 0.75070  0.13150  0.68830  Biso   1.000  C
  C415     1.0000 0.71750  0.94870  0.70597  Biso   1.000  C
  C416     1.0000 0.73470  0.92290  0.72941  Biso   1.000  C
  C417     1.0000 0.74940  0.88730  0.71946  Biso   1.000  C
  C418     1.0000 0.76440  0.86250  0.74187  Biso   1.000  C
  C419     1.0000 0.76460  0.87340  0.77430  Biso   1.000  C
  C420     1.0000 0.74980  0.90910  0.78425  Biso   1.000  C
  C421     1.0000 0.73490  0.93380  0.76181  Biso   1.000  C
  C422     1.0000 0.78370  0.85000  0.79727  Biso   1.000  C
  C423     1.0000 0.79870  0.83260  0.81747  Biso   1.000  C
  C424     1.0000 0.81760  0.81390  0.84067  Biso   1.000  C
  C425     1.0000 0.83660  0.79630  0.85867  Biso   1.000  C
  C426     1.0000 0.85850  0.77470  0.88067  Biso   1.000  C
  C427     1.0000 0.84740  0.72330  0.87751  Biso   1.000  C
  C428     1.0000 0.87230  0.70440  0.89707  Biso   1.000  C
  C429     1.0000 0.90850  0.73700  0.91967  Biso   1.000  C
  C430     1.0000 0.91970  0.78840  0.92280  Biso   1.000  C
  C431     1.0000 0.89470  0.80730  0.90327  Biso   1.000  C
  C432     1.0000 0.93420  0.71580  0.94087  Biso   1.000  C
  C433     1.0000 0.62050  0.89270  0.60867  Biso   1.000  C
  C434     1.0000 0.60080  0.84650  0.58762  Biso   1.000  C
  C435     1.0000 0.54790  0.80930  0.58759  Biso   1.000  C
  C436     1.0000 0.52880  0.76700  0.56677  Biso   1.000  C
  C437     1.0000 0.56270  0.76190  0.54591  Biso   1.000  C
  C438     1.0000 0.61560  0.79900  0.54593  Biso   1.000  C
  C439     1.0000 0.63470  0.84130  0.56679  Biso   1.000  C
  C440     1.0000 0.54090  0.71800  0.52397  Biso   1.000  C
  C441     1.0000 0.51970  0.68530  0.50387  Biso   1.000  C
  C442     1.0000 0.49730  0.64550  0.48277  Biso   1.000  C
  C443     1.0000 0.47820  0.61270  0.46257  Biso   1.000  C
  C444     1.0000 0.45090  0.57280  0.43808  Biso   1.000  C
  C445     1.0000 0.41240  0.52290  0.44704  Biso   1.000  C
  C446     1.0000 0.39190  0.48270  0.42461  Biso   1.000  C
  C447     1.0000 0.40990  0.49250  0.39321  Biso   1.000  C
  C448     1.0000 0.44840  0.54250  0.38425  Biso   1.000  C
  C449     1.0000 0.46890  0.58260  0.40669  Biso   1.000  C
  C450     1.0000 0.39200  0.44890  0.37007  Biso   1.000  C
  C451     1.0000 0.60260  0.02890  0.58907  Biso   1.000  C
  C452     1.0000 0.58090  0.04680  0.56347  Biso   1.000  C
  C453     1.0000 0.61310  0.08750  0.54307  Biso   1.000  C
  C454     1.0000 0.59220  0.09820  0.51627  Biso   1.000  C
  C455     1.0000 0.53910  0.06820  0.50977  Biso   1.000  C
  C456     1.0000 0.50680  0.02740  0.53017  Biso   1.000  C
  C457     1.0000 0.52770  0.01670  0.55697  Biso   1.000  C
  C458     1.0000 0.51930  0.08640  0.48447  Biso   1.000  C
  C459     1.0000 0.49690  0.10410  0.47007  Biso   1.000  C
  C460     1.0000 0.48970  0.13900  0.45147  Biso   1.000  C
  C461     1.0000 0.46720  0.14780  0.42947  Biso   1.000  C
  C462     1.0000 0.44430  0.17170  0.41027  Biso   1.000  C
  C463     1.0000 0.45710  0.18320  0.37807  Biso   1.000  C
  C464     1.0000 0.43770  0.21020  0.36097  Biso   1.000  C
  C465     1.0000 0.40560  0.22570  0.37597  Biso   1.000  C
  C466     1.0000 0.39290  0.21420  0.40807  Biso   1.000  C
  C467     1.0000 0.41220  0.18720  0.42527  Biso   1.000  C
  C468     1.0000 0.38080  0.24930  0.35497  Biso   1.000  C
  C469     1.0000 0.23120  0.28250  0.37263  Biso   1.000  C
  C470     1.0000 0.18820  0.26530  0.39607  Biso   1.000  C
  C471     1.0000 0.13790  0.25060  0.38612  Biso   1.000  C
  C472     1.0000 0.09810  0.23560  0.40853  Biso   1.000  C
  C473     1.0000 0.10880  0.23540  0.44096  Biso   1.000  C
  C474     1.0000 0.15930  0.25020  0.45091  Biso   1.000  C
  C475     1.0000 0.19890  0.26510  0.42847  Biso   1.000  C
  C476     1.0000 0.06630  0.21630  0.46393  Biso   1.000  C
  C477     1.0000 0.03390  0.20130  0.48413  Biso   1.000  C
  C478     1.0000 0.99630  0.18240  0.50733  Biso   1.000  C
  C479     1.0000 0.95970  0.16340  0.52533  Biso   1.000  C
  C480     1.0000 0.91620  0.14150  0.54733  Biso   1.000  C
  C481     1.0000 0.87590  0.15260  0.54417  Biso   1.000  C
  C482     1.0000 0.83210  0.12770  0.56373  Biso   1.000  C
  C483     1.0000 0.82850  0.09150  0.58633  Biso   1.000  C
  C484     1.0000 0.86870  0.08030  0.58946  Biso   1.000  C
  C485     1.0000 0.91260  0.10530  0.56993  Biso   1.000  C
  C486     1.0000 0.78160  0.06580  0.60753  Biso   1.000  C
  C487     1.0000 0.27220  0.37950  0.27533  Biso   1.000  C
  C488     1.0000 0.24570  0.39920  0.25428  Biso   1.000  C
  C489     1.0000 0.26140  0.45210  0.25425  Biso   1.000  C
  C490     1.0000 0.23820  0.47120  0.23343  Biso   1.000  C
  C491     1.0000 0.19920  0.43730  0.21257  Biso   1.000  C
  C492     1.0000 0.18340  0.38440  0.21259  Biso   1.000  C
  C493     1.0000 0.20660  0.36530  0.23345  Biso   1.000  C
  C494     1.0000 0.17710  0.45910  0.19063  Biso   1.000  C
  C495     1.0000 0.16560  0.48030  0.17053  Biso   1.000  C
  C496     1.0000 0.14820  0.50270  0.14943  Biso   1.000  C
  C497     1.0000 0.13450  0.52180  0.12923  Biso   1.000  C
  C498     1.0000 0.12190  0.54910  0.10474  Biso   1.000  C
  C499     1.0000 0.11050  0.58760  0.11370  Biso   1.000  C
  C500     1.0000 0.09080  0.60810  0.09127  Biso   1.000  C
  C501     1.0000 0.08260  0.59010  0.05987  Biso   1.000  C
  C502     1.0000 0.09410  0.55160  0.05091  Biso   1.000  C
  C503     1.0000 0.11370  0.53110  0.07335  Biso   1.000  C
  C504     1.0000 0.05690  0.60800  0.03673  Biso   1.000  C
  C505     1.0000 0.42630  0.39740  0.25573  Biso   1.000  C
  C506     1.0000 0.46590  0.41910  0.23013  Biso   1.000  C
  C507     1.0000 0.47440  0.38690  0.20973  Biso   1.000  C
  C508     1.0000 0.50600  0.40780  0.18293  Biso   1.000  C
  C509     1.0000 0.52910  0.46090  0.17643  Biso   1.000  C
  C510     1.0000 0.52060  0.49320  0.19683  Biso   1.000  C
  C511     1.0000 0.48900  0.47230  0.22363  Biso   1.000  C
  C512     1.0000 0.56710  0.48070  0.15113  Biso   1.000  C
  C513     1.0000 0.60720  0.50310  0.13673  Biso   1.000  C
  C514     1.0000 0.64930  0.51030  0.11813  Biso   1.000  C
  C515     1.0000 0.68060  0.53280  0.09613  Biso   1.000  C
  C516     1.0000 0.72740  0.55570  0.07693  Biso   1.000  C
  C517     1.0000 0.72610  0.54290  0.04473  Biso   1.000  C
  C518     1.0000 0.77250  0.56230  0.02763  Biso   1.000  C
  C519     1.0000 0.82010  0.59440  0.04263  Biso   1.000  C
  C520     1.0000 0.82130  0.60710  0.07473  Biso   1.000  C
  C521     1.0000 0.77500  0.58780  0.09193  Biso   1.000  C
  C522     1.0000 0.86850  0.61920  0.02163  Biso   1.000  C
  O91      1.0000 0.99170  0.65790  0.98757  Biso   1.000  O
  O92      1.0000 0.05800  0.78100  0.01018  Biso   1.000  O
  O93      1.0000 0.01890  0.72350  0.05062  Biso   1.000  O
  O94      1.0000 0.33180  0.24950  0.27300  Biso   1.000  O
  O95      1.0000 0.25220  0.22580  0.28940  Biso   1.000  O
  O96      1.0000 0.07660  0.74560  0.94338  Biso   1.000  O
  O97      1.0000 0.09940  0.68740  0.95612  Biso   1.000  O
  O98      1.0000 0.54110  0.94140  0.67460  Biso   1.000  O
  O99      1.0000 0.59740  0.96270  0.71490  Biso   1.000  O
  O100     1.0000 0.00580  0.58020  0.94000  Biso   1.000  O
  O101     1.0000 0.93610  0.58300  0.93130  Biso   1.000  O
  O102     1.0000 0.73710  0.13580  0.66160  Biso   1.000  O
  O103     1.0000 0.73610  0.08970  0.70270  Biso   1.000  O
  O104     1.0000 0.66620  0.00830  0.65424  Biso   1.000  O
  O105     1.0000 0.72300  0.94200  0.67685  Biso   1.000  O
  O106     1.0000 0.70460  0.98110  0.71729  Biso   1.000  O
  O107     1.0000 0.91770  0.66820  0.93967  Biso   1.000  O
  O108     1.0000 0.97360  0.74780  0.95607  Biso   1.000  O
  O109     1.0000 0.66900  0.92340  0.61005  Biso   1.000  O
  O110     1.0000 0.58800  0.90060  0.62279  Biso   1.000  O
  O111     1.0000 0.40030  0.45890  0.34127  Biso   1.000  O
  O112     1.0000 0.36530  0.40260  0.38157  Biso   1.000  O
  O113     1.0000 0.57440  0.99420  0.60667  Biso   1.000  O
  O114     1.0000 0.64690  0.06390  0.59797  Biso   1.000  O
  O115     1.0000 0.39870  0.26290  0.32827  Biso   1.000  O
  O116     1.0000 0.35360  0.26390  0.36937  Biso   1.000  O
  O117     1.0000 0.34210  0.33380  0.32090  Biso   1.000  O
  O118     1.0000 0.21900  0.27700  0.34351  Biso   1.000  O
  O119     1.0000 0.27650  0.29540  0.38395  Biso   1.000  O
  O120     1.0000 0.75050  0.08230  0.60633  Biso   1.000  O
  O121     1.0000 0.77420  0.02640  0.62273  Biso   1.000  O
  O122     1.0000 0.25440  0.33100  0.27671  Biso   1.000  O
  O123     1.0000 0.31260  0.41200  0.28945  Biso   1.000  O
  O124     1.0000 0.05860  0.59970  0.00793  Biso   1.000  O
  O125     1.0000 0.03730  0.63470  0.04823  Biso   1.000  O
  O126     1.0000 0.41980  0.42560  0.27333  Biso   1.000  O
  O127     1.0000 0.41700  0.35310  0.26463  Biso   1.000  O
  O128     1.0000 0.86420  0.60130  0.99493  Biso   1.000  O
  O129     1.0000 0.91030  0.64640  0.03603  Biso   1.000  O
  Zn37     1.0000 0.70753  0.72961  0.35775  Biso   1.000  Zn
  Zn38     1.0000 0.59575  0.63000  0.35851  Biso   1.000  Zn
  Zn39     1.0000 0.66894  0.65119  0.29859  Biso   1.000  Zn
  Zn40     1.0000 0.69440  0.61651  0.36502  Biso   1.000  Zn
  Zn41     1.0000 0.27039  0.97792  0.69109  Biso   1.000  Zn
  Zn42     1.0000 0.37000  0.96575  0.69185  Biso   1.000  Zn
  Zn43     1.0000 0.34881  0.01775  0.63193  Biso   1.000  Zn
  Zn44     1.0000 0.38349  0.07789  0.69836  Biso   1.000  Zn
  Zn45     1.0000 0.02208  0.29247  0.02442  Biso   1.000  Zn
  Zn46     1.0000 0.03425  0.40425  0.02518  Biso   1.000  Zn
  Zn47     1.0000 0.98225  0.33106  0.96526  Biso   1.000  Zn
  Zn48     1.0000 0.92211  0.30560  0.03169  Biso   1.000  Zn
  H301     1.0000 0.74930  0.86950  0.30263  Biso   1.000  H
  H302     1.0000 0.77440  0.93630  0.26493  Biso   1.000  H
  H303     1.0000 0.75000  0.83350  0.19363  Biso   1.000  H
  H304     1.0000 0.72480  0.76660  0.23143  Biso   1.000  H
  H305     1.0000 0.82260  0.12150  0.13793  Biso   1.000  H
  H306     1.0000 0.86470  0.19540  0.10513  Biso   1.000  H
  H307     1.0000 0.94440  0.13380  0.06173  Biso   1.000  H
  H308     1.0000 0.90230  0.05990  0.09453  Biso   1.000  H
  H309     1.0000 0.52470  0.71190  0.39813  Biso   1.000  H
  H310     1.0000 0.49270  0.75110  0.43333  Biso   1.000  H
  H311     1.0000 0.63880  0.84330  0.46833  Biso   1.000  H
  H312     1.0000 0.67080  0.80410  0.43323  Biso   1.000  H
  H313     1.0000 0.40010  0.88390  0.53153  Biso   1.000  H
  H314     1.0000 0.36560  0.91700  0.56923  Biso   1.000  H
  H315     1.0000 0.46070  0.91150  0.63723  Biso   1.000  H
  H316     1.0000 0.49520  0.87840  0.59943  Biso   1.000  H
  H317     1.0000 0.64950  0.54140  0.45253  Biso   1.000  H
  H318     1.0000 0.61430  0.48820  0.49763  Biso   1.000  H
  H319     1.0000 0.47050  0.46360  0.47433  Biso   1.000  H
  H320     1.0000 0.50570  0.51690  0.42913  Biso   1.000  H
  H321     1.0000 0.47900  0.30640  0.63213  Biso   1.000  H
  H322     1.0000 0.44640  0.22830  0.66103  Biso   1.000  H
  H323     1.0000 0.37090  0.14610  0.58163  Biso   1.000  H
  H324     1.0000 0.40350  0.22420  0.55273  Biso   1.000  H
  H325     1.0000 0.13050  0.87980  0.63597  Biso   1.000  H
  H326     1.0000 0.06370  0.83810  0.59827  Biso   1.000  H
  H327     1.0000 0.16650  0.91650  0.52697  Biso   1.000  H
  H328     1.0000 0.23340  0.95820  0.56477  Biso   1.000  H
  H329     1.0000 0.87850  0.70110  0.47127  Biso   1.000  H
  H330     1.0000 0.80460  0.66930  0.43847  Biso   1.000  H
  H331     1.0000 0.86620  0.81060  0.39507  Biso   1.000  H
  H332     1.0000 0.94010  0.84240  0.42787  Biso   1.000  H
  H333     1.0000 0.28810  0.81280  0.73147  Biso   1.000  H
  H334     1.0000 0.24890  0.74160  0.76667  Biso   1.000  H
  H335     1.0000 0.15670  0.79550  0.80167  Biso   1.000  H
  H336     1.0000 0.19590  0.86670  0.76657  Biso   1.000  H
  H337     1.0000 0.11610  0.51620  0.86487  Biso   1.000  H
  H338     1.0000 0.08300  0.44860  0.90257  Biso   1.000  H
  H339     1.0000 0.08850  0.54920  0.97057  Biso   1.000  H
  H340     1.0000 0.12160  0.61680  0.93277  Biso   1.000  H
  H341     1.0000 0.45860  0.10810  0.78587  Biso   1.000  H
  H342     1.0000 0.51180  0.12610  0.83097  Biso   1.000  H
  H343     1.0000 0.53640  0.00690  0.80767  Biso   1.000  H
  H344     1.0000 0.48310  0.98880  0.76247  Biso   1.000  H
  H345     1.0000 0.69360  0.17260  0.96547  Biso   1.000  H
  H346     1.0000 0.77170  0.21810  0.99437  Biso   1.000  H
  H347     1.0000 0.85390  0.22480  0.91497  Biso   1.000  H
  H348     1.0000 0.77580  0.17930  0.88607  Biso   1.000  H
  H349     1.0000 0.12020  0.25070  0.96930  Biso   1.000  H
  H350     1.0000 0.16190  0.22560  0.93160  Biso   1.000  H
  H351     1.0000 0.08350  0.25000  0.86030  Biso   1.000  H
  H352     1.0000 0.04180  0.27520  0.89810  Biso   1.000  H
  H353     1.0000 0.29890  0.17740  0.80460  Biso   1.000  H
  H354     1.0000 0.33070  0.13530  0.77180  Biso   1.000  H
  H355     1.0000 0.18940  0.05560  0.72840  Biso   1.000  H
  H356     1.0000 0.15760  0.09770  0.76120  Biso   1.000  H
  H357     1.0000 0.18720  0.47530  0.06480  Biso   1.000  H
  H358     1.0000 0.25840  0.50730  0.10000  Biso   1.000  H
  H359     1.0000 0.20450  0.36120  0.13500  Biso   1.000  H
  H360     1.0000 0.13330  0.32920  0.09990  Biso   1.000  H
  H361     1.0000 0.48380  0.59990  0.19820  Biso   1.000  H
  H362     1.0000 0.55140  0.63440  0.23590  Biso   1.000  H
  H363     1.0000 0.45080  0.53930  0.30390  Biso   1.000  H
  H364     1.0000 0.38320  0.50480  0.26610  Biso   1.000  H
  H365     1.0000 0.89190  0.35050  0.11920  Biso   1.000  H
  H366     1.0000 0.87390  0.38570  0.16430  Biso   1.000  H
  H367     1.0000 0.99310  0.52950  0.14100  Biso   1.000  H
  H368     1.0000 0.01120  0.49430  0.09580  Biso   1.000  H
  H369     1.0000 0.82740  0.52100  0.29880  Biso   1.000  H
  H370     1.0000 0.78190  0.55360  0.32770  Biso   1.000  H
  H371     1.0000 0.77520  0.62910  0.24830  Biso   1.000  H
  H372     1.0000 0.82070  0.59650  0.21940  Biso   1.000  H
  C523     1.0000 0.71750  0.76880  0.29403  Biso   1.000  C
  C524     1.0000 0.73470  0.81180  0.27059  Biso   1.000  C
  C525     1.0000 0.74940  0.86210  0.28054  Biso   1.000  C
  C526     1.0000 0.76440  0.90190  0.25813  Biso   1.000  C
  C527     1.0000 0.76460  0.89120  0.22570  Biso   1.000  C
  C528     1.0000 0.74980  0.84070  0.21575  Biso   1.000  C
  C529     1.0000 0.73490  0.80110  0.23819  Biso   1.000  C
  C530     1.0000 0.78370  0.93370  0.20273  Biso   1.000  C
  C531     1.0000 0.79870  0.96610  0.18253  Biso   1.000  C
  C532     1.0000 0.81760  0.00370  0.15933  Biso   1.000  C
  C533     1.0000 0.83660  0.04030  0.14133  Biso   1.000  C
  C534     1.0000 0.85850  0.08380  0.11933  Biso   1.000  C
  C535     1.0000 0.84740  0.12410  0.12249  Biso   1.000  C
  C536     1.0000 0.87230  0.16790  0.10293  Biso   1.000  C
  C537     1.0000 0.90850  0.17150  0.08033  Biso   1.000  C
  C538     1.0000 0.91970  0.13130  0.07720  Biso   1.000  C
  C539     1.0000 0.89470  0.08740  0.09673  Biso   1.000  C
  C540     1.0000 0.93420  0.21840  0.05913  Biso   1.000  C
  C541     1.0000 0.62050  0.72780  0.39133  Biso   1.000  C
  C542     1.0000 0.60080  0.75430  0.41238  Biso   1.000  C
  C543     1.0000 0.54790  0.73860  0.41241  Biso   1.000  C
  C544     1.0000 0.52880  0.76180  0.43323  Biso   1.000  C
  C545     1.0000 0.56270  0.80080  0.45409  Biso   1.000  C
  C546     1.0000 0.61560  0.81660  0.45407  Biso   1.000  C
  C547     1.0000 0.63470  0.79340  0.43321  Biso   1.000  C
  C548     1.0000 0.54090  0.82290  0.47603  Biso   1.000  C
  C549     1.0000 0.51970  0.83440  0.49613  Biso   1.000  C
  C550     1.0000 0.49730  0.85180  0.51723  Biso   1.000  C
  C551     1.0000 0.47820  0.86550  0.53743  Biso   1.000  C
  C552     1.0000 0.45090  0.87810  0.56192  Biso   1.000  C
  C553     1.0000 0.41240  0.88950  0.55296  Biso   1.000  C
  C554     1.0000 0.39190  0.90920  0.57539  Biso   1.000  C
  C555     1.0000 0.40990  0.91740  0.60679  Biso   1.000  C
  C556     1.0000 0.44840  0.90590  0.61575  Biso   1.000  C
  C557     1.0000 0.46890  0.88630  0.59331  Biso   1.000  C
  C558     1.0000 0.39200  0.94310  0.62993  Biso   1.000  C
  C559     1.0000 0.60260  0.57370  0.41093  Biso   1.000  C
  C560     1.0000 0.58090  0.53410  0.43653  Biso   1.000  C
  C561     1.0000 0.61310  0.52560  0.45693  Biso   1.000  C
  C562     1.0000 0.59220  0.49400  0.48373  Biso   1.000  C
  C563     1.0000 0.53910  0.47090  0.49023  Biso   1.000  C
  C564     1.0000 0.50680  0.47940  0.46983  Biso   1.000  C
  C565     1.0000 0.52770  0.51100  0.44303  Biso   1.000  C
  C566     1.0000 0.51930  0.43290  0.51553  Biso   1.000  C
  C567     1.0000 0.49690  0.39280  0.52993  Biso   1.000  C
  C568     1.0000 0.48970  0.35070  0.54853  Biso   1.000  C
  C569     1.0000 0.46720  0.31940  0.57053  Biso   1.000  C
  C570     1.0000 0.44430  0.27260  0.58973  Biso   1.000  C
  C571     1.0000 0.45710  0.27390  0.62193  Biso   1.000  C
  C572     1.0000 0.43770  0.22750  0.63903  Biso   1.000  C
  C573     1.0000 0.40560  0.17990  0.62403  Biso   1.000  C
  C574     1.0000 0.39290  0.17870  0.59193  Biso   1.000  C
  C575     1.0000 0.41220  0.22500  0.57473  Biso   1.000  C
  C576     1.0000 0.38080  0.13150  0.64503  Biso   1.000  C
  C577     1.0000 0.23120  0.94870  0.62737  Biso   1.000  C
  C578     1.0000 0.18820  0.92290  0.60393  Biso   1.000  C
  C579     1.0000 0.13790  0.88730  0.61388  Biso   1.000  C
  C580     1.0000 0.09810  0.86250  0.59147  Biso   1.000  C
  C581     1.0000 0.10880  0.87340  0.55904  Biso   1.000  C
  C582     1.0000 0.15930  0.90910  0.54909  Biso   1.000  C
  C583     1.0000 0.19890  0.93380  0.57153  Biso   1.000  C
  C584     1.0000 0.06630  0.85000  0.53607  Biso   1.000  C
  C585     1.0000 0.03390  0.83260  0.51587  Biso   1.000  C
  C586     1.0000 0.99630  0.81390  0.49267  Biso   1.000  C
  C587     1.0000 0.95970  0.79630  0.47467  Biso   1.000  C
  C588     1.0000 0.91620  0.77470  0.45267  Biso   1.000  C
  C589     1.0000 0.87590  0.72330  0.45583  Biso   1.000  C
  C590     1.0000 0.83210  0.70440  0.43627  Biso   1.000  C
  C591     1.0000 0.82850  0.73700  0.41367  Biso   1.000  C
  C592     1.0000 0.86870  0.78840  0.41054  Biso   1.000  C
  C593     1.0000 0.91260  0.80730  0.43007  Biso   1.000  C
  C594     1.0000 0.78160  0.71580  0.39247  Biso   1.000  C
  C595     1.0000 0.27220  0.89270  0.72467  Biso   1.000  C
  C596     1.0000 0.24570  0.84650  0.74572  Biso   1.000  C
  C597     1.0000 0.26140  0.80930  0.74575  Biso   1.000  C
  C598     1.0000 0.23820  0.76700  0.76657  Biso   1.000  C
  C599     1.0000 0.19920  0.76190  0.78743  Biso   1.000  C
  C600     1.0000 0.18340  0.79900  0.78741  Biso   1.000  C
  C601     1.0000 0.20660  0.84130  0.76655  Biso   1.000  C
  C602     1.0000 0.17710  0.71800  0.80937  Biso   1.000  C
  C603     1.0000 0.16560  0.68530  0.82947  Biso   1.000  C
  C604     1.0000 0.14820  0.64550  0.85057  Biso   1.000  C
  C605     1.0000 0.13450  0.61270  0.87077  Biso   1.000  C
  C606     1.0000 0.12190  0.57280  0.89526  Biso   1.000  C
  C607     1.0000 0.11050  0.52290  0.88630  Biso   1.000  C
  C608     1.0000 0.09080  0.48270  0.90873  Biso   1.000  C
  C609     1.0000 0.08260  0.49250  0.94013  Biso   1.000  C
  C610     1.0000 0.09410  0.54250  0.94909  Biso   1.000  C
  C611     1.0000 0.11370  0.58260  0.92665  Biso   1.000  C
  C612     1.0000 0.05690  0.44890  0.96327  Biso   1.000  C
  C613     1.0000 0.42630  0.02890  0.74427  Biso   1.000  C
  C614     1.0000 0.46590  0.04680  0.76987  Biso   1.000  C
  C615     1.0000 0.47440  0.08750  0.79027  Biso   1.000  C
  C616     1.0000 0.50600  0.09820  0.81707  Biso   1.000  C
  C617     1.0000 0.52910  0.06820  0.82357  Biso   1.000  C
  C618     1.0000 0.52060  0.02740  0.80317  Biso   1.000  C
  C619     1.0000 0.48900  0.01670  0.77637  Biso   1.000  C
  C620     1.0000 0.56710  0.08640  0.84887  Biso   1.000  C
  C621     1.0000 0.60720  0.10410  0.86327  Biso   1.000  C
  C622     1.0000 0.64930  0.13900  0.88187  Biso   1.000  C
  C623     1.0000 0.68060  0.14780  0.90387  Biso   1.000  C
  C624     1.0000 0.72740  0.17170  0.92307  Biso   1.000  C
  C625     1.0000 0.72610  0.18320  0.95527  Biso   1.000  C
  C626     1.0000 0.77250  0.21020  0.97237  Biso   1.000  C
  C627     1.0000 0.82010  0.22570  0.95737  Biso   1.000  C
  C628     1.0000 0.82130  0.21420  0.92527  Biso   1.000  C
  C629     1.0000 0.77500  0.18720  0.90807  Biso   1.000  C
  C630     1.0000 0.86850  0.24930  0.97837  Biso   1.000  C
  C631     1.0000 0.05130  0.28250  0.96070  Biso   1.000  C
  C632     1.0000 0.07710  0.26530  0.93726  Biso   1.000  C
  C633     1.0000 0.11270  0.25060  0.94721  Biso   1.000  C
  C634     1.0000 0.13750  0.23560  0.92480  Biso   1.000  C
  C635     1.0000 0.12660  0.23540  0.89237  Biso   1.000  C
  C636     1.0000 0.09090  0.25020  0.88242  Biso   1.000  C
  C637     1.0000 0.06620  0.26510  0.90486  Biso   1.000  C
  C638     1.0000 0.15000  0.21630  0.86940  Biso   1.000  C
  C639     1.0000 0.16740  0.20130  0.84920  Biso   1.000  C
  C640     1.0000 0.18610  0.18240  0.82600  Biso   1.000  C
  C641     1.0000 0.20370  0.16340  0.80800  Biso   1.000  C
  C642     1.0000 0.22530  0.14150  0.78600  Biso   1.000  C
  C643     1.0000 0.27670  0.15260  0.78916  Biso   1.000  C
  C644     1.0000 0.29560  0.12770  0.76960  Biso   1.000  C
  C645     1.0000 0.26300  0.09150  0.74700  Biso   1.000  C
  C646     1.0000 0.21160  0.08030  0.74387  Biso   1.000  C
  C647     1.0000 0.19270  0.10530  0.76340  Biso   1.000  C
  C648     1.0000 0.28420  0.06580  0.72580  Biso   1.000  C
  C649     1.0000 0.10730  0.37950  0.05800  Biso   1.000  C
  C650     1.0000 0.15350  0.39920  0.07905  Biso   1.000  C
  C651     1.0000 0.19070  0.45210  0.07908  Biso   1.000  C
  C652     1.0000 0.23300  0.47120  0.09990  Biso   1.000  C
  C653     1.0000 0.23810  0.43730  0.12076  Biso   1.000  C
  C654     1.0000 0.20100  0.38440  0.12074  Biso   1.000  C
  C655     1.0000 0.15870  0.36530  0.09988  Biso   1.000  C
  C656     1.0000 0.28200  0.45910  0.14270  Biso   1.000  C
  C657     1.0000 0.31470  0.48030  0.16280  Biso   1.000  C
  C658     1.0000 0.35450  0.50270  0.18390  Biso   1.000  C
  C659     1.0000 0.38730  0.52180  0.20410  Biso   1.000  C
  C660     1.0000 0.42720  0.54910  0.22859  Biso   1.000  C
  C661     1.0000 0.47710  0.58760  0.21963  Biso   1.000  C
  C662     1.0000 0.51730  0.60810  0.24206  Biso   1.000  C
  C663     1.0000 0.50750  0.59010  0.27346  Biso   1.000  C
  C664     1.0000 0.45750  0.55160  0.28242  Biso   1.000  C
  C665     1.0000 0.41740  0.53110  0.25998  Biso   1.000  C
  C666     1.0000 0.55110  0.60800  0.29660  Biso   1.000  C
  C667     1.0000 0.97110  0.39740  0.07760  Biso   1.000  C
  C668     1.0000 0.95320  0.41910  0.10320  Biso   1.000  C
  C669     1.0000 0.91250  0.38690  0.12360  Biso   1.000  C
  C670     1.0000 0.90180  0.40780  0.15040  Biso   1.000  C
  C671     1.0000 0.93180  0.46090  0.15690  Biso   1.000  C
  C672     1.0000 0.97260  0.49320  0.13650  Biso   1.000  C
  C673     1.0000 0.98330  0.47230  0.10970  Biso   1.000  C
  C674     1.0000 0.91360  0.48070  0.18220  Biso   1.000  C
  C675     1.0000 0.89590  0.50310  0.19660  Biso   1.000  C
  C676     1.0000 0.86100  0.51030  0.21520  Biso   1.000  C
  C677     1.0000 0.85220  0.53280  0.23720  Biso   1.000  C
  C678     1.0000 0.82830  0.55570  0.25640  Biso   1.000  C
  C679     1.0000 0.81680  0.54290  0.28860  Biso   1.000  C
  C680     1.0000 0.78980  0.56230  0.30570  Biso   1.000  C
  C681     1.0000 0.77430  0.59440  0.29070  Biso   1.000  C
  C682     1.0000 0.78580  0.60710  0.25860  Biso   1.000  C
  C683     1.0000 0.81280  0.58780  0.24140  Biso   1.000  C
  C684     1.0000 0.75070  0.61920  0.31170  Biso   1.000  C
  O130     1.0000 0.66620  0.65790  0.34576  Biso   1.000  O
  O131     1.0000 0.72300  0.78100  0.32315  Biso   1.000  O
  O132     1.0000 0.70460  0.72350  0.28271  Biso   1.000  O
  O133     1.0000 0.91770  0.24950  0.06033  Biso   1.000  O
  O134     1.0000 0.97360  0.22580  0.04393  Biso   1.000  O
  O135     1.0000 0.66900  0.74560  0.38995  Biso   1.000  O
  O136     1.0000 0.58800  0.68740  0.37721  Biso   1.000  O
  O137     1.0000 0.40030  0.94140  0.65873  Biso   1.000  O
  O138     1.0000 0.36530  0.96270  0.61843  Biso   1.000  O
  O139     1.0000 0.57440  0.58020  0.39333  Biso   1.000  O
  O140     1.0000 0.64690  0.58300  0.40203  Biso   1.000  O
  O141     1.0000 0.39870  0.13580  0.67173  Biso   1.000  O
  O142     1.0000 0.35360  0.08970  0.63063  Biso   1.000  O
  O143     1.0000 0.34210  0.00830  0.67910  Biso   1.000  O
  O144     1.0000 0.21900  0.94200  0.65649  Biso   1.000  O
  O145     1.0000 0.27650  0.98110  0.61605  Biso   1.000  O
  O146     1.0000 0.75050  0.66820  0.39367  Biso   1.000  O
  O147     1.0000 0.77420  0.74780  0.37727  Biso   1.000  O
  O148     1.0000 0.25440  0.92340  0.72329  Biso   1.000  O
  O149     1.0000 0.31260  0.90060  0.71055  Biso   1.000  O
  O150     1.0000 0.05860  0.45890  0.99207  Biso   1.000  O
  O151     1.0000 0.03730  0.40260  0.95177  Biso   1.000  O
  O152     1.0000 0.41980  0.99420  0.72667  Biso   1.000  O
  O153     1.0000 0.41700  0.06390  0.73537  Biso   1.000  O
  O154     1.0000 0.86420  0.26290  0.00507  Biso   1.000  O
  O155     1.0000 0.91030  0.26390  0.96397  Biso   1.000  O
  O156     1.0000 0.99170  0.33380  0.01243  Biso   1.000  O
  O157     1.0000 0.05800  0.27700  0.98982  Biso   1.000  O
  O158     1.0000 0.01890  0.29540  0.94938  Biso   1.000  O
  O159     1.0000 0.33180  0.08230  0.72700  Biso   1.000  O
  O160     1.0000 0.25220  0.02640  0.71060  Biso   1.000  O
  O161     1.0000 0.07660  0.33100  0.05662  Biso   1.000  O
  O162     1.0000 0.09940  0.41200  0.04388  Biso   1.000  O
  O163     1.0000 0.54110  0.59970  0.32540  Biso   1.000  O
  O164     1.0000 0.59740  0.63470  0.28510  Biso   1.000  O
  O165     1.0000 0.00580  0.42560  0.06000  Biso   1.000  O
  O166     1.0000 0.93610  0.35310  0.06870  Biso   1.000  O
  O167     1.0000 0.73710  0.60130  0.33840  Biso   1.000  O
  O168     1.0000 0.73610  0.64640  0.29730  Biso   1.000  O
