data_image0
_cell_length_a       23.7035
_cell_length_b       23.7035
_cell_length_c       23.7035
_cell_angle_alpha    90
_cell_angle_beta     90
_cell_angle_gamma    90

_symmetry_space_group_name_H-M    "P 1"
_symmetry_int_tables_number       1

loop_
  _symmetry_equiv_pos_as_xyz
  'x, y, z'

loop_
  _atom_site_label
  _atom_site_occupancy
  _atom_site_fract_x
  _atom_site_fract_y
  _atom_site_fract_z
  _atom_site_thermal_displace_type
  _atom_site_B_iso_or_equiv
  _atom_site_type_symbol
  N1       1.0000 0.80030  0.46350  0.05880  Biso   1.000  N
  N2       1.0000 0.78890  0.40630  0.06870  Biso   1.000  N
  C1       1.0000 0.81740  0.38030  0.10830  Biso   1.000  C
  C2       1.0000 0.83910  0.49040  0.08680  Biso   1.000  C
  C3       1.0000 0.85030  0.55090  0.07440  Biso   1.000  C
  H1       1.0000 0.81610  0.56890  0.06230  Biso   1.000  H
  H2       1.0000 0.87740  0.55400  0.04450  Biso   1.000  H
  C4       1.0000 0.80390  0.31920  0.12120  Biso   1.000  C
  H3       1.0000 0.79490  0.29990  0.08680  Biso   1.000  H
  H4       1.0000 0.77100  0.31810  0.14490  Biso   1.000  H
  N3       1.0000 0.30030  0.96350  0.55880  Biso   1.000  N
  N4       1.0000 0.28890  0.90630  0.56870  Biso   1.000  N
  C5       1.0000 0.31740  0.88030  0.60830  Biso   1.000  C
  C6       1.0000 0.33910  0.99040  0.58680  Biso   1.000  C
  C7       1.0000 0.35030  0.05090  0.57440  Biso   1.000  C
  H5       1.0000 0.31610  0.06890  0.56230  Biso   1.000  H
  H6       1.0000 0.37740  0.05400  0.54450  Biso   1.000  H
  C8       1.0000 0.30390  0.81920  0.62120  Biso   1.000  C
  H7       1.0000 0.29490  0.79990  0.58680  Biso   1.000  H
  H8       1.0000 0.27100  0.81810  0.64490  Biso   1.000  H
  N5       1.0000 0.19970  0.53650  0.05880  Biso   1.000  N
  N6       1.0000 0.21110  0.59370  0.06870  Biso   1.000  N
  C9       1.0000 0.18260  0.61970  0.10830  Biso   1.000  C
  C10      1.0000 0.16090  0.50960  0.08680  Biso   1.000  C
  C11      1.0000 0.14970  0.44910  0.07440  Biso   1.000  C
  H9       1.0000 0.18390  0.43110  0.06230  Biso   1.000  H
  H10      1.0000 0.12260  0.44600  0.04450  Biso   1.000  H
  C12      1.0000 0.19610  0.68080  0.12120  Biso   1.000  C
  H11      1.0000 0.20510  0.70010  0.08680  Biso   1.000  H
  H12      1.0000 0.22900  0.68190  0.14490  Biso   1.000  H
  N7       1.0000 0.69970  0.03650  0.55880  Biso   1.000  N
  N8       1.0000 0.71110  0.09370  0.56870  Biso   1.000  N
  C13      1.0000 0.68260  0.11970  0.60830  Biso   1.000  C
  C14      1.0000 0.66090  0.00960  0.58680  Biso   1.000  C
  C15      1.0000 0.64970  0.94910  0.57440  Biso   1.000  C
  H13      1.0000 0.68390  0.93110  0.56230  Biso   1.000  H
  H14      1.0000 0.62260  0.94600  0.54450  Biso   1.000  H
  C16      1.0000 0.69610  0.18080  0.62120  Biso   1.000  C
  H15      1.0000 0.70510  0.20010  0.58680  Biso   1.000  H
  H16      1.0000 0.72900  0.18190  0.64490  Biso   1.000  H
  N9       1.0000 0.19970  0.46350  0.94120  Biso   1.000  N
  N10      1.0000 0.21110  0.40630  0.93130  Biso   1.000  N
  C17      1.0000 0.18260  0.38030  0.89170  Biso   1.000  C
  C18      1.0000 0.16090  0.49040  0.91320  Biso   1.000  C
  C19      1.0000 0.14970  0.55090  0.92560  Biso   1.000  C
  H17      1.0000 0.18390  0.56890  0.93770  Biso   1.000  H
  H18      1.0000 0.12260  0.55400  0.95550  Biso   1.000  H
  C20      1.0000 0.19610  0.31920  0.87880  Biso   1.000  C
  H19      1.0000 0.20510  0.29990  0.91320  Biso   1.000  H
  H20      1.0000 0.22900  0.31810  0.85510  Biso   1.000  H
  N11      1.0000 0.69970  0.96350  0.44120  Biso   1.000  N
  N12      1.0000 0.71110  0.90630  0.43130  Biso   1.000  N
  C21      1.0000 0.68260  0.88030  0.39170  Biso   1.000  C
  C22      1.0000 0.66090  0.99040  0.41320  Biso   1.000  C
  C23      1.0000 0.64970  0.05090  0.42560  Biso   1.000  C
  H21      1.0000 0.68390  0.06890  0.43770  Biso   1.000  H
  H22      1.0000 0.62260  0.05400  0.45550  Biso   1.000  H
  C24      1.0000 0.69610  0.81920  0.37880  Biso   1.000  C
  H23      1.0000 0.70510  0.79990  0.41320  Biso   1.000  H
  H24      1.0000 0.72900  0.81810  0.35510  Biso   1.000  H
  N13      1.0000 0.80030  0.53650  0.94120  Biso   1.000  N
  N14      1.0000 0.78890  0.59370  0.93130  Biso   1.000  N
  C25      1.0000 0.81740  0.61970  0.89170  Biso   1.000  C
  C26      1.0000 0.83910  0.50960  0.91320  Biso   1.000  C
  C27      1.0000 0.85030  0.44910  0.92560  Biso   1.000  C
  H25      1.0000 0.81610  0.43110  0.93770  Biso   1.000  H
  H26      1.0000 0.87740  0.44600  0.95550  Biso   1.000  H
  C28      1.0000 0.80390  0.68080  0.87880  Biso   1.000  C
  H27      1.0000 0.79490  0.70010  0.91320  Biso   1.000  H
  H28      1.0000 0.77100  0.68190  0.85510  Biso   1.000  H
  N15      1.0000 0.30030  0.03650  0.44120  Biso   1.000  N
  N16      1.0000 0.28890  0.09370  0.43130  Biso   1.000  N
  C29      1.0000 0.31740  0.11970  0.39170  Biso   1.000  C
  C30      1.0000 0.33910  0.00960  0.41320  Biso   1.000  C
  C31      1.0000 0.35030  0.94910  0.42560  Biso   1.000  C
  H29      1.0000 0.31610  0.93110  0.43770  Biso   1.000  H
  H30      1.0000 0.37740  0.94600  0.45550  Biso   1.000  H
  C32      1.0000 0.30390  0.18080  0.37880  Biso   1.000  C
  H31      1.0000 0.29490  0.20010  0.41320  Biso   1.000  H
  H32      1.0000 0.27100  0.18190  0.35510  Biso   1.000  H
  N17      1.0000 0.05880  0.80030  0.46350  Biso   1.000  N
  N18      1.0000 0.06870  0.78890  0.40630  Biso   1.000  N
  C33      1.0000 0.10830  0.81740  0.38030  Biso   1.000  C
  C34      1.0000 0.08680  0.83910  0.49040  Biso   1.000  C
  C35      1.0000 0.07440  0.85030  0.55090  Biso   1.000  C
  H33      1.0000 0.06230  0.81610  0.56890  Biso   1.000  H
  H34      1.0000 0.04450  0.87740  0.55400  Biso   1.000  H
  C36      1.0000 0.12120  0.80390  0.31920  Biso   1.000  C
  H35      1.0000 0.08680  0.79490  0.29990  Biso   1.000  H
  H36      1.0000 0.14490  0.77100  0.31810  Biso   1.000  H
  N19      1.0000 0.55880  0.30030  0.96350  Biso   1.000  N
  N20      1.0000 0.56870  0.28890  0.90630  Biso   1.000  N
  C37      1.0000 0.60830  0.31740  0.88030  Biso   1.000  C
  C38      1.0000 0.58680  0.33910  0.99040  Biso   1.000  C
  C39      1.0000 0.57440  0.35030  0.05090  Biso   1.000  C
  H37      1.0000 0.56230  0.31610  0.06890  Biso   1.000  H
  H38      1.0000 0.54450  0.37740  0.05400  Biso   1.000  H
  C40      1.0000 0.62120  0.30390  0.81920  Biso   1.000  C
  H39      1.0000 0.58680  0.29490  0.79990  Biso   1.000  H
  H40      1.0000 0.64490  0.27100  0.81810  Biso   1.000  H
  N21      1.0000 0.05880  0.19970  0.53650  Biso   1.000  N
  N22      1.0000 0.06870  0.21110  0.59370  Biso   1.000  N
  C41      1.0000 0.10830  0.18260  0.61970  Biso   1.000  C
  C42      1.0000 0.08680  0.16090  0.50960  Biso   1.000  C
  C43      1.0000 0.07440  0.14970  0.44910  Biso   1.000  C
  H41      1.0000 0.06230  0.18390  0.43110  Biso   1.000  H
  H42      1.0000 0.04450  0.12260  0.44600  Biso   1.000  H
  C44      1.0000 0.12120  0.19610  0.68080  Biso   1.000  C
  H43      1.0000 0.08680  0.20510  0.70010  Biso   1.000  H
  H44      1.0000 0.14490  0.22900  0.68190  Biso   1.000  H
  N23      1.0000 0.55880  0.69970  0.03650  Biso   1.000  N
  N24      1.0000 0.56870  0.71110  0.09370  Biso   1.000  N
  C45      1.0000 0.60830  0.68260  0.11970  Biso   1.000  C
  C46      1.0000 0.58680  0.66090  0.00960  Biso   1.000  C
  C47      1.0000 0.57440  0.64970  0.94910  Biso   1.000  C
  H45      1.0000 0.56230  0.68390  0.93110  Biso   1.000  H
  H46      1.0000 0.54450  0.62260  0.94600  Biso   1.000  H
  C48      1.0000 0.62120  0.69610  0.18080  Biso   1.000  C
  H47      1.0000 0.58680  0.70510  0.20010  Biso   1.000  H
  H48      1.0000 0.64490  0.72900  0.18190  Biso   1.000  H
  N25      1.0000 0.94120  0.19970  0.46350  Biso   1.000  N
  N26      1.0000 0.93130  0.21110  0.40630  Biso   1.000  N
  C49      1.0000 0.89170  0.18260  0.38030  Biso   1.000  C
  C50      1.0000 0.91320  0.16090  0.49040  Biso   1.000  C
  C51      1.0000 0.92560  0.14970  0.55090  Biso   1.000  C
  H49      1.0000 0.93770  0.18390  0.56890  Biso   1.000  H
  H50      1.0000 0.95550  0.12260  0.55400  Biso   1.000  H
  C52      1.0000 0.87880  0.19610  0.31920  Biso   1.000  C
  H51      1.0000 0.91320  0.20510  0.29990  Biso   1.000  H
  H52      1.0000 0.85510  0.22900  0.31810  Biso   1.000  H
  N27      1.0000 0.44120  0.69970  0.96350  Biso   1.000  N
  N28      1.0000 0.43130  0.71110  0.90630  Biso   1.000  N
  C53      1.0000 0.39170  0.68260  0.88030  Biso   1.000  C
  C54      1.0000 0.41320  0.66090  0.99040  Biso   1.000  C
  C55      1.0000 0.42560  0.64970  0.05090  Biso   1.000  C
  H53      1.0000 0.43770  0.68390  0.06890  Biso   1.000  H
  H54      1.0000 0.45550  0.62260  0.05400  Biso   1.000  H
  C56      1.0000 0.37880  0.69610  0.81920  Biso   1.000  C
  H55      1.0000 0.41320  0.70510  0.79990  Biso   1.000  H
  H56      1.0000 0.35510  0.72900  0.81810  Biso   1.000  H
  N29      1.0000 0.94120  0.80030  0.53650  Biso   1.000  N
  N30      1.0000 0.93130  0.78890  0.59370  Biso   1.000  N
  C57      1.0000 0.89170  0.81740  0.61970  Biso   1.000  C
  C58      1.0000 0.91320  0.83910  0.50960  Biso   1.000  C
  C59      1.0000 0.92560  0.85030  0.44910  Biso   1.000  C
  H57      1.0000 0.93770  0.81610  0.43110  Biso   1.000  H
  H58      1.0000 0.95550  0.87740  0.44600  Biso   1.000  H
  C60      1.0000 0.87880  0.80390  0.68080  Biso   1.000  C
  H59      1.0000 0.91320  0.79490  0.70010  Biso   1.000  H
  H60      1.0000 0.85510  0.77100  0.68190  Biso   1.000  H
  N31      1.0000 0.44120  0.30030  0.03650  Biso   1.000  N
  N32      1.0000 0.43130  0.28890  0.09370  Biso   1.000  N
  C61      1.0000 0.39170  0.31740  0.11970  Biso   1.000  C
  C62      1.0000 0.41320  0.33910  0.00960  Biso   1.000  C
  C63      1.0000 0.42560  0.35030  0.94910  Biso   1.000  C
  H61      1.0000 0.43770  0.31610  0.93110  Biso   1.000  H
  H62      1.0000 0.45550  0.37740  0.94600  Biso   1.000  H
  C64      1.0000 0.37880  0.30390  0.18080  Biso   1.000  C
  H63      1.0000 0.41320  0.29490  0.20010  Biso   1.000  H
  H64      1.0000 0.35510  0.27100  0.18190  Biso   1.000  H
  N33      1.0000 0.46350  0.05880  0.80030  Biso   1.000  N
  N34      1.0000 0.40630  0.06870  0.78890  Biso   1.000  N
  C65      1.0000 0.38030  0.10830  0.81740  Biso   1.000  C
  C66      1.0000 0.49040  0.08680  0.83910  Biso   1.000  C
  C67      1.0000 0.55090  0.07440  0.85030  Biso   1.000  C
  H65      1.0000 0.56890  0.06230  0.81610  Biso   1.000  H
  H66      1.0000 0.55400  0.04450  0.87740  Biso   1.000  H
  C68      1.0000 0.31920  0.12120  0.80390  Biso   1.000  C
  H67      1.0000 0.29990  0.08680  0.79490  Biso   1.000  H
  H68      1.0000 0.31810  0.14490  0.77100  Biso   1.000  H
  N35      1.0000 0.96350  0.55880  0.30030  Biso   1.000  N
  N36      1.0000 0.90630  0.56870  0.28890  Biso   1.000  N
  C69      1.0000 0.88030  0.60830  0.31740  Biso   1.000  C
  C70      1.0000 0.99040  0.58680  0.33910  Biso   1.000  C
  C71      1.0000 0.05090  0.57440  0.35030  Biso   1.000  C
  H69      1.0000 0.06890  0.56230  0.31610  Biso   1.000  H
  H70      1.0000 0.05400  0.54450  0.37740  Biso   1.000  H
  C72      1.0000 0.81920  0.62120  0.30390  Biso   1.000  C
  H71      1.0000 0.79990  0.58680  0.29490  Biso   1.000  H
  H72      1.0000 0.81810  0.64490  0.27100  Biso   1.000  H
  N37      1.0000 0.53650  0.05880  0.19970  Biso   1.000  N
  N38      1.0000 0.59370  0.06870  0.21110  Biso   1.000  N
  C73      1.0000 0.61970  0.10830  0.18260  Biso   1.000  C
  C74      1.0000 0.50960  0.08680  0.16090  Biso   1.000  C
  C75      1.0000 0.44910  0.07440  0.14970  Biso   1.000  C
  H73      1.0000 0.43110  0.06230  0.18390  Biso   1.000  H
  H74      1.0000 0.44600  0.04450  0.12260  Biso   1.000  H
  C76      1.0000 0.68080  0.12120  0.19610  Biso   1.000  C
  H75      1.0000 0.70010  0.08680  0.20510  Biso   1.000  H
  H76      1.0000 0.68190  0.14490  0.22900  Biso   1.000  H
  N39      1.0000 0.03650  0.55880  0.69970  Biso   1.000  N
  N40      1.0000 0.09370  0.56870  0.71110  Biso   1.000  N
  C77      1.0000 0.11970  0.60830  0.68260  Biso   1.000  C
  C78      1.0000 0.00960  0.58680  0.66090  Biso   1.000  C
  C79      1.0000 0.94910  0.57440  0.64970  Biso   1.000  C
  H77      1.0000 0.93110  0.56230  0.68390  Biso   1.000  H
  H78      1.0000 0.94600  0.54450  0.62260  Biso   1.000  H
  C80      1.0000 0.18080  0.62120  0.69610  Biso   1.000  C
  H79      1.0000 0.20010  0.58680  0.70510  Biso   1.000  H
  H80      1.0000 0.18190  0.64490  0.72900  Biso   1.000  H
  N41      1.0000 0.46350  0.94120  0.19970  Biso   1.000  N
  N42      1.0000 0.40630  0.93130  0.21110  Biso   1.000  N
  C81      1.0000 0.38030  0.89170  0.18260  Biso   1.000  C
  C82      1.0000 0.49040  0.91320  0.16090  Biso   1.000  C
  C83      1.0000 0.55090  0.92560  0.14970  Biso   1.000  C
  H81      1.0000 0.56890  0.93770  0.18390  Biso   1.000  H
  H82      1.0000 0.55400  0.95550  0.12260  Biso   1.000  H
  C84      1.0000 0.31920  0.87880  0.19610  Biso   1.000  C
  H83      1.0000 0.29990  0.91320  0.20510  Biso   1.000  H
  H84      1.0000 0.31810  0.85510  0.22900  Biso   1.000  H
  N43      1.0000 0.96350  0.44120  0.69970  Biso   1.000  N
  N44      1.0000 0.90630  0.43130  0.71110  Biso   1.000  N
  C85      1.0000 0.88030  0.39170  0.68260  Biso   1.000  C
  C86      1.0000 0.99040  0.41320  0.66090  Biso   1.000  C
  C87      1.0000 0.05090  0.42560  0.64970  Biso   1.000  C
  H85      1.0000 0.06890  0.43770  0.68390  Biso   1.000  H
  H86      1.0000 0.05400  0.45550  0.62260  Biso   1.000  H
  C88      1.0000 0.81920  0.37880  0.69610  Biso   1.000  C
  H87      1.0000 0.79990  0.41320  0.70510  Biso   1.000  H
  H88      1.0000 0.81810  0.35510  0.72900  Biso   1.000  H
  N45      1.0000 0.53650  0.94120  0.80030  Biso   1.000  N
  N46      1.0000 0.59370  0.93130  0.78890  Biso   1.000  N
  C89      1.0000 0.61970  0.89170  0.81740  Biso   1.000  C
  C90      1.0000 0.50960  0.91320  0.83910  Biso   1.000  C
  C91      1.0000 0.44910  0.92560  0.85030  Biso   1.000  C
  H89      1.0000 0.43110  0.93770  0.81610  Biso   1.000  H
  H90      1.0000 0.44600  0.95550  0.87740  Biso   1.000  H
  C92      1.0000 0.68080  0.87880  0.80390  Biso   1.000  C
  H91      1.0000 0.70010  0.91320  0.79490  Biso   1.000  H
  H92      1.0000 0.68190  0.85510  0.77100  Biso   1.000  H
  N47      1.0000 0.03650  0.44120  0.30030  Biso   1.000  N
  N48      1.0000 0.09370  0.43130  0.28890  Biso   1.000  N
  C93      1.0000 0.11970  0.39170  0.31740  Biso   1.000  C
  C94      1.0000 0.00960  0.41320  0.33910  Biso   1.000  C
  C95      1.0000 0.94910  0.42560  0.35030  Biso   1.000  C
  H93      1.0000 0.93110  0.43770  0.31610  Biso   1.000  H
  H94      1.0000 0.94600  0.45550  0.37740  Biso   1.000  H
  C96      1.0000 0.18080  0.37880  0.30390  Biso   1.000  C
  H95      1.0000 0.20010  0.41320  0.29490  Biso   1.000  H
  H96      1.0000 0.18190  0.35510  0.27100  Biso   1.000  H
  N49      1.0000 0.46350  0.80030  0.05880  Biso   1.000  N
  N50      1.0000 0.40630  0.78890  0.06870  Biso   1.000  N
  C97      1.0000 0.38030  0.81740  0.10830  Biso   1.000  C
  C98      1.0000 0.49040  0.83910  0.08680  Biso   1.000  C
  C99      1.0000 0.55090  0.85030  0.07440  Biso   1.000  C
  H97      1.0000 0.56890  0.81610  0.06230  Biso   1.000  H
  H98      1.0000 0.55400  0.87740  0.04450  Biso   1.000  H
  C100     1.0000 0.31920  0.80390  0.12120  Biso   1.000  C
  H99      1.0000 0.29990  0.79490  0.08680  Biso   1.000  H
  H100     1.0000 0.31810  0.77100  0.14490  Biso   1.000  H
  N51      1.0000 0.96350  0.30030  0.55880  Biso   1.000  N
  N52      1.0000 0.90630  0.28890  0.56870  Biso   1.000  N
  C101     1.0000 0.88030  0.31740  0.60830  Biso   1.000  C
  C102     1.0000 0.99040  0.33910  0.58680  Biso   1.000  C
  C103     1.0000 0.05090  0.35030  0.57440  Biso   1.000  C
  H101     1.0000 0.06890  0.31610  0.56230  Biso   1.000  H
  H102     1.0000 0.05400  0.37740  0.54450  Biso   1.000  H
  C104     1.0000 0.81920  0.30390  0.62120  Biso   1.000  C
  H103     1.0000 0.79990  0.29490  0.58680  Biso   1.000  H
  H104     1.0000 0.81810  0.27100  0.64490  Biso   1.000  H
  N53      1.0000 0.53650  0.19970  0.05880  Biso   1.000  N
  N54      1.0000 0.59370  0.21110  0.06870  Biso   1.000  N
  C105     1.0000 0.61970  0.18260  0.10830  Biso   1.000  C
  C106     1.0000 0.50960  0.16090  0.08680  Biso   1.000  C
  C107     1.0000 0.44910  0.14970  0.07440  Biso   1.000  C
  H105     1.0000 0.43110  0.18390  0.06230  Biso   1.000  H
  H106     1.0000 0.44600  0.12260  0.04450  Biso   1.000  H
  C108     1.0000 0.68080  0.19610  0.12120  Biso   1.000  C
  H107     1.0000 0.70010  0.20510  0.08680  Biso   1.000  H
  H108     1.0000 0.68190  0.22900  0.14490  Biso   1.000  H
  N55      1.0000 0.03650  0.69970  0.55880  Biso   1.000  N
  N56      1.0000 0.09370  0.71110  0.56870  Biso   1.000  N
  C109     1.0000 0.11970  0.68260  0.60830  Biso   1.000  C
  C110     1.0000 0.00960  0.66090  0.58680  Biso   1.000  C
  C111     1.0000 0.94910  0.64970  0.57440  Biso   1.000  C
  H109     1.0000 0.93110  0.68390  0.56230  Biso   1.000  H
  H110     1.0000 0.94600  0.62260  0.54450  Biso   1.000  H
  C112     1.0000 0.18080  0.69610  0.62120  Biso   1.000  C
  H111     1.0000 0.20010  0.70510  0.58680  Biso   1.000  H
  H112     1.0000 0.18190  0.72900  0.64490  Biso   1.000  H
  N57      1.0000 0.46350  0.19970  0.94120  Biso   1.000  N
  N58      1.0000 0.40630  0.21110  0.93130  Biso   1.000  N
  C113     1.0000 0.38030  0.18260  0.89170  Biso   1.000  C
  C114     1.0000 0.49040  0.16090  0.91320  Biso   1.000  C
  C115     1.0000 0.55090  0.14970  0.92560  Biso   1.000  C
  H113     1.0000 0.56890  0.18390  0.93770  Biso   1.000  H
  H114     1.0000 0.55400  0.12260  0.95550  Biso   1.000  H
  C116     1.0000 0.31920  0.19610  0.87880  Biso   1.000  C
  H115     1.0000 0.29990  0.20510  0.91320  Biso   1.000  H
  H116     1.0000 0.31810  0.22900  0.85510  Biso   1.000  H
  N59      1.0000 0.96350  0.69970  0.44120  Biso   1.000  N
  N60      1.0000 0.90630  0.71110  0.43130  Biso   1.000  N
  C117     1.0000 0.88030  0.68260  0.39170  Biso   1.000  C
  C118     1.0000 0.99040  0.66090  0.41320  Biso   1.000  C
  C119     1.0000 0.05090  0.64970  0.42560  Biso   1.000  C
  H117     1.0000 0.06890  0.68390  0.43770  Biso   1.000  H
  H118     1.0000 0.05400  0.62260  0.45550  Biso   1.000  H
  C120     1.0000 0.81920  0.69610  0.37880  Biso   1.000  C
  H119     1.0000 0.79990  0.70510  0.41320  Biso   1.000  H
  H120     1.0000 0.81810  0.72900  0.35510  Biso   1.000  H
  N61      1.0000 0.53650  0.80030  0.94120  Biso   1.000  N
  N62      1.0000 0.59370  0.78890  0.93130  Biso   1.000  N
  C121     1.0000 0.61970  0.81740  0.89170  Biso   1.000  C
  C122     1.0000 0.50960  0.83910  0.91320  Biso   1.000  C
  C123     1.0000 0.44910  0.85030  0.92560  Biso   1.000  C
  H121     1.0000 0.43110  0.81610  0.93770  Biso   1.000  H
  H122     1.0000 0.44600  0.87740  0.95550  Biso   1.000  H
  C124     1.0000 0.68080  0.80390  0.87880  Biso   1.000  C
  H123     1.0000 0.70010  0.79490  0.91320  Biso   1.000  H
  H124     1.0000 0.68190  0.77100  0.85510  Biso   1.000  H
  N63      1.0000 0.03650  0.30030  0.44120  Biso   1.000  N
  N64      1.0000 0.09370  0.28890  0.43130  Biso   1.000  N
  C125     1.0000 0.11970  0.31740  0.39170  Biso   1.000  C
  C126     1.0000 0.00960  0.33910  0.41320  Biso   1.000  C
  C127     1.0000 0.94910  0.35030  0.42560  Biso   1.000  C
  H125     1.0000 0.93110  0.31610  0.43770  Biso   1.000  H
  H126     1.0000 0.94600  0.37740  0.45550  Biso   1.000  H
  C128     1.0000 0.18080  0.30390  0.37880  Biso   1.000  C
  H127     1.0000 0.20010  0.29490  0.41320  Biso   1.000  H
  H128     1.0000 0.18190  0.27100  0.35510  Biso   1.000  H
  N65      1.0000 0.80030  0.05880  0.46350  Biso   1.000  N
  N66      1.0000 0.78890  0.06870  0.40630  Biso   1.000  N
  C129     1.0000 0.81740  0.10830  0.38030  Biso   1.000  C
  C130     1.0000 0.83910  0.08680  0.49040  Biso   1.000  C
  C131     1.0000 0.85030  0.07440  0.55090  Biso   1.000  C
  H129     1.0000 0.81610  0.06230  0.56890  Biso   1.000  H
  H130     1.0000 0.87740  0.04450  0.55400  Biso   1.000  H
  C132     1.0000 0.80390  0.12120  0.31920  Biso   1.000  C
  H131     1.0000 0.79490  0.08680  0.29990  Biso   1.000  H
  H132     1.0000 0.77100  0.14490  0.31810  Biso   1.000  H
  N67      1.0000 0.30030  0.55880  0.96350  Biso   1.000  N
  N68      1.0000 0.28890  0.56870  0.90630  Biso   1.000  N
  C133     1.0000 0.31740  0.60830  0.88030  Biso   1.000  C
  C134     1.0000 0.33910  0.58680  0.99040  Biso   1.000  C
  C135     1.0000 0.35030  0.57440  0.05090  Biso   1.000  C
  H133     1.0000 0.31610  0.56230  0.06890  Biso   1.000  H
  H134     1.0000 0.37740  0.54450  0.05400  Biso   1.000  H
  C136     1.0000 0.30390  0.62120  0.81920  Biso   1.000  C
  H135     1.0000 0.29490  0.58680  0.79990  Biso   1.000  H
  H136     1.0000 0.27100  0.64490  0.81810  Biso   1.000  H
  N69      1.0000 0.19970  0.05880  0.53650  Biso   1.000  N
  N70      1.0000 0.21110  0.06870  0.59370  Biso   1.000  N
  C137     1.0000 0.18260  0.10830  0.61970  Biso   1.000  C
  C138     1.0000 0.16090  0.08680  0.50960  Biso   1.000  C
  C139     1.0000 0.14970  0.07440  0.44910  Biso   1.000  C
  H137     1.0000 0.18390  0.06230  0.43110  Biso   1.000  H
  H138     1.0000 0.12260  0.04450  0.44600  Biso   1.000  H
  C140     1.0000 0.19610  0.12120  0.68080  Biso   1.000  C
  H139     1.0000 0.20510  0.08680  0.70010  Biso   1.000  H
  H140     1.0000 0.22900  0.14490  0.68190  Biso   1.000  H
  N71      1.0000 0.69970  0.55880  0.03650  Biso   1.000  N
  N72      1.0000 0.71110  0.56870  0.09370  Biso   1.000  N
  C141     1.0000 0.68260  0.60830  0.11970  Biso   1.000  C
  C142     1.0000 0.66090  0.58680  0.00960  Biso   1.000  C
  C143     1.0000 0.64970  0.57440  0.94910  Biso   1.000  C
  H141     1.0000 0.68390  0.56230  0.93110  Biso   1.000  H
  H142     1.0000 0.62260  0.54450  0.94600  Biso   1.000  H
  C144     1.0000 0.69610  0.62120  0.18080  Biso   1.000  C
  H143     1.0000 0.70510  0.58680  0.20010  Biso   1.000  H
  H144     1.0000 0.72900  0.64490  0.18190  Biso   1.000  H
  N73      1.0000 0.19970  0.94120  0.46350  Biso   1.000  N
  N74      1.0000 0.21110  0.93130  0.40630  Biso   1.000  N
  C145     1.0000 0.18260  0.89170  0.38030  Biso   1.000  C
  C146     1.0000 0.16090  0.91320  0.49040  Biso   1.000  C
  C147     1.0000 0.14970  0.92560  0.55090  Biso   1.000  C
  H145     1.0000 0.18390  0.93770  0.56890  Biso   1.000  H
  H146     1.0000 0.12260  0.95550  0.55400  Biso   1.000  H
  C148     1.0000 0.19610  0.87880  0.31920  Biso   1.000  C
  H147     1.0000 0.20510  0.91320  0.29990  Biso   1.000  H
  H148     1.0000 0.22900  0.85510  0.31810  Biso   1.000  H
  N75      1.0000 0.69970  0.44120  0.96350  Biso   1.000  N
  N76      1.0000 0.71110  0.43130  0.90630  Biso   1.000  N
  C149     1.0000 0.68260  0.39170  0.88030  Biso   1.000  C
  C150     1.0000 0.66090  0.41320  0.99040  Biso   1.000  C
  C151     1.0000 0.64970  0.42560  0.05090  Biso   1.000  C
  H149     1.0000 0.68390  0.43770  0.06890  Biso   1.000  H
  H150     1.0000 0.62260  0.45550  0.05400  Biso   1.000  H
  C152     1.0000 0.69610  0.37880  0.81920  Biso   1.000  C
  H151     1.0000 0.70510  0.41320  0.79990  Biso   1.000  H
  H152     1.0000 0.72900  0.35510  0.81810  Biso   1.000  H
  N77      1.0000 0.80030  0.94120  0.53650  Biso   1.000  N
  N78      1.0000 0.78890  0.93130  0.59370  Biso   1.000  N
  C153     1.0000 0.81740  0.89170  0.61970  Biso   1.000  C
  C154     1.0000 0.83910  0.91320  0.50960  Biso   1.000  C
  C155     1.0000 0.85030  0.92560  0.44910  Biso   1.000  C
  H153     1.0000 0.81610  0.93770  0.43110  Biso   1.000  H
  H154     1.0000 0.87740  0.95550  0.44600  Biso   1.000  H
  C156     1.0000 0.80390  0.87880  0.68080  Biso   1.000  C
  H155     1.0000 0.79490  0.91320  0.70010  Biso   1.000  H
  H156     1.0000 0.77100  0.85510  0.68190  Biso   1.000  H
  N79      1.0000 0.30030  0.44120  0.03650  Biso   1.000  N
  N80      1.0000 0.28890  0.43130  0.09370  Biso   1.000  N
  C157     1.0000 0.31740  0.39170  0.11970  Biso   1.000  C
  C158     1.0000 0.33910  0.41320  0.00960  Biso   1.000  C
  C159     1.0000 0.35030  0.42560  0.94910  Biso   1.000  C
  H157     1.0000 0.31610  0.43770  0.93110  Biso   1.000  H
  H158     1.0000 0.37740  0.45550  0.94600  Biso   1.000  H
  C160     1.0000 0.30390  0.37880  0.18080  Biso   1.000  C
  H159     1.0000 0.29490  0.41320  0.20010  Biso   1.000  H
  H160     1.0000 0.27100  0.35510  0.18190  Biso   1.000  H
  N81      1.0000 0.05880  0.46350  0.80030  Biso   1.000  N
  N82      1.0000 0.06870  0.40630  0.78890  Biso   1.000  N
  C161     1.0000 0.10830  0.38030  0.81740  Biso   1.000  C
  C162     1.0000 0.08680  0.49040  0.83910  Biso   1.000  C
  C163     1.0000 0.07440  0.55090  0.85030  Biso   1.000  C
  H161     1.0000 0.06230  0.56890  0.81610  Biso   1.000  H
  H162     1.0000 0.04450  0.55400  0.87740  Biso   1.000  H
  C164     1.0000 0.12120  0.31920  0.80390  Biso   1.000  C
  H163     1.0000 0.08680  0.29990  0.79490  Biso   1.000  H
  H164     1.0000 0.14490  0.31810  0.77100  Biso   1.000  H
  N83      1.0000 0.55880  0.96350  0.30030  Biso   1.000  N
  N84      1.0000 0.56870  0.90630  0.28890  Biso   1.000  N
  C165     1.0000 0.60830  0.88030  0.31740  Biso   1.000  C
  C166     1.0000 0.58680  0.99040  0.33910  Biso   1.000  C
  C167     1.0000 0.57440  0.05090  0.35030  Biso   1.000  C
  H165     1.0000 0.56230  0.06890  0.31610  Biso   1.000  H
  H166     1.0000 0.54450  0.05400  0.37740  Biso   1.000  H
  C168     1.0000 0.62120  0.81920  0.30390  Biso   1.000  C
  H167     1.0000 0.58680  0.79990  0.29490  Biso   1.000  H
  H168     1.0000 0.64490  0.81810  0.27100  Biso   1.000  H
  N85      1.0000 0.05880  0.53650  0.19970  Biso   1.000  N
  N86      1.0000 0.06870  0.59370  0.21110  Biso   1.000  N
  C169     1.0000 0.10830  0.61970  0.18260  Biso   1.000  C
  C170     1.0000 0.08680  0.50960  0.16090  Biso   1.000  C
  C171     1.0000 0.07440  0.44910  0.14970  Biso   1.000  C
  H169     1.0000 0.06230  0.43110  0.18390  Biso   1.000  H
  H170     1.0000 0.04450  0.44600  0.12260  Biso   1.000  H
  C172     1.0000 0.12120  0.68080  0.19610  Biso   1.000  C
  H171     1.0000 0.08680  0.70010  0.20510  Biso   1.000  H
  H172     1.0000 0.14490  0.68190  0.22900  Biso   1.000  H
  N87      1.0000 0.55880  0.03650  0.69970  Biso   1.000  N
  N88      1.0000 0.56870  0.09370  0.71110  Biso   1.000  N
  C173     1.0000 0.60830  0.11970  0.68260  Biso   1.000  C
  C174     1.0000 0.58680  0.00960  0.66090  Biso   1.000  C
  C175     1.0000 0.57440  0.94910  0.64970  Biso   1.000  C
  H173     1.0000 0.56230  0.93110  0.68390  Biso   1.000  H
  H174     1.0000 0.54450  0.94600  0.62260  Biso   1.000  H
  C176     1.0000 0.62120  0.18080  0.69610  Biso   1.000  C
  H175     1.0000 0.58680  0.20010  0.70510  Biso   1.000  H
  H176     1.0000 0.64490  0.18190  0.72900  Biso   1.000  H
  N89      1.0000 0.94120  0.46350  0.19970  Biso   1.000  N
  N90      1.0000 0.93130  0.40630  0.21110  Biso   1.000  N
  C177     1.0000 0.89170  0.38030  0.18260  Biso   1.000  C
  C178     1.0000 0.91320  0.49040  0.16090  Biso   1.000  C
  C179     1.0000 0.92560  0.55090  0.14970  Biso   1.000  C
  H177     1.0000 0.93770  0.56890  0.18390  Biso   1.000  H
  H178     1.0000 0.95550  0.55400  0.12260  Biso   1.000  H
  C180     1.0000 0.87880  0.31920  0.19610  Biso   1.000  C
  H179     1.0000 0.91320  0.29990  0.20510  Biso   1.000  H
  H180     1.0000 0.85510  0.31810  0.22900  Biso   1.000  H
  N91      1.0000 0.44120  0.96350  0.69970  Biso   1.000  N
  N92      1.0000 0.43130  0.90630  0.71110  Biso   1.000  N
  C181     1.0000 0.39170  0.88030  0.68260  Biso   1.000  C
  C182     1.0000 0.41320  0.99040  0.66090  Biso   1.000  C
  C183     1.0000 0.42560  0.05090  0.64970  Biso   1.000  C
  H181     1.0000 0.43770  0.06890  0.68390  Biso   1.000  H
  H182     1.0000 0.45550  0.05400  0.62260  Biso   1.000  H
  C184     1.0000 0.37880  0.81920  0.69610  Biso   1.000  C
  H183     1.0000 0.41320  0.79990  0.70510  Biso   1.000  H
  H184     1.0000 0.35510  0.81810  0.72900  Biso   1.000  H
  N93      1.0000 0.94120  0.53650  0.80030  Biso   1.000  N
  N94      1.0000 0.93130  0.59370  0.78890  Biso   1.000  N
  C185     1.0000 0.89170  0.61970  0.81740  Biso   1.000  C
  C186     1.0000 0.91320  0.50960  0.83910  Biso   1.000  C
  C187     1.0000 0.92560  0.44910  0.85030  Biso   1.000  C
  H185     1.0000 0.93770  0.43110  0.81610  Biso   1.000  H
  H186     1.0000 0.95550  0.44600  0.87740  Biso   1.000  H
  C188     1.0000 0.87880  0.68080  0.80390  Biso   1.000  C
  H187     1.0000 0.91320  0.70010  0.79490  Biso   1.000  H
  H188     1.0000 0.85510  0.68190  0.77100  Biso   1.000  H
  N95      1.0000 0.44120  0.03650  0.30030  Biso   1.000  N
  N96      1.0000 0.43130  0.09370  0.28890  Biso   1.000  N
  C189     1.0000 0.39170  0.11970  0.31740  Biso   1.000  C
  C190     1.0000 0.41320  0.00960  0.33910  Biso   1.000  C
  C191     1.0000 0.42560  0.94910  0.35030  Biso   1.000  C
  H189     1.0000 0.43770  0.93110  0.31610  Biso   1.000  H
  H190     1.0000 0.45550  0.94600  0.37740  Biso   1.000  H
  C192     1.0000 0.37880  0.18080  0.30390  Biso   1.000  C
  H191     1.0000 0.41320  0.20010  0.29490  Biso   1.000  H
  H192     1.0000 0.35510  0.18190  0.27100  Biso   1.000  H
  Cu1      1.0000 0.75000  0.50000  0.00000  Biso   1.000  Cu
  Cu2      1.0000 0.25000  0.00000  0.50000  Biso   1.000  Cu
  Cu3      1.0000 0.25000  0.50000  0.00000  Biso   1.000  Cu
  Cu4      1.0000 0.00000  0.75000  0.50000  Biso   1.000  Cu
  Cu5      1.0000 0.50000  0.25000  0.00000  Biso   1.000  Cu
  Cu6      1.0000 0.00000  0.25000  0.50000  Biso   1.000  Cu
  Cu7      1.0000 0.50000  0.00000  0.75000  Biso   1.000  Cu
  Cu8      1.0000 0.00000  0.50000  0.25000  Biso   1.000  Cu
  Cu9      1.0000 0.50000  0.00000  0.25000  Biso   1.000  Cu
  Cu10     1.0000 0.50000  0.75000  0.00000  Biso   1.000  Cu
  Cu11     1.0000 0.75000  0.00000  0.50000  Biso   1.000  Cu
  Cu12     1.0000 0.00000  0.50000  0.75000  Biso   1.000  Cu
  C193     1.0000 0.85940  0.40710  0.14060  Biso   1.000  C
  C194     1.0000 0.87100  0.46290  0.12900  Biso   1.000  C
  C195     1.0000 0.87360  0.58100  0.12640  Biso   1.000  C
  H193     1.0000 0.84500  0.58080  0.15500  Biso   1.000  H
  H194     1.0000 0.88235  0.61950  0.11765  Biso   1.000  H
  C196     1.0000 0.85030  0.28820  0.14970  Biso   1.000  C
  H195     1.0000 0.87815  0.27860  0.12185  Biso   1.000  H
  H196     1.0000 0.83560  0.25350  0.16440  Biso   1.000  H
  C197     1.0000 0.35940  0.90710  0.64060  Biso   1.000  C
  C198     1.0000 0.37100  0.96290  0.62900  Biso   1.000  C
  C199     1.0000 0.37360  0.08100  0.62640  Biso   1.000  C
  H197     1.0000 0.34500  0.08080  0.65500  Biso   1.000  H
  H198     1.0000 0.38235  0.11950  0.61765  Biso   1.000  H
  C200     1.0000 0.35030  0.78820  0.64970  Biso   1.000  C
  H199     1.0000 0.37815  0.77860  0.62185  Biso   1.000  H
  H200     1.0000 0.33560  0.75350  0.66440  Biso   1.000  H
  C201     1.0000 0.14060  0.59290  0.14060  Biso   1.000  C
  C202     1.0000 0.12900  0.53710  0.12900  Biso   1.000  C
  C203     1.0000 0.12640  0.41900  0.12640  Biso   1.000  C
  H201     1.0000 0.15500  0.41920  0.15500  Biso   1.000  H
  H202     1.0000 0.11765  0.38050  0.11765  Biso   1.000  H
  C204     1.0000 0.14970  0.71180  0.14970  Biso   1.000  C
  H203     1.0000 0.12185  0.72140  0.12185  Biso   1.000  H
  H204     1.0000 0.16440  0.74650  0.16440  Biso   1.000  H
  C205     1.0000 0.64060  0.09290  0.64060  Biso   1.000  C
  C206     1.0000 0.62900  0.03710  0.62900  Biso   1.000  C
  C207     1.0000 0.62640  0.91900  0.62640  Biso   1.000  C
  H205     1.0000 0.65500  0.91920  0.65500  Biso   1.000  H
  H206     1.0000 0.61765  0.88050  0.61765  Biso   1.000  H
  C208     1.0000 0.64970  0.21180  0.64970  Biso   1.000  C
  H207     1.0000 0.62185  0.22140  0.62185  Biso   1.000  H
  H208     1.0000 0.66440  0.24650  0.66440  Biso   1.000  H
  C209     1.0000 0.14060  0.40710  0.85940  Biso   1.000  C
  C210     1.0000 0.12900  0.46290  0.87100  Biso   1.000  C
  C211     1.0000 0.12640  0.58100  0.87360  Biso   1.000  C
  H209     1.0000 0.15500  0.58080  0.84500  Biso   1.000  H
  H210     1.0000 0.11765  0.61950  0.88235  Biso   1.000  H
  C212     1.0000 0.14970  0.28820  0.85030  Biso   1.000  C
  H211     1.0000 0.12185  0.27860  0.87815  Biso   1.000  H
  H212     1.0000 0.16440  0.25350  0.83560  Biso   1.000  H
  C213     1.0000 0.64060  0.90710  0.35940  Biso   1.000  C
  C214     1.0000 0.62900  0.96290  0.37100  Biso   1.000  C
  C215     1.0000 0.62640  0.08100  0.37360  Biso   1.000  C
  H213     1.0000 0.65500  0.08080  0.34500  Biso   1.000  H
  H214     1.0000 0.61765  0.11950  0.38235  Biso   1.000  H
  C216     1.0000 0.64970  0.78820  0.35030  Biso   1.000  C
  H215     1.0000 0.62185  0.77860  0.37815  Biso   1.000  H
  H216     1.0000 0.66440  0.75350  0.33560  Biso   1.000  H
  C217     1.0000 0.85940  0.59290  0.85940  Biso   1.000  C
  C218     1.0000 0.87100  0.53710  0.87100  Biso   1.000  C
  C219     1.0000 0.87360  0.41900  0.87360  Biso   1.000  C
  H217     1.0000 0.84500  0.41920  0.84500  Biso   1.000  H
  H218     1.0000 0.88235  0.38050  0.88235  Biso   1.000  H
  C220     1.0000 0.85030  0.71180  0.85030  Biso   1.000  C
  H219     1.0000 0.87815  0.72140  0.87815  Biso   1.000  H
  H220     1.0000 0.83560  0.74650  0.83560  Biso   1.000  H
  C221     1.0000 0.35940  0.09290  0.35940  Biso   1.000  C
  C222     1.0000 0.37100  0.03710  0.37100  Biso   1.000  C
  C223     1.0000 0.37360  0.91900  0.37360  Biso   1.000  C
  H221     1.0000 0.34500  0.91920  0.34500  Biso   1.000  H
  H222     1.0000 0.38235  0.88050  0.38235  Biso   1.000  H
  C224     1.0000 0.35030  0.21180  0.35030  Biso   1.000  C
  H223     1.0000 0.37815  0.22140  0.37815  Biso   1.000  H
  H224     1.0000 0.33560  0.24650  0.33560  Biso   1.000  H
  C225     1.0000 0.14060  0.85940  0.40710  Biso   1.000  C
  C226     1.0000 0.12900  0.87100  0.46290  Biso   1.000  C
  C227     1.0000 0.12640  0.87360  0.58100  Biso   1.000  C
  H225     1.0000 0.15500  0.84500  0.58080  Biso   1.000  H
  H226     1.0000 0.11765  0.88235  0.61950  Biso   1.000  H
  C228     1.0000 0.14970  0.85030  0.28820  Biso   1.000  C
  H227     1.0000 0.12185  0.87815  0.27860  Biso   1.000  H
  H228     1.0000 0.16440  0.83560  0.25350  Biso   1.000  H
  C229     1.0000 0.64060  0.35940  0.90710  Biso   1.000  C
  C230     1.0000 0.62900  0.37100  0.96290  Biso   1.000  C
  C231     1.0000 0.62640  0.37360  0.08100  Biso   1.000  C
  H229     1.0000 0.65500  0.34500  0.08080  Biso   1.000  H
  H230     1.0000 0.61765  0.38235  0.11950  Biso   1.000  H
  C232     1.0000 0.64970  0.35030  0.78820  Biso   1.000  C
  H231     1.0000 0.62185  0.37815  0.77860  Biso   1.000  H
  H232     1.0000 0.66440  0.33560  0.75350  Biso   1.000  H
  C233     1.0000 0.14060  0.14060  0.59290  Biso   1.000  C
  C234     1.0000 0.12900  0.12900  0.53710  Biso   1.000  C
  C235     1.0000 0.12640  0.12640  0.41900  Biso   1.000  C
  H233     1.0000 0.15500  0.15500  0.41920  Biso   1.000  H
  H234     1.0000 0.11765  0.11765  0.38050  Biso   1.000  H
  C236     1.0000 0.14970  0.14970  0.71180  Biso   1.000  C
  H235     1.0000 0.12185  0.12185  0.72140  Biso   1.000  H
  H236     1.0000 0.16440  0.16440  0.74650  Biso   1.000  H
  C237     1.0000 0.64060  0.64060  0.09290  Biso   1.000  C
  C238     1.0000 0.62900  0.62900  0.03710  Biso   1.000  C
  C239     1.0000 0.62640  0.62640  0.91900  Biso   1.000  C
  H237     1.0000 0.65500  0.65500  0.91920  Biso   1.000  H
  H238     1.0000 0.61765  0.61765  0.88050  Biso   1.000  H
  C240     1.0000 0.64970  0.64970  0.21180  Biso   1.000  C
  H239     1.0000 0.62185  0.62185  0.22140  Biso   1.000  H
  H240     1.0000 0.66440  0.66440  0.24650  Biso   1.000  H
  C241     1.0000 0.85940  0.14060  0.40710  Biso   1.000  C
  C242     1.0000 0.87100  0.12900  0.46290  Biso   1.000  C
  C243     1.0000 0.87360  0.12640  0.58100  Biso   1.000  C
  H241     1.0000 0.84500  0.15500  0.58080  Biso   1.000  H
  H242     1.0000 0.88235  0.11765  0.61950  Biso   1.000  H
  C244     1.0000 0.85030  0.14970  0.28820  Biso   1.000  C
  H243     1.0000 0.87815  0.12185  0.27860  Biso   1.000  H
  H244     1.0000 0.83560  0.16440  0.25350  Biso   1.000  H
  C245     1.0000 0.35940  0.64060  0.90710  Biso   1.000  C
  C246     1.0000 0.37100  0.62900  0.96290  Biso   1.000  C
  C247     1.0000 0.37360  0.62640  0.08100  Biso   1.000  C
  H245     1.0000 0.34500  0.65500  0.08080  Biso   1.000  H
  H246     1.0000 0.38235  0.61765  0.11950  Biso   1.000  H
  C248     1.0000 0.35030  0.64970  0.78820  Biso   1.000  C
  H247     1.0000 0.37815  0.62185  0.77860  Biso   1.000  H
  H248     1.0000 0.33560  0.66440  0.75350  Biso   1.000  H
  C249     1.0000 0.85940  0.85940  0.59290  Biso   1.000  C
  C250     1.0000 0.87100  0.87100  0.53710  Biso   1.000  C
  C251     1.0000 0.87360  0.87360  0.41900  Biso   1.000  C
  H249     1.0000 0.84500  0.84500  0.41920  Biso   1.000  H
  H250     1.0000 0.88235  0.88235  0.38050  Biso   1.000  H
  C252     1.0000 0.85030  0.85030  0.71180  Biso   1.000  C
  H251     1.0000 0.87815  0.87815  0.72140  Biso   1.000  H
  H252     1.0000 0.83560  0.83560  0.74650  Biso   1.000  H
  C253     1.0000 0.35940  0.35940  0.09290  Biso   1.000  C
  C254     1.0000 0.37100  0.37100  0.03710  Biso   1.000  C
  C255     1.0000 0.37360  0.37360  0.91900  Biso   1.000  C
  H253     1.0000 0.34500  0.34500  0.91920  Biso   1.000  H
  H254     1.0000 0.38235  0.38235  0.88050  Biso   1.000  H
  C256     1.0000 0.35030  0.35030  0.21180  Biso   1.000  C
  H255     1.0000 0.37815  0.37815  0.22140  Biso   1.000  H
  H256     1.0000 0.33560  0.33560  0.24650  Biso   1.000  H
  C257     1.0000 0.40710  0.14060  0.85940  Biso   1.000  C
  C258     1.0000 0.46290  0.12900  0.87100  Biso   1.000  C
  C259     1.0000 0.58100  0.12640  0.87360  Biso   1.000  C
  H257     1.0000 0.58080  0.15500  0.84500  Biso   1.000  H
  H258     1.0000 0.61950  0.11765  0.88235  Biso   1.000  H
  C260     1.0000 0.28820  0.14970  0.85030  Biso   1.000  C
  H259     1.0000 0.27860  0.12185  0.87815  Biso   1.000  H
  H260     1.0000 0.25350  0.16440  0.83560  Biso   1.000  H
  C261     1.0000 0.90710  0.64060  0.35940  Biso   1.000  C
  C262     1.0000 0.96290  0.62900  0.37100  Biso   1.000  C
  C263     1.0000 0.08100  0.62640  0.37360  Biso   1.000  C
  H261     1.0000 0.08080  0.65500  0.34500  Biso   1.000  H
  H262     1.0000 0.11950  0.61765  0.38235  Biso   1.000  H
  C264     1.0000 0.78820  0.64970  0.35030  Biso   1.000  C
  H263     1.0000 0.77860  0.62185  0.37815  Biso   1.000  H
  H264     1.0000 0.75350  0.66440  0.33560  Biso   1.000  H
  C265     1.0000 0.59290  0.14060  0.14060  Biso   1.000  C
  C266     1.0000 0.53710  0.12900  0.12900  Biso   1.000  C
  C267     1.0000 0.41900  0.12640  0.12640  Biso   1.000  C
  H265     1.0000 0.41920  0.15500  0.15500  Biso   1.000  H
  H266     1.0000 0.38050  0.11765  0.11765  Biso   1.000  H
  C268     1.0000 0.71180  0.14970  0.14970  Biso   1.000  C
  H267     1.0000 0.72140  0.12185  0.12185  Biso   1.000  H
  H268     1.0000 0.74650  0.16440  0.16440  Biso   1.000  H
  C269     1.0000 0.09290  0.64060  0.64060  Biso   1.000  C
  C270     1.0000 0.03710  0.62900  0.62900  Biso   1.000  C
  C271     1.0000 0.91900  0.62640  0.62640  Biso   1.000  C
  H269     1.0000 0.91920  0.65500  0.65500  Biso   1.000  H
  H270     1.0000 0.88050  0.61765  0.61765  Biso   1.000  H
  C272     1.0000 0.21180  0.64970  0.64970  Biso   1.000  C
  H271     1.0000 0.22140  0.62185  0.62185  Biso   1.000  H
  H272     1.0000 0.24650  0.66440  0.66440  Biso   1.000  H
  C273     1.0000 0.40710  0.85940  0.14060  Biso   1.000  C
  C274     1.0000 0.46290  0.87100  0.12900  Biso   1.000  C
  C275     1.0000 0.58100  0.87360  0.12640  Biso   1.000  C
  H273     1.0000 0.58080  0.84500  0.15500  Biso   1.000  H
  H274     1.0000 0.61950  0.88235  0.11765  Biso   1.000  H
  C276     1.0000 0.28820  0.85030  0.14970  Biso   1.000  C
  H275     1.0000 0.27860  0.87815  0.12185  Biso   1.000  H
  H276     1.0000 0.25350  0.83560  0.16440  Biso   1.000  H
  C277     1.0000 0.90710  0.35940  0.64060  Biso   1.000  C
  C278     1.0000 0.96290  0.37100  0.62900  Biso   1.000  C
  C279     1.0000 0.08100  0.37360  0.62640  Biso   1.000  C
  H277     1.0000 0.08080  0.34500  0.65500  Biso   1.000  H
  H278     1.0000 0.11950  0.38235  0.61765  Biso   1.000  H
  C280     1.0000 0.78820  0.35030  0.64970  Biso   1.000  C
  H279     1.0000 0.77860  0.37815  0.62185  Biso   1.000  H
  H280     1.0000 0.75350  0.33560  0.66440  Biso   1.000  H
  C281     1.0000 0.59290  0.85940  0.85940  Biso   1.000  C
  C282     1.0000 0.53710  0.87100  0.87100  Biso   1.000  C
  C283     1.0000 0.41900  0.87360  0.87360  Biso   1.000  C
  H281     1.0000 0.41920  0.84500  0.84500  Biso   1.000  H
  H282     1.0000 0.38050  0.88235  0.88235  Biso   1.000  H
  C284     1.0000 0.71180  0.85030  0.85030  Biso   1.000  C
  H283     1.0000 0.72140  0.87815  0.87815  Biso   1.000  H
  H284     1.0000 0.74650  0.83560  0.83560  Biso   1.000  H
  C285     1.0000 0.09290  0.35940  0.35940  Biso   1.000  C
  C286     1.0000 0.03710  0.37100  0.37100  Biso   1.000  C
  C287     1.0000 0.91900  0.37360  0.37360  Biso   1.000  C
  H285     1.0000 0.91920  0.34500  0.34500  Biso   1.000  H
  H286     1.0000 0.88050  0.38235  0.38235  Biso   1.000  H
  C288     1.0000 0.21180  0.35030  0.35030  Biso   1.000  C
  H287     1.0000 0.22140  0.37815  0.37815  Biso   1.000  H
  H288     1.0000 0.24650  0.33560  0.33560  Biso   1.000  H
