data_image0
_cell_length_a       15.1123
_cell_length_b       19.9069
_cell_length_c       31.2591
_cell_angle_alpha    90
_cell_angle_beta     90
_cell_angle_gamma    90

_symmetry_space_group_name_H-M    "P 1"
_symmetry_int_tables_number       1

loop_
  _symmetry_equiv_pos_as_xyz
  'x, y, z'

loop_
  _atom_site_label
  _atom_site_occupancy
  _atom_site_fract_x
  _atom_site_fract_y
  _atom_site_fract_z
  _atom_site_thermal_displace_type
  _atom_site_B_iso_or_equiv
  _atom_site_type_symbol
  Zn1      1.0000 0.10911  0.19556  0.14187  Biso   1.000  Zn
  N1       1.0000 0.09940  0.19330  0.21284  Biso   1.000  N
  C1       1.0000 0.13350  0.24120  0.23728  Biso   1.000  C
  H1       1.0000 0.16100  0.27730  0.22380  Biso   1.000  H
  C2       1.0000 0.13070  0.24090  0.28154  Biso   1.000  C
  H2       1.0000 0.15590  0.27590  0.29710  Biso   1.000  H
  C3       1.0000 0.09020  0.18840  0.30225  Biso   1.000  C
  C4       1.0000 0.05590  0.13770  0.27717  Biso   1.000  C
  H3       1.0000 0.02900  0.10080  0.28990  Biso   1.000  H
  C5       1.0000 0.06160  0.14160  0.23321  Biso   1.000  C
  H4       1.0000 0.03800  0.10670  0.21700  Biso   1.000  H
  C6       1.0000 0.08100  0.18240  0.35020  Biso   1.000  C
  O1       1.0000 0.04860  0.13260  0.36638  Biso   1.000  O
  N2       1.0000 0.11050  0.23550  0.37256  Biso   1.000  N
  N3       1.0000 0.10830  0.23260  0.41670  Biso   1.000  N
  C7       1.0000 0.12200  0.28790  0.43576  Biso   1.000  C
  H5       1.0000 0.13260  0.32670  0.42000  Biso   1.000  H
  C8       1.0000 0.12120  0.29090  0.48236  Biso   1.000  C
  C9       1.0000 0.11570  0.35050  0.50430  Biso   1.000  C
  H6       1.0000 0.11370  0.39070  0.48920  Biso   1.000  H
  C10      1.0000 0.11310  0.35150  0.54880  Biso   1.000  C
  H7       1.0000 0.10640  0.39260  0.56250  Biso   1.000  H
  N4       1.0000 0.11970  0.29760  0.57186  Biso   1.000  N
  C11      1.0000 0.12750  0.23970  0.55080  Biso   1.000  C
  H8       1.0000 0.13230  0.20040  0.56680  Biso   1.000  H
  C12      1.0000 0.12870  0.23460  0.50690  Biso   1.000  C
  H9       1.0000 0.13470  0.19270  0.49400  Biso   1.000  H
  C13      1.0000 0.36330  0.90830  0.14042  Biso   1.000  C
  C14      1.0000 0.27160  0.91440  0.13870  Biso   1.000  C
  H10      1.0000 0.23660  0.87600  0.13710  Biso   1.000  H
  C15      1.0000 0.23220  0.97680  0.13930  Biso   1.000  C
  H11      1.0000 0.17090  0.98050  0.13790  Biso   1.000  H
  C16      1.0000 0.28420  0.03390  0.14194  Biso   1.000  C
  C17      1.0000 0.37530  0.02820  0.14184  Biso   1.000  C
  H12      1.0000 0.41030  0.06660  0.14240  Biso   1.000  H
  C18      1.0000 0.41460  0.96510  0.14093  Biso   1.000  C
  H13      1.0000 0.47590  0.96140  0.14070  Biso   1.000  H
  C19      1.0000 0.24050  0.10190  0.14458  Biso   1.000  C
  O2       1.0000 0.15670  0.10236  0.14123  Biso   1.000  O
  O3       1.0000 0.28540  0.15330  0.14983  Biso   1.000  O
  C20      1.0000 0.40280  0.83950  0.14146  Biso   1.000  C
  O4       1.0000 0.48310  0.83420  0.13677  Biso   1.000  O
  O5       1.0000 0.35010  0.79043  0.14664  Biso   1.000  O
  H14      1.0000 0.12900  0.27500  0.36420  Biso   1.000  H
  Zn2      1.0000 0.60911  0.69556  0.64187  Biso   1.000  Zn
  N5       1.0000 0.59940  0.69330  0.71284  Biso   1.000  N
  C21      1.0000 0.63350  0.74120  0.73728  Biso   1.000  C
  H15      1.0000 0.66100  0.77730  0.72380  Biso   1.000  H
  C22      1.0000 0.63070  0.74090  0.78154  Biso   1.000  C
  H16      1.0000 0.65590  0.77590  0.79710  Biso   1.000  H
  C23      1.0000 0.59020  0.68840  0.80225  Biso   1.000  C
  C24      1.0000 0.55590  0.63770  0.77717  Biso   1.000  C
  H17      1.0000 0.52900  0.60080  0.78990  Biso   1.000  H
  C25      1.0000 0.56160  0.64160  0.73321  Biso   1.000  C
  H18      1.0000 0.53800  0.60670  0.71700  Biso   1.000  H
  C26      1.0000 0.58100  0.68240  0.85020  Biso   1.000  C
  O6       1.0000 0.54860  0.63260  0.86638  Biso   1.000  O
  N6       1.0000 0.61050  0.73550  0.87256  Biso   1.000  N
  N7       1.0000 0.60830  0.73260  0.91670  Biso   1.000  N
  C27      1.0000 0.62200  0.78790  0.93576  Biso   1.000  C
  H19      1.0000 0.63260  0.82670  0.92000  Biso   1.000  H
  C28      1.0000 0.62120  0.79090  0.98236  Biso   1.000  C
  C29      1.0000 0.61570  0.85050  0.00430  Biso   1.000  C
  H20      1.0000 0.61370  0.89070  0.98920  Biso   1.000  H
  C30      1.0000 0.61310  0.85150  0.04880  Biso   1.000  C
  H21      1.0000 0.60640  0.89260  0.06250  Biso   1.000  H
  N8       1.0000 0.61970  0.79760  0.07186  Biso   1.000  N
  C31      1.0000 0.62750  0.73970  0.05080  Biso   1.000  C
  H22      1.0000 0.63230  0.70040  0.06680  Biso   1.000  H
  C32      1.0000 0.62870  0.73460  0.00690  Biso   1.000  C
  H23      1.0000 0.63470  0.69270  0.99400  Biso   1.000  H
  C33      1.0000 0.86330  0.40830  0.64042  Biso   1.000  C
  C34      1.0000 0.77160  0.41440  0.63870  Biso   1.000  C
  H24      1.0000 0.73660  0.37600  0.63710  Biso   1.000  H
  C35      1.0000 0.73220  0.47680  0.63930  Biso   1.000  C
  H25      1.0000 0.67090  0.48050  0.63790  Biso   1.000  H
  C36      1.0000 0.78420  0.53390  0.64194  Biso   1.000  C
  C37      1.0000 0.87530  0.52820  0.64184  Biso   1.000  C
  H26      1.0000 0.91030  0.56660  0.64240  Biso   1.000  H
  C38      1.0000 0.91460  0.46510  0.64093  Biso   1.000  C
  H27      1.0000 0.97590  0.46140  0.64070  Biso   1.000  H
  C39      1.0000 0.74050  0.60190  0.64458  Biso   1.000  C
  O7       1.0000 0.65670  0.60236  0.64123  Biso   1.000  O
  O8       1.0000 0.78540  0.65330  0.64983  Biso   1.000  O
  C40      1.0000 0.90280  0.33950  0.64146  Biso   1.000  C
  O9       1.0000 0.98310  0.33420  0.63677  Biso   1.000  O
  O10      1.0000 0.85010  0.29043  0.64664  Biso   1.000  O
  H28      1.0000 0.62900  0.77500  0.86420  Biso   1.000  H
  Zn3      1.0000 0.39089  0.80444  0.64187  Biso   1.000  Zn
  N9       1.0000 0.40060  0.80670  0.71284  Biso   1.000  N
  C41      1.0000 0.36650  0.75880  0.73728  Biso   1.000  C
  H29      1.0000 0.33900  0.72270  0.72380  Biso   1.000  H
  C42      1.0000 0.36930  0.75910  0.78154  Biso   1.000  C
  H30      1.0000 0.34410  0.72410  0.79710  Biso   1.000  H
  C43      1.0000 0.40980  0.81160  0.80225  Biso   1.000  C
  C44      1.0000 0.44410  0.86230  0.77717  Biso   1.000  C
  H31      1.0000 0.47100  0.89920  0.78990  Biso   1.000  H
  C45      1.0000 0.43840  0.85840  0.73321  Biso   1.000  C
  H32      1.0000 0.46200  0.89330  0.71700  Biso   1.000  H
  C46      1.0000 0.41900  0.81760  0.85020  Biso   1.000  C
  O11      1.0000 0.45140  0.86740  0.86638  Biso   1.000  O
  N10      1.0000 0.38950  0.76450  0.87256  Biso   1.000  N
  N11      1.0000 0.39170  0.76740  0.91670  Biso   1.000  N
  C47      1.0000 0.37800  0.71210  0.93576  Biso   1.000  C
  H33      1.0000 0.36740  0.67330  0.92000  Biso   1.000  H
  C48      1.0000 0.37880  0.70910  0.98236  Biso   1.000  C
  C49      1.0000 0.38430  0.64950  0.00430  Biso   1.000  C
  H34      1.0000 0.38630  0.60930  0.98920  Biso   1.000  H
  C50      1.0000 0.38690  0.64850  0.04880  Biso   1.000  C
  H35      1.0000 0.39360  0.60740  0.06250  Biso   1.000  H
  N12      1.0000 0.38030  0.70240  0.07186  Biso   1.000  N
  C51      1.0000 0.37250  0.76030  0.05080  Biso   1.000  C
  H36      1.0000 0.36770  0.79960  0.06680  Biso   1.000  H
  C52      1.0000 0.37130  0.76540  0.00690  Biso   1.000  C
  H37      1.0000 0.36530  0.80730  0.99400  Biso   1.000  H
  C53      1.0000 0.13670  0.09170  0.64042  Biso   1.000  C
  C54      1.0000 0.22840  0.08560  0.63870  Biso   1.000  C
  H38      1.0000 0.26340  0.12400  0.63710  Biso   1.000  H
  C55      1.0000 0.26780  0.02320  0.63930  Biso   1.000  C
  H39      1.0000 0.32910  0.01950  0.63790  Biso   1.000  H
  C56      1.0000 0.21580  0.96610  0.64194  Biso   1.000  C
  C57      1.0000 0.12470  0.97180  0.64184  Biso   1.000  C
  H40      1.0000 0.08970  0.93340  0.64240  Biso   1.000  H
  C58      1.0000 0.08540  0.03490  0.64093  Biso   1.000  C
  H41      1.0000 0.02410  0.03860  0.64070  Biso   1.000  H
  C59      1.0000 0.25950  0.89810  0.64458  Biso   1.000  C
  O12      1.0000 0.34330  0.89764  0.64123  Biso   1.000  O
  O13      1.0000 0.21460  0.84670  0.64983  Biso   1.000  O
  C60      1.0000 0.09720  0.16050  0.64146  Biso   1.000  C
  O14      1.0000 0.01690  0.16580  0.63677  Biso   1.000  O
  O15      1.0000 0.14990  0.20957  0.64664  Biso   1.000  O
  H42      1.0000 0.37100  0.72500  0.86420  Biso   1.000  H
  Zn4      1.0000 0.89089  0.30444  0.14187  Biso   1.000  Zn
  N13      1.0000 0.90060  0.30670  0.21284  Biso   1.000  N
  C61      1.0000 0.86650  0.25880  0.23728  Biso   1.000  C
  H43      1.0000 0.83900  0.22270  0.22380  Biso   1.000  H
  C62      1.0000 0.86930  0.25910  0.28154  Biso   1.000  C
  H44      1.0000 0.84410  0.22410  0.29710  Biso   1.000  H
  C63      1.0000 0.90980  0.31160  0.30225  Biso   1.000  C
  C64      1.0000 0.94410  0.36230  0.27717  Biso   1.000  C
  H45      1.0000 0.97100  0.39920  0.28990  Biso   1.000  H
  C65      1.0000 0.93840  0.35840  0.23321  Biso   1.000  C
  H46      1.0000 0.96200  0.39330  0.21700  Biso   1.000  H
  C66      1.0000 0.91900  0.31760  0.35020  Biso   1.000  C
  O16      1.0000 0.95140  0.36740  0.36638  Biso   1.000  O
  N14      1.0000 0.88950  0.26450  0.37256  Biso   1.000  N
  N15      1.0000 0.89170  0.26740  0.41670  Biso   1.000  N
  C67      1.0000 0.87800  0.21210  0.43576  Biso   1.000  C
  H47      1.0000 0.86740  0.17330  0.42000  Biso   1.000  H
  C68      1.0000 0.87880  0.20910  0.48236  Biso   1.000  C
  C69      1.0000 0.88430  0.14950  0.50430  Biso   1.000  C
  H48      1.0000 0.88630  0.10930  0.48920  Biso   1.000  H
  C70      1.0000 0.88690  0.14850  0.54880  Biso   1.000  C
  H49      1.0000 0.89360  0.10740  0.56250  Biso   1.000  H
  N16      1.0000 0.88030  0.20240  0.57186  Biso   1.000  N
  C71      1.0000 0.87250  0.26030  0.55080  Biso   1.000  C
  H50      1.0000 0.86770  0.29960  0.56680  Biso   1.000  H
  C72      1.0000 0.87130  0.26540  0.50690  Biso   1.000  C
  H51      1.0000 0.86530  0.30730  0.49400  Biso   1.000  H
  C73      1.0000 0.63670  0.59170  0.14042  Biso   1.000  C
  C74      1.0000 0.72840  0.58560  0.13870  Biso   1.000  C
  H52      1.0000 0.76340  0.62400  0.13710  Biso   1.000  H
  C75      1.0000 0.76780  0.52320  0.13930  Biso   1.000  C
  H53      1.0000 0.82910  0.51950  0.13790  Biso   1.000  H
  C76      1.0000 0.71580  0.46610  0.14194  Biso   1.000  C
  C77      1.0000 0.62470  0.47180  0.14184  Biso   1.000  C
  H54      1.0000 0.58970  0.43340  0.14240  Biso   1.000  H
  C78      1.0000 0.58540  0.53490  0.14093  Biso   1.000  C
  H55      1.0000 0.52410  0.53860  0.14070  Biso   1.000  H
  C79      1.0000 0.75950  0.39810  0.14458  Biso   1.000  C
  O17      1.0000 0.84330  0.39764  0.14123  Biso   1.000  O
  O18      1.0000 0.71460  0.34670  0.14983  Biso   1.000  O
  C80      1.0000 0.59720  0.66050  0.14146  Biso   1.000  C
  O19      1.0000 0.51690  0.66580  0.13677  Biso   1.000  O
  O20      1.0000 0.64990  0.70957  0.14664  Biso   1.000  O
  H56      1.0000 0.87100  0.22500  0.36420  Biso   1.000  H
  Zn5      1.0000 0.10911  0.30444  0.64187  Biso   1.000  Zn
  N17      1.0000 0.09940  0.30670  0.71284  Biso   1.000  N
  C81      1.0000 0.13350  0.25880  0.73728  Biso   1.000  C
  H57      1.0000 0.16100  0.22270  0.72380  Biso   1.000  H
  C82      1.0000 0.13070  0.25910  0.78154  Biso   1.000  C
  H58      1.0000 0.15590  0.22410  0.79710  Biso   1.000  H
  C83      1.0000 0.09020  0.31160  0.80225  Biso   1.000  C
  C84      1.0000 0.05590  0.36230  0.77717  Biso   1.000  C
  H59      1.0000 0.02900  0.39920  0.78990  Biso   1.000  H
  C85      1.0000 0.06160  0.35840  0.73321  Biso   1.000  C
  H60      1.0000 0.03800  0.39330  0.71700  Biso   1.000  H
  C86      1.0000 0.08100  0.31760  0.85020  Biso   1.000  C
  O21      1.0000 0.04860  0.36740  0.86638  Biso   1.000  O
  N18      1.0000 0.11050  0.26450  0.87256  Biso   1.000  N
  N19      1.0000 0.10830  0.26740  0.91670  Biso   1.000  N
  C87      1.0000 0.12200  0.21210  0.93576  Biso   1.000  C
  H61      1.0000 0.13260  0.17330  0.92000  Biso   1.000  H
  C88      1.0000 0.12120  0.20910  0.98236  Biso   1.000  C
  C89      1.0000 0.11570  0.14950  0.00430  Biso   1.000  C
  H62      1.0000 0.11370  0.10930  0.98920  Biso   1.000  H
  C90      1.0000 0.11310  0.14850  0.04880  Biso   1.000  C
  H63      1.0000 0.10640  0.10740  0.06250  Biso   1.000  H
  N20      1.0000 0.11970  0.20240  0.07186  Biso   1.000  N
  C91      1.0000 0.12750  0.26030  0.05080  Biso   1.000  C
  H64      1.0000 0.13230  0.29960  0.06680  Biso   1.000  H
  C92      1.0000 0.12870  0.26540  0.00690  Biso   1.000  C
  H65      1.0000 0.13470  0.30730  0.99400  Biso   1.000  H
  C93      1.0000 0.36330  0.59170  0.64042  Biso   1.000  C
  C94      1.0000 0.27160  0.58560  0.63870  Biso   1.000  C
  H66      1.0000 0.23660  0.62400  0.63710  Biso   1.000  H
  C95      1.0000 0.23220  0.52320  0.63930  Biso   1.000  C
  H67      1.0000 0.17090  0.51950  0.63790  Biso   1.000  H
  C96      1.0000 0.28420  0.46610  0.64194  Biso   1.000  C
  C97      1.0000 0.37530  0.47180  0.64184  Biso   1.000  C
  H68      1.0000 0.41030  0.43340  0.64240  Biso   1.000  H
  C98      1.0000 0.41460  0.53490  0.64093  Biso   1.000  C
  H69      1.0000 0.47590  0.53860  0.64070  Biso   1.000  H
  C99      1.0000 0.24050  0.39810  0.64458  Biso   1.000  C
  O22      1.0000 0.15670  0.39764  0.64123  Biso   1.000  O
  O23      1.0000 0.28540  0.34670  0.64983  Biso   1.000  O
  C100     1.0000 0.40280  0.66050  0.64146  Biso   1.000  C
  O24      1.0000 0.48310  0.66580  0.63677  Biso   1.000  O
  O25      1.0000 0.35010  0.70957  0.64664  Biso   1.000  O
  H70      1.0000 0.12900  0.22500  0.86420  Biso   1.000  H
  Zn6      1.0000 0.60911  0.80444  0.14187  Biso   1.000  Zn
  N21      1.0000 0.59940  0.80670  0.21284  Biso   1.000  N
  C101     1.0000 0.63350  0.75880  0.23728  Biso   1.000  C
  H71      1.0000 0.66100  0.72270  0.22380  Biso   1.000  H
  C102     1.0000 0.63070  0.75910  0.28154  Biso   1.000  C
  H72      1.0000 0.65590  0.72410  0.29710  Biso   1.000  H
  C103     1.0000 0.59020  0.81160  0.30225  Biso   1.000  C
  C104     1.0000 0.55590  0.86230  0.27717  Biso   1.000  C
  H73      1.0000 0.52900  0.89920  0.28990  Biso   1.000  H
  C105     1.0000 0.56160  0.85840  0.23321  Biso   1.000  C
  H74      1.0000 0.53800  0.89330  0.21700  Biso   1.000  H
  C106     1.0000 0.58100  0.81760  0.35020  Biso   1.000  C
  O26      1.0000 0.54860  0.86740  0.36638  Biso   1.000  O
  N22      1.0000 0.61050  0.76450  0.37256  Biso   1.000  N
  N23      1.0000 0.60830  0.76740  0.41670  Biso   1.000  N
  C107     1.0000 0.62200  0.71210  0.43576  Biso   1.000  C
  H75      1.0000 0.63260  0.67330  0.42000  Biso   1.000  H
  C108     1.0000 0.62120  0.70910  0.48236  Biso   1.000  C
  C109     1.0000 0.61570  0.64950  0.50430  Biso   1.000  C
  H76      1.0000 0.61370  0.60930  0.48920  Biso   1.000  H
  C110     1.0000 0.61310  0.64850  0.54880  Biso   1.000  C
  H77      1.0000 0.60640  0.60740  0.56250  Biso   1.000  H
  N24      1.0000 0.61970  0.70240  0.57186  Biso   1.000  N
  C111     1.0000 0.62750  0.76030  0.55080  Biso   1.000  C
  H78      1.0000 0.63230  0.79960  0.56680  Biso   1.000  H
  C112     1.0000 0.62870  0.76540  0.50690  Biso   1.000  C
  H79      1.0000 0.63470  0.80730  0.49400  Biso   1.000  H
  C113     1.0000 0.86330  0.09170  0.14042  Biso   1.000  C
  C114     1.0000 0.77160  0.08560  0.13870  Biso   1.000  C
  H80      1.0000 0.73660  0.12400  0.13710  Biso   1.000  H
  C115     1.0000 0.73220  0.02320  0.13930  Biso   1.000  C
  H81      1.0000 0.67090  0.01950  0.13790  Biso   1.000  H
  C116     1.0000 0.78420  0.96610  0.14194  Biso   1.000  C
  C117     1.0000 0.87530  0.97180  0.14184  Biso   1.000  C
  H82      1.0000 0.91030  0.93340  0.14240  Biso   1.000  H
  C118     1.0000 0.91460  0.03490  0.14093  Biso   1.000  C
  H83      1.0000 0.97590  0.03860  0.14070  Biso   1.000  H
  C119     1.0000 0.74050  0.89810  0.14458  Biso   1.000  C
  O27      1.0000 0.65670  0.89764  0.14123  Biso   1.000  O
  O28      1.0000 0.78540  0.84670  0.14983  Biso   1.000  O
  C120     1.0000 0.90280  0.16050  0.14146  Biso   1.000  C
  O29      1.0000 0.98310  0.16580  0.13677  Biso   1.000  O
  O30      1.0000 0.85010  0.20957  0.14664  Biso   1.000  O
  H84      1.0000 0.62900  0.72500  0.36420  Biso   1.000  H
  Zn7      1.0000 0.39089  0.69556  0.14187  Biso   1.000  Zn
  N25      1.0000 0.40060  0.69330  0.21284  Biso   1.000  N
  C121     1.0000 0.36650  0.74120  0.23728  Biso   1.000  C
  H85      1.0000 0.33900  0.77730  0.22380  Biso   1.000  H
  C122     1.0000 0.36930  0.74090  0.28154  Biso   1.000  C
  H86      1.0000 0.34410  0.77590  0.29710  Biso   1.000  H
  C123     1.0000 0.40980  0.68840  0.30225  Biso   1.000  C
  C124     1.0000 0.44410  0.63770  0.27717  Biso   1.000  C
  H87      1.0000 0.47100  0.60080  0.28990  Biso   1.000  H
  C125     1.0000 0.43840  0.64160  0.23321  Biso   1.000  C
  H88      1.0000 0.46200  0.60670  0.21700  Biso   1.000  H
  C126     1.0000 0.41900  0.68240  0.35020  Biso   1.000  C
  O31      1.0000 0.45140  0.63260  0.36638  Biso   1.000  O
  N26      1.0000 0.38950  0.73550  0.37256  Biso   1.000  N
  N27      1.0000 0.39170  0.73260  0.41670  Biso   1.000  N
  C127     1.0000 0.37800  0.78790  0.43576  Biso   1.000  C
  H89      1.0000 0.36740  0.82670  0.42000  Biso   1.000  H
  C128     1.0000 0.37880  0.79090  0.48236  Biso   1.000  C
  C129     1.0000 0.38430  0.85050  0.50430  Biso   1.000  C
  H90      1.0000 0.38630  0.89070  0.48920  Biso   1.000  H
  C130     1.0000 0.38690  0.85150  0.54880  Biso   1.000  C
  H91      1.0000 0.39360  0.89260  0.56250  Biso   1.000  H
  N28      1.0000 0.38030  0.79760  0.57186  Biso   1.000  N
  C131     1.0000 0.37250  0.73970  0.55080  Biso   1.000  C
  H92      1.0000 0.36770  0.70040  0.56680  Biso   1.000  H
  C132     1.0000 0.37130  0.73460  0.50690  Biso   1.000  C
  H93      1.0000 0.36530  0.69270  0.49400  Biso   1.000  H
  C133     1.0000 0.13670  0.40830  0.14042  Biso   1.000  C
  C134     1.0000 0.22840  0.41440  0.13870  Biso   1.000  C
  H94      1.0000 0.26340  0.37600  0.13710  Biso   1.000  H
  C135     1.0000 0.26780  0.47680  0.13930  Biso   1.000  C
  H95      1.0000 0.32910  0.48050  0.13790  Biso   1.000  H
  C136     1.0000 0.21580  0.53390  0.14194  Biso   1.000  C
  C137     1.0000 0.12470  0.52820  0.14184  Biso   1.000  C
  H96      1.0000 0.08970  0.56660  0.14240  Biso   1.000  H
  C138     1.0000 0.08540  0.46510  0.14093  Biso   1.000  C
  H97      1.0000 0.02410  0.46140  0.14070  Biso   1.000  H
  C139     1.0000 0.25950  0.60190  0.14458  Biso   1.000  C
  O32      1.0000 0.34330  0.60236  0.14123  Biso   1.000  O
  O33      1.0000 0.21460  0.65330  0.14983  Biso   1.000  O
  C140     1.0000 0.09720  0.33950  0.14146  Biso   1.000  C
  O34      1.0000 0.01690  0.33420  0.13677  Biso   1.000  O
  O35      1.0000 0.14990  0.29043  0.14664  Biso   1.000  O
  H98      1.0000 0.37100  0.77500  0.36420  Biso   1.000  H
  Zn8      1.0000 0.89089  0.19556  0.64187  Biso   1.000  Zn
  N29      1.0000 0.90060  0.19330  0.71284  Biso   1.000  N
  C141     1.0000 0.86650  0.24120  0.73728  Biso   1.000  C
  H99      1.0000 0.83900  0.27730  0.72380  Biso   1.000  H
  C142     1.0000 0.86930  0.24090  0.78154  Biso   1.000  C
  H100     1.0000 0.84410  0.27590  0.79710  Biso   1.000  H
  C143     1.0000 0.90980  0.18840  0.80225  Biso   1.000  C
  C144     1.0000 0.94410  0.13770  0.77717  Biso   1.000  C
  H101     1.0000 0.97100  0.10080  0.78990  Biso   1.000  H
  C145     1.0000 0.93840  0.14160  0.73321  Biso   1.000  C
  H102     1.0000 0.96200  0.10670  0.71700  Biso   1.000  H
  C146     1.0000 0.91900  0.18240  0.85020  Biso   1.000  C
  O36      1.0000 0.95140  0.13260  0.86638  Biso   1.000  O
  N30      1.0000 0.88950  0.23550  0.87256  Biso   1.000  N
  N31      1.0000 0.89170  0.23260  0.91670  Biso   1.000  N
  C147     1.0000 0.87800  0.28790  0.93576  Biso   1.000  C
  H103     1.0000 0.86740  0.32670  0.92000  Biso   1.000  H
  C148     1.0000 0.87880  0.29090  0.98236  Biso   1.000  C
  C149     1.0000 0.88430  0.35050  0.00430  Biso   1.000  C
  H104     1.0000 0.88630  0.39070  0.98920  Biso   1.000  H
  C150     1.0000 0.88690  0.35150  0.04880  Biso   1.000  C
  H105     1.0000 0.89360  0.39260  0.06250  Biso   1.000  H
  N32      1.0000 0.88030  0.29760  0.07186  Biso   1.000  N
  C151     1.0000 0.87250  0.23970  0.05080  Biso   1.000  C
  H106     1.0000 0.86770  0.20040  0.06680  Biso   1.000  H
  C152     1.0000 0.87130  0.23460  0.00690  Biso   1.000  C
  H107     1.0000 0.86530  0.19270  0.99400  Biso   1.000  H
  C153     1.0000 0.63670  0.90830  0.64042  Biso   1.000  C
  C154     1.0000 0.72840  0.91440  0.63870  Biso   1.000  C
  H108     1.0000 0.76340  0.87600  0.63710  Biso   1.000  H
  C155     1.0000 0.76780  0.97680  0.63930  Biso   1.000  C
  H109     1.0000 0.82910  0.98050  0.63790  Biso   1.000  H
  C156     1.0000 0.71580  0.03390  0.64194  Biso   1.000  C
  C157     1.0000 0.62470  0.02820  0.64184  Biso   1.000  C
  H110     1.0000 0.58970  0.06660  0.64240  Biso   1.000  H
  C158     1.0000 0.58540  0.96510  0.64093  Biso   1.000  C
  H111     1.0000 0.52410  0.96140  0.64070  Biso   1.000  H
  C159     1.0000 0.75950  0.10190  0.64458  Biso   1.000  C
  O37      1.0000 0.84330  0.10236  0.64123  Biso   1.000  O
  O38      1.0000 0.71460  0.15330  0.64983  Biso   1.000  O
  C160     1.0000 0.59720  0.83950  0.64146  Biso   1.000  C
  O39      1.0000 0.51690  0.83420  0.63677  Biso   1.000  O
  O40      1.0000 0.64990  0.79043  0.64664  Biso   1.000  O
  H112     1.0000 0.87100  0.27500  0.86420  Biso   1.000  H
  Zn9      1.0000 0.89089  0.69556  0.35813  Biso   1.000  Zn
  N33      1.0000 0.90060  0.69330  0.28716  Biso   1.000  N
  C161     1.0000 0.86650  0.74120  0.26272  Biso   1.000  C
  H113     1.0000 0.83900  0.77730  0.27620  Biso   1.000  H
  C162     1.0000 0.86930  0.74090  0.21846  Biso   1.000  C
  H114     1.0000 0.84410  0.77590  0.20290  Biso   1.000  H
  C163     1.0000 0.90980  0.68840  0.19775  Biso   1.000  C
  C164     1.0000 0.94410  0.63770  0.22283  Biso   1.000  C
  H115     1.0000 0.97100  0.60080  0.21010  Biso   1.000  H
  C165     1.0000 0.93840  0.64160  0.26679  Biso   1.000  C
  H116     1.0000 0.96200  0.60670  0.28300  Biso   1.000  H
  C166     1.0000 0.91900  0.68240  0.14980  Biso   1.000  C
  O41      1.0000 0.95140  0.63260  0.13362  Biso   1.000  O
  N34      1.0000 0.88950  0.73550  0.12744  Biso   1.000  N
  N35      1.0000 0.89170  0.73260  0.08330  Biso   1.000  N
  C167     1.0000 0.87800  0.78790  0.06424  Biso   1.000  C
  H117     1.0000 0.86740  0.82670  0.08000  Biso   1.000  H
  C168     1.0000 0.87880  0.79090  0.01764  Biso   1.000  C
  C169     1.0000 0.88430  0.85050  0.99570  Biso   1.000  C
  H118     1.0000 0.88630  0.89070  0.01080  Biso   1.000  H
  C170     1.0000 0.88690  0.85150  0.95120  Biso   1.000  C
  H119     1.0000 0.89360  0.89260  0.93750  Biso   1.000  H
  N36      1.0000 0.88030  0.79760  0.92814  Biso   1.000  N
  C171     1.0000 0.87250  0.73970  0.94920  Biso   1.000  C
  H120     1.0000 0.86770  0.70040  0.93320  Biso   1.000  H
  C172     1.0000 0.87130  0.73460  0.99310  Biso   1.000  C
  H121     1.0000 0.86530  0.69270  0.00600  Biso   1.000  H
  C173     1.0000 0.63670  0.40830  0.35958  Biso   1.000  C
  C174     1.0000 0.72840  0.41440  0.36130  Biso   1.000  C
  H122     1.0000 0.76340  0.37600  0.36290  Biso   1.000  H
  C175     1.0000 0.76780  0.47680  0.36070  Biso   1.000  C
  H123     1.0000 0.82910  0.48050  0.36210  Biso   1.000  H
  C176     1.0000 0.71580  0.53390  0.35806  Biso   1.000  C
  C177     1.0000 0.62470  0.52820  0.35816  Biso   1.000  C
  H124     1.0000 0.58970  0.56660  0.35760  Biso   1.000  H
  C178     1.0000 0.58540  0.46510  0.35907  Biso   1.000  C
  H125     1.0000 0.52410  0.46140  0.35930  Biso   1.000  H
  C179     1.0000 0.75950  0.60190  0.35542  Biso   1.000  C
  O42      1.0000 0.84330  0.60236  0.35877  Biso   1.000  O
  O43      1.0000 0.71460  0.65330  0.35017  Biso   1.000  O
  C180     1.0000 0.59720  0.33950  0.35854  Biso   1.000  C
  O44      1.0000 0.51690  0.33420  0.36323  Biso   1.000  O
  O45      1.0000 0.64990  0.29043  0.35336  Biso   1.000  O
  H126     1.0000 0.87100  0.77500  0.13580  Biso   1.000  H
  Zn10     1.0000 0.39089  0.19556  0.85813  Biso   1.000  Zn
  N37      1.0000 0.40060  0.19330  0.78716  Biso   1.000  N
  C181     1.0000 0.36650  0.24120  0.76272  Biso   1.000  C
  H127     1.0000 0.33900  0.27730  0.77620  Biso   1.000  H
  C182     1.0000 0.36930  0.24090  0.71846  Biso   1.000  C
  H128     1.0000 0.34410  0.27590  0.70290  Biso   1.000  H
  C183     1.0000 0.40980  0.18840  0.69775  Biso   1.000  C
  C184     1.0000 0.44410  0.13770  0.72283  Biso   1.000  C
  H129     1.0000 0.47100  0.10080  0.71010  Biso   1.000  H
  C185     1.0000 0.43840  0.14160  0.76679  Biso   1.000  C
  H130     1.0000 0.46200  0.10670  0.78300  Biso   1.000  H
  C186     1.0000 0.41900  0.18240  0.64980  Biso   1.000  C
  O46      1.0000 0.45140  0.13260  0.63362  Biso   1.000  O
  N38      1.0000 0.38950  0.23550  0.62744  Biso   1.000  N
  N39      1.0000 0.39170  0.23260  0.58330  Biso   1.000  N
  C187     1.0000 0.37800  0.28790  0.56424  Biso   1.000  C
  H131     1.0000 0.36740  0.32670  0.58000  Biso   1.000  H
  C188     1.0000 0.37880  0.29090  0.51764  Biso   1.000  C
  C189     1.0000 0.38430  0.35050  0.49570  Biso   1.000  C
  H132     1.0000 0.38630  0.39070  0.51080  Biso   1.000  H
  C190     1.0000 0.38690  0.35150  0.45120  Biso   1.000  C
  H133     1.0000 0.39360  0.39260  0.43750  Biso   1.000  H
  N40      1.0000 0.38030  0.29760  0.42814  Biso   1.000  N
  C191     1.0000 0.37250  0.23970  0.44920  Biso   1.000  C
  H134     1.0000 0.36770  0.20040  0.43320  Biso   1.000  H
  C192     1.0000 0.37130  0.23460  0.49310  Biso   1.000  C
  H135     1.0000 0.36530  0.19270  0.50600  Biso   1.000  H
  C193     1.0000 0.13670  0.90830  0.85958  Biso   1.000  C
  C194     1.0000 0.22840  0.91440  0.86130  Biso   1.000  C
  H136     1.0000 0.26340  0.87600  0.86290  Biso   1.000  H
  C195     1.0000 0.26780  0.97680  0.86070  Biso   1.000  C
  H137     1.0000 0.32910  0.98050  0.86210  Biso   1.000  H
  C196     1.0000 0.21580  0.03390  0.85806  Biso   1.000  C
  C197     1.0000 0.12470  0.02820  0.85816  Biso   1.000  C
  H138     1.0000 0.08970  0.06660  0.85760  Biso   1.000  H
  C198     1.0000 0.08540  0.96510  0.85907  Biso   1.000  C
  H139     1.0000 0.02410  0.96140  0.85930  Biso   1.000  H
  C199     1.0000 0.25950  0.10190  0.85542  Biso   1.000  C
  O47      1.0000 0.34330  0.10236  0.85877  Biso   1.000  O
  O48      1.0000 0.21460  0.15330  0.85017  Biso   1.000  O
  C200     1.0000 0.09720  0.83950  0.85854  Biso   1.000  C
  O49      1.0000 0.01690  0.83420  0.86323  Biso   1.000  O
  O50      1.0000 0.14990  0.79043  0.85336  Biso   1.000  O
  H140     1.0000 0.37100  0.27500  0.63580  Biso   1.000  H
  Zn11     1.0000 0.60911  0.30444  0.85813  Biso   1.000  Zn
  N41      1.0000 0.59940  0.30670  0.78716  Biso   1.000  N
  C201     1.0000 0.63350  0.25880  0.76272  Biso   1.000  C
  H141     1.0000 0.66100  0.22270  0.77620  Biso   1.000  H
  C202     1.0000 0.63070  0.25910  0.71846  Biso   1.000  C
  H142     1.0000 0.65590  0.22410  0.70290  Biso   1.000  H
  C203     1.0000 0.59020  0.31160  0.69775  Biso   1.000  C
  C204     1.0000 0.55590  0.36230  0.72283  Biso   1.000  C
  H143     1.0000 0.52900  0.39920  0.71010  Biso   1.000  H
  C205     1.0000 0.56160  0.35840  0.76679  Biso   1.000  C
  H144     1.0000 0.53800  0.39330  0.78300  Biso   1.000  H
  C206     1.0000 0.58100  0.31760  0.64980  Biso   1.000  C
  O51      1.0000 0.54860  0.36740  0.63362  Biso   1.000  O
  N42      1.0000 0.61050  0.26450  0.62744  Biso   1.000  N
  N43      1.0000 0.60830  0.26740  0.58330  Biso   1.000  N
  C207     1.0000 0.62200  0.21210  0.56424  Biso   1.000  C
  H145     1.0000 0.63260  0.17330  0.58000  Biso   1.000  H
  C208     1.0000 0.62120  0.20910  0.51764  Biso   1.000  C
  C209     1.0000 0.61570  0.14950  0.49570  Biso   1.000  C
  H146     1.0000 0.61370  0.10930  0.51080  Biso   1.000  H
  C210     1.0000 0.61310  0.14850  0.45120  Biso   1.000  C
  H147     1.0000 0.60640  0.10740  0.43750  Biso   1.000  H
  N44      1.0000 0.61970  0.20240  0.42814  Biso   1.000  N
  C211     1.0000 0.62750  0.26030  0.44920  Biso   1.000  C
  H148     1.0000 0.63230  0.29960  0.43320  Biso   1.000  H
  C212     1.0000 0.62870  0.26540  0.49310  Biso   1.000  C
  H149     1.0000 0.63470  0.30730  0.50600  Biso   1.000  H
  C213     1.0000 0.86330  0.59170  0.85958  Biso   1.000  C
  C214     1.0000 0.77160  0.58560  0.86130  Biso   1.000  C
  H150     1.0000 0.73660  0.62400  0.86290  Biso   1.000  H
  C215     1.0000 0.73220  0.52320  0.86070  Biso   1.000  C
  H151     1.0000 0.67090  0.51950  0.86210  Biso   1.000  H
  C216     1.0000 0.78420  0.46610  0.85806  Biso   1.000  C
  C217     1.0000 0.87530  0.47180  0.85816  Biso   1.000  C
  H152     1.0000 0.91030  0.43340  0.85760  Biso   1.000  H
  C218     1.0000 0.91460  0.53490  0.85907  Biso   1.000  C
  H153     1.0000 0.97590  0.53860  0.85930  Biso   1.000  H
  C219     1.0000 0.74050  0.39810  0.85542  Biso   1.000  C
  O52      1.0000 0.65670  0.39764  0.85877  Biso   1.000  O
  O53      1.0000 0.78540  0.34670  0.85017  Biso   1.000  O
  C220     1.0000 0.90280  0.66050  0.85854  Biso   1.000  C
  O54      1.0000 0.98310  0.66580  0.86323  Biso   1.000  O
  O55      1.0000 0.85010  0.70957  0.85336  Biso   1.000  O
  H154     1.0000 0.62900  0.22500  0.63580  Biso   1.000  H
  Zn12     1.0000 0.10911  0.80444  0.35813  Biso   1.000  Zn
  N45      1.0000 0.09940  0.80670  0.28716  Biso   1.000  N
  C221     1.0000 0.13350  0.75880  0.26272  Biso   1.000  C
  H155     1.0000 0.16100  0.72270  0.27620  Biso   1.000  H
  C222     1.0000 0.13070  0.75910  0.21846  Biso   1.000  C
  H156     1.0000 0.15590  0.72410  0.20290  Biso   1.000  H
  C223     1.0000 0.09020  0.81160  0.19775  Biso   1.000  C
  C224     1.0000 0.05590  0.86230  0.22283  Biso   1.000  C
  H157     1.0000 0.02900  0.89920  0.21010  Biso   1.000  H
  C225     1.0000 0.06160  0.85840  0.26679  Biso   1.000  C
  H158     1.0000 0.03800  0.89330  0.28300  Biso   1.000  H
  C226     1.0000 0.08100  0.81760  0.14980  Biso   1.000  C
  O56      1.0000 0.04860  0.86740  0.13362  Biso   1.000  O
  N46      1.0000 0.11050  0.76450  0.12744  Biso   1.000  N
  N47      1.0000 0.10830  0.76740  0.08330  Biso   1.000  N
  C227     1.0000 0.12200  0.71210  0.06424  Biso   1.000  C
  H159     1.0000 0.13260  0.67330  0.08000  Biso   1.000  H
  C228     1.0000 0.12120  0.70910  0.01764  Biso   1.000  C
  C229     1.0000 0.11570  0.64950  0.99570  Biso   1.000  C
  H160     1.0000 0.11370  0.60930  0.01080  Biso   1.000  H
  C230     1.0000 0.11310  0.64850  0.95120  Biso   1.000  C
  H161     1.0000 0.10640  0.60740  0.93750  Biso   1.000  H
  N48      1.0000 0.11970  0.70240  0.92814  Biso   1.000  N
  C231     1.0000 0.12750  0.76030  0.94920  Biso   1.000  C
  H162     1.0000 0.13230  0.79960  0.93320  Biso   1.000  H
  C232     1.0000 0.12870  0.76540  0.99310  Biso   1.000  C
  H163     1.0000 0.13470  0.80730  0.00600  Biso   1.000  H
  C233     1.0000 0.36330  0.09170  0.35958  Biso   1.000  C
  C234     1.0000 0.27160  0.08560  0.36130  Biso   1.000  C
  H164     1.0000 0.23660  0.12400  0.36290  Biso   1.000  H
  C235     1.0000 0.23220  0.02320  0.36070  Biso   1.000  C
  H165     1.0000 0.17090  0.01950  0.36210  Biso   1.000  H
  C236     1.0000 0.28420  0.96610  0.35806  Biso   1.000  C
  C237     1.0000 0.37530  0.97180  0.35816  Biso   1.000  C
  H166     1.0000 0.41030  0.93340  0.35760  Biso   1.000  H
  C238     1.0000 0.41460  0.03490  0.35907  Biso   1.000  C
  H167     1.0000 0.47590  0.03860  0.35930  Biso   1.000  H
  C239     1.0000 0.24050  0.89810  0.35542  Biso   1.000  C
  O57      1.0000 0.15670  0.89764  0.35877  Biso   1.000  O
  O58      1.0000 0.28540  0.84670  0.35017  Biso   1.000  O
  C240     1.0000 0.40280  0.16050  0.35854  Biso   1.000  C
  O59      1.0000 0.48310  0.16580  0.36323  Biso   1.000  O
  O60      1.0000 0.35010  0.20957  0.35336  Biso   1.000  O
  H168     1.0000 0.12900  0.72500  0.13580  Biso   1.000  H
  Zn13     1.0000 0.89089  0.80444  0.85813  Biso   1.000  Zn
  N49      1.0000 0.90060  0.80670  0.78716  Biso   1.000  N
  C241     1.0000 0.86650  0.75880  0.76272  Biso   1.000  C
  H169     1.0000 0.83900  0.72270  0.77620  Biso   1.000  H
  C242     1.0000 0.86930  0.75910  0.71846  Biso   1.000  C
  H170     1.0000 0.84410  0.72410  0.70290  Biso   1.000  H
  C243     1.0000 0.90980  0.81160  0.69775  Biso   1.000  C
  C244     1.0000 0.94410  0.86230  0.72283  Biso   1.000  C
  H171     1.0000 0.97100  0.89920  0.71010  Biso   1.000  H
  C245     1.0000 0.93840  0.85840  0.76679  Biso   1.000  C
  H172     1.0000 0.96200  0.89330  0.78300  Biso   1.000  H
  C246     1.0000 0.91900  0.81760  0.64980  Biso   1.000  C
  O61      1.0000 0.95140  0.86740  0.63362  Biso   1.000  O
  N50      1.0000 0.88950  0.76450  0.62744  Biso   1.000  N
  N51      1.0000 0.89170  0.76740  0.58330  Biso   1.000  N
  C247     1.0000 0.87800  0.71210  0.56424  Biso   1.000  C
  H173     1.0000 0.86740  0.67330  0.58000  Biso   1.000  H
  C248     1.0000 0.87880  0.70910  0.51764  Biso   1.000  C
  C249     1.0000 0.88430  0.64950  0.49570  Biso   1.000  C
  H174     1.0000 0.88630  0.60930  0.51080  Biso   1.000  H
  C250     1.0000 0.88690  0.64850  0.45120  Biso   1.000  C
  H175     1.0000 0.89360  0.60740  0.43750  Biso   1.000  H
  N52      1.0000 0.88030  0.70240  0.42814  Biso   1.000  N
  C251     1.0000 0.87250  0.76030  0.44920  Biso   1.000  C
  H176     1.0000 0.86770  0.79960  0.43320  Biso   1.000  H
  C252     1.0000 0.87130  0.76540  0.49310  Biso   1.000  C
  H177     1.0000 0.86530  0.80730  0.50600  Biso   1.000  H
  C253     1.0000 0.63670  0.09170  0.85958  Biso   1.000  C
  C254     1.0000 0.72840  0.08560  0.86130  Biso   1.000  C
  H178     1.0000 0.76340  0.12400  0.86290  Biso   1.000  H
  C255     1.0000 0.76780  0.02320  0.86070  Biso   1.000  C
  H179     1.0000 0.82910  0.01950  0.86210  Biso   1.000  H
  C256     1.0000 0.71580  0.96610  0.85806  Biso   1.000  C
  C257     1.0000 0.62470  0.97180  0.85816  Biso   1.000  C
  H180     1.0000 0.58970  0.93340  0.85760  Biso   1.000  H
  C258     1.0000 0.58540  0.03490  0.85907  Biso   1.000  C
  H181     1.0000 0.52410  0.03860  0.85930  Biso   1.000  H
  C259     1.0000 0.75950  0.89810  0.85542  Biso   1.000  C
  O62      1.0000 0.84330  0.89764  0.85877  Biso   1.000  O
  O63      1.0000 0.71460  0.84670  0.85017  Biso   1.000  O
  C260     1.0000 0.59720  0.16050  0.85854  Biso   1.000  C
  O64      1.0000 0.51690  0.16580  0.86323  Biso   1.000  O
  O65      1.0000 0.64990  0.20957  0.85336  Biso   1.000  O
  H182     1.0000 0.87100  0.72500  0.63580  Biso   1.000  H
  Zn14     1.0000 0.39089  0.30444  0.35813  Biso   1.000  Zn
  N53      1.0000 0.40060  0.30670  0.28716  Biso   1.000  N
  C261     1.0000 0.36650  0.25880  0.26272  Biso   1.000  C
  H183     1.0000 0.33900  0.22270  0.27620  Biso   1.000  H
  C262     1.0000 0.36930  0.25910  0.21846  Biso   1.000  C
  H184     1.0000 0.34410  0.22410  0.20290  Biso   1.000  H
  C263     1.0000 0.40980  0.31160  0.19775  Biso   1.000  C
  C264     1.0000 0.44410  0.36230  0.22283  Biso   1.000  C
  H185     1.0000 0.47100  0.39920  0.21010  Biso   1.000  H
  C265     1.0000 0.43840  0.35840  0.26679  Biso   1.000  C
  H186     1.0000 0.46200  0.39330  0.28300  Biso   1.000  H
  C266     1.0000 0.41900  0.31760  0.14980  Biso   1.000  C
  O66      1.0000 0.45140  0.36740  0.13362  Biso   1.000  O
  N54      1.0000 0.38950  0.26450  0.12744  Biso   1.000  N
  N55      1.0000 0.39170  0.26740  0.08330  Biso   1.000  N
  C267     1.0000 0.37800  0.21210  0.06424  Biso   1.000  C
  H187     1.0000 0.36740  0.17330  0.08000  Biso   1.000  H
  C268     1.0000 0.37880  0.20910  0.01764  Biso   1.000  C
  C269     1.0000 0.38430  0.14950  0.99570  Biso   1.000  C
  H188     1.0000 0.38630  0.10930  0.01080  Biso   1.000  H
  C270     1.0000 0.38690  0.14850  0.95120  Biso   1.000  C
  H189     1.0000 0.39360  0.10740  0.93750  Biso   1.000  H
  N56      1.0000 0.38030  0.20240  0.92814  Biso   1.000  N
  C271     1.0000 0.37250  0.26030  0.94920  Biso   1.000  C
  H190     1.0000 0.36770  0.29960  0.93320  Biso   1.000  H
  C272     1.0000 0.37130  0.26540  0.99310  Biso   1.000  C
  H191     1.0000 0.36530  0.30730  0.00600  Biso   1.000  H
  C273     1.0000 0.13670  0.59170  0.35958  Biso   1.000  C
  C274     1.0000 0.22840  0.58560  0.36130  Biso   1.000  C
  H192     1.0000 0.26340  0.62400  0.36290  Biso   1.000  H
  C275     1.0000 0.26780  0.52320  0.36070  Biso   1.000  C
  H193     1.0000 0.32910  0.51950  0.36210  Biso   1.000  H
  C276     1.0000 0.21580  0.46610  0.35806  Biso   1.000  C
  C277     1.0000 0.12470  0.47180  0.35816  Biso   1.000  C
  H194     1.0000 0.08970  0.43340  0.35760  Biso   1.000  H
  C278     1.0000 0.08540  0.53490  0.35907  Biso   1.000  C
  H195     1.0000 0.02410  0.53860  0.35930  Biso   1.000  H
  C279     1.0000 0.25950  0.39810  0.35542  Biso   1.000  C
  O67      1.0000 0.34330  0.39764  0.35877  Biso   1.000  O
  O68      1.0000 0.21460  0.34670  0.35017  Biso   1.000  O
  C280     1.0000 0.09720  0.66050  0.35854  Biso   1.000  C
  O69      1.0000 0.01690  0.66580  0.36323  Biso   1.000  O
  O70      1.0000 0.14990  0.70957  0.35336  Biso   1.000  O
  H196     1.0000 0.37100  0.22500  0.13580  Biso   1.000  H
  Zn15     1.0000 0.60911  0.19556  0.35813  Biso   1.000  Zn
  N57      1.0000 0.59940  0.19330  0.28716  Biso   1.000  N
  C281     1.0000 0.63350  0.24120  0.26272  Biso   1.000  C
  H197     1.0000 0.66100  0.27730  0.27620  Biso   1.000  H
  C282     1.0000 0.63070  0.24090  0.21846  Biso   1.000  C
  H198     1.0000 0.65590  0.27590  0.20290  Biso   1.000  H
  C283     1.0000 0.59020  0.18840  0.19775  Biso   1.000  C
  C284     1.0000 0.55590  0.13770  0.22283  Biso   1.000  C
  H199     1.0000 0.52900  0.10080  0.21010  Biso   1.000  H
  C285     1.0000 0.56160  0.14160  0.26679  Biso   1.000  C
  H200     1.0000 0.53800  0.10670  0.28300  Biso   1.000  H
  C286     1.0000 0.58100  0.18240  0.14980  Biso   1.000  C
  O71      1.0000 0.54860  0.13260  0.13362  Biso   1.000  O
  N58      1.0000 0.61050  0.23550  0.12744  Biso   1.000  N
  N59      1.0000 0.60830  0.23260  0.08330  Biso   1.000  N
  C287     1.0000 0.62200  0.28790  0.06424  Biso   1.000  C
  H201     1.0000 0.63260  0.32670  0.08000  Biso   1.000  H
  C288     1.0000 0.62120  0.29090  0.01764  Biso   1.000  C
  C289     1.0000 0.61570  0.35050  0.99570  Biso   1.000  C
  H202     1.0000 0.61370  0.39070  0.01080  Biso   1.000  H
  C290     1.0000 0.61310  0.35150  0.95120  Biso   1.000  C
  H203     1.0000 0.60640  0.39260  0.93750  Biso   1.000  H
  N60      1.0000 0.61970  0.29760  0.92814  Biso   1.000  N
  C291     1.0000 0.62750  0.23970  0.94920  Biso   1.000  C
  H204     1.0000 0.63230  0.20040  0.93320  Biso   1.000  H
  C292     1.0000 0.62870  0.23460  0.99310  Biso   1.000  C
  H205     1.0000 0.63470  0.19270  0.00600  Biso   1.000  H
  C293     1.0000 0.86330  0.90830  0.35958  Biso   1.000  C
  C294     1.0000 0.77160  0.91440  0.36130  Biso   1.000  C
  H206     1.0000 0.73660  0.87600  0.36290  Biso   1.000  H
  C295     1.0000 0.73220  0.97680  0.36070  Biso   1.000  C
  H207     1.0000 0.67090  0.98050  0.36210  Biso   1.000  H
  C296     1.0000 0.78420  0.03390  0.35806  Biso   1.000  C
  C297     1.0000 0.87530  0.02820  0.35816  Biso   1.000  C
  H208     1.0000 0.91030  0.06660  0.35760  Biso   1.000  H
  C298     1.0000 0.91460  0.96510  0.35907  Biso   1.000  C
  H209     1.0000 0.97590  0.96140  0.35930  Biso   1.000  H
  C299     1.0000 0.74050  0.10190  0.35542  Biso   1.000  C
  O72      1.0000 0.65670  0.10236  0.35877  Biso   1.000  O
  O73      1.0000 0.78540  0.15330  0.35017  Biso   1.000  O
  C300     1.0000 0.90280  0.83950  0.35854  Biso   1.000  C
  O74      1.0000 0.98310  0.83420  0.36323  Biso   1.000  O
  O75      1.0000 0.85010  0.79043  0.35336  Biso   1.000  O
  H210     1.0000 0.62900  0.27500  0.13580  Biso   1.000  H
  Zn16     1.0000 0.10911  0.69556  0.85813  Biso   1.000  Zn
  N61      1.0000 0.09940  0.69330  0.78716  Biso   1.000  N
  C301     1.0000 0.13350  0.74120  0.76272  Biso   1.000  C
  H211     1.0000 0.16100  0.77730  0.77620  Biso   1.000  H
  C302     1.0000 0.13070  0.74090  0.71846  Biso   1.000  C
  H212     1.0000 0.15590  0.77590  0.70290  Biso   1.000  H
  C303     1.0000 0.09020  0.68840  0.69775  Biso   1.000  C
  C304     1.0000 0.05590  0.63770  0.72283  Biso   1.000  C
  H213     1.0000 0.02900  0.60080  0.71010  Biso   1.000  H
  C305     1.0000 0.06160  0.64160  0.76679  Biso   1.000  C
  H214     1.0000 0.03800  0.60670  0.78300  Biso   1.000  H
  C306     1.0000 0.08100  0.68240  0.64980  Biso   1.000  C
  O76      1.0000 0.04860  0.63260  0.63362  Biso   1.000  O
  N62      1.0000 0.11050  0.73550  0.62744  Biso   1.000  N
  N63      1.0000 0.10830  0.73260  0.58330  Biso   1.000  N
  C307     1.0000 0.12200  0.78790  0.56424  Biso   1.000  C
  H215     1.0000 0.13260  0.82670  0.58000  Biso   1.000  H
  C308     1.0000 0.12120  0.79090  0.51764  Biso   1.000  C
  C309     1.0000 0.11570  0.85050  0.49570  Biso   1.000  C
  H216     1.0000 0.11370  0.89070  0.51080  Biso   1.000  H
  C310     1.0000 0.11310  0.85150  0.45120  Biso   1.000  C
  H217     1.0000 0.10640  0.89260  0.43750  Biso   1.000  H
  N64      1.0000 0.11970  0.79760  0.42814  Biso   1.000  N
  C311     1.0000 0.12750  0.73970  0.44920  Biso   1.000  C
  H218     1.0000 0.13230  0.70040  0.43320  Biso   1.000  H
  C312     1.0000 0.12870  0.73460  0.49310  Biso   1.000  C
  H219     1.0000 0.13470  0.69270  0.50600  Biso   1.000  H
  C313     1.0000 0.36330  0.40830  0.85958  Biso   1.000  C
  C314     1.0000 0.27160  0.41440  0.86130  Biso   1.000  C
  H220     1.0000 0.23660  0.37600  0.86290  Biso   1.000  H
  C315     1.0000 0.23220  0.47680  0.86070  Biso   1.000  C
  H221     1.0000 0.17090  0.48050  0.86210  Biso   1.000  H
  C316     1.0000 0.28420  0.53390  0.85806  Biso   1.000  C
  C317     1.0000 0.37530  0.52820  0.85816  Biso   1.000  C
  H222     1.0000 0.41030  0.56660  0.85760  Biso   1.000  H
  C318     1.0000 0.41460  0.46510  0.85907  Biso   1.000  C
  H223     1.0000 0.47590  0.46140  0.85930  Biso   1.000  H
  C319     1.0000 0.24050  0.60190  0.85542  Biso   1.000  C
  O77      1.0000 0.15670  0.60236  0.85877  Biso   1.000  O
  O78      1.0000 0.28540  0.65330  0.85017  Biso   1.000  O
  C320     1.0000 0.40280  0.33950  0.85854  Biso   1.000  C
  O79      1.0000 0.48310  0.33420  0.86323  Biso   1.000  O
  O80      1.0000 0.35010  0.29043  0.85336  Biso   1.000  O
  H224     1.0000 0.12900  0.77500  0.63580  Biso   1.000  H
