data_image0
_cell_length_a       20.345
_cell_length_b       30.5917
_cell_length_c       30.5917
_cell_angle_alpha    64.768
_cell_angle_beta     77.1921
_cell_angle_gamma    102.808

_symmetry_space_group_name_H-M    P 1
_symmetry_int_tables_number       1

loop_
  _symmetry_equiv_pos_as_xyz
  'x, y, z'

loop_
  _atom_site_label
  _atom_site_occupancy
  _atom_site_fract_x
  _atom_site_fract_y
  _atom_site_fract_z
  _atom_site_thermal_displace_type
  _atom_site_B_iso_or_equiv
  _atom_site_type_symbol
  Mn1      1.0000 0.61101  0.55557  0.82247  Biso   1.000  Mn
  Mn2      1.0000 0.60968  0.39175  0.95190  Biso   1.000  Mn
  Mn3      1.0000 0.42612  0.61637  0.88153  Biso   1.000  Mn
  Mn4      1.0000 0.43348  0.82247  0.62196  Biso   1.000  Mn
  Mn5      1.0000 0.56158  0.95190  0.65635  Biso   1.000  Mn
  Mn6      1.0000 0.30765  0.88153  0.50210  Biso   1.000  Mn
  Mn7      1.0000 0.05544  0.62196  0.55557  Biso   1.000  Mn
  Mn8      1.0000 0.21793  0.65635  0.39175  Biso   1.000  Mn
  Mn9      1.0000 0.80975  0.50210  0.61637  Biso   1.000  Mn
  Mn10     1.0000 0.38899  0.44443  0.17753  Biso   1.000  Mn
  Mn11     1.0000 0.39032  0.60825  0.04810  Biso   1.000  Mn
  Mn12     1.0000 0.57388  0.38363  0.11847  Biso   1.000  Mn
  Mn13     1.0000 0.56652  0.17753  0.37804  Biso   1.000  Mn
  Mn14     1.0000 0.43842  0.04810  0.34365  Biso   1.000  Mn
  Mn15     1.0000 0.69235  0.11847  0.49790  Biso   1.000  Mn
  Mn16     1.0000 0.94456  0.37804  0.44443  Biso   1.000  Mn
  Mn17     1.0000 0.78207  0.34365  0.60825  Biso   1.000  Mn
  Mn18     1.0000 0.19025  0.49790  0.38363  Biso   1.000  Mn
  H1       1.0000 0.51130  0.51670  0.72630  Biso   1.000  H
  H2       1.0000 0.49070  0.44650  0.71370  Biso   1.000  H
  H3       1.0000 0.51030  0.37210  0.77010  Biso   1.000  H
  H4       1.0000 0.55620  0.37400  0.83200  Biso   1.000  H
  H5       1.0000 0.64540  0.52780  0.96930  Biso   1.000  H
  H6       1.0000 0.68050  0.48610  0.96870  Biso   1.000  H
  H7       1.0000 0.73810  0.58970  0.91720  Biso   1.000  H
  H8       1.0000 0.75700  0.55000  0.96090  Biso   1.000  H
  H9       1.0000 0.80460  0.57160  0.86370  Biso   1.000  H
  H10      1.0000 0.83000  0.54220  0.90960  Biso   1.000  H
  H11      1.0000 0.86800  0.65280  0.85340  Biso   1.000  H
  H12      1.0000 0.92200  0.62240  0.84970  Biso   1.000  H
  H13      1.0000 0.85620  0.62620  0.94440  Biso   1.000  H
  H14      1.0000 0.90520  0.59190  0.94370  Biso   1.000  H
  H15      1.0000 0.96270  0.70390  0.87900  Biso   1.000  H
  H16      1.0000 0.00990  0.66780  0.88580  Biso   1.000  H
  H17      1.0000 0.94180  0.68730  0.96680  Biso   1.000  H
  H18      1.0000 0.98570  0.64860  0.97580  Biso   1.000  H
  H19      1.0000 0.09040  0.71920  0.90990  Biso   1.000  H
  H20      1.0000 0.04550  0.75700  0.90600  Biso   1.000  H
  H21      1.0000 0.03090  0.74130  0.98390  Biso   1.000  H
  H22      1.0000 0.05760  0.69270  0.99710  Biso   1.000  H
  H23      1.0000 0.13550  0.79410  0.92030  Biso   1.000  H
  H24      1.0000 0.16210  0.74640  0.92840  Biso   1.000  H
  H25      1.0000 0.20350  0.76180  0.98460  Biso   1.000  H
  H26      1.0000 0.12140  0.73030  0.02330  Biso   1.000  H
  H27      1.0000 0.15090  0.79220  0.99130  Biso   1.000  H
  H28      1.0000 0.75060  0.63220  0.80280  Biso   1.000  H
  H29      1.0000 0.87000  0.67820  0.75160  Biso   1.000  H
  H30      1.0000 0.83940  0.61660  0.66390  Biso   1.000  H
  H31      1.0000 0.72280  0.56790  0.72230  Biso   1.000  H
  H32      1.0000 0.97890  0.66080  0.67300  Biso   1.000  H
  H33      1.0000 0.95330  0.69670  0.62940  Biso   1.000  H
  H34      1.0000 0.82710  0.39350  0.89710  Biso   1.000  H
  H35      1.0000 0.91390  0.38770  0.93480  Biso   1.000  H
  H36      1.0000 0.88900  0.37650  0.01810  Biso   1.000  H
  H37      1.0000 0.78070  0.37970  0.05880  Biso   1.000  H
  H38      1.0000 0.40530  0.39080  0.03810  Biso   1.000  H
  H39      1.0000 0.43500  0.39330  0.08170  Biso   1.000  H
  H40      1.0000 0.37670  0.29950  0.07910  Biso   1.000  H
  H41      1.0000 0.41170  0.30070  0.12080  Biso   1.000  H
  H42      1.0000 0.28440  0.32380  0.11300  Biso   1.000  H
  H43      1.0000 0.32040  0.32810  0.15330  Biso   1.000  H
  H44      1.0000 0.25580  0.23270  0.15570  Biso   1.000  H
  H45      1.0000 0.29710  0.23590  0.19370  Biso   1.000  H
  H46      1.0000 0.20980  0.26340  0.23020  Biso   1.000  H
  H47      1.0000 0.16810  0.25900  0.19280  Biso   1.000  H
  H48      1.0000 0.14230  0.16910  0.23400  Biso   1.000  H
  H49      1.0000 0.18460  0.17340  0.27100  Biso   1.000  H
  H50      1.0000 0.06040  0.19980  0.27070  Biso   1.000  H
  H51      1.0000 0.09920  0.19430  0.31170  Biso   1.000  H
  H52      1.0000 0.01600  0.10950  0.30610  Biso   1.000  H
  H53      1.0000 0.05980  0.10260  0.34450  Biso   1.000  H
  H54      1.0000 0.93980  0.13580  0.34890  Biso   1.000  H
  H55      1.0000 0.98750  0.13780  0.38360  Biso   1.000  H
  H56      1.0000 0.90110  0.04510  0.39110  Biso   1.000  H
  H57      1.0000 0.95490  0.04460  0.42180  Biso   1.000  H
  H58      1.0000 0.88280  0.06940  0.47030  Biso   1.000  H
  H59      1.0000 0.84190  0.01450  0.47720  Biso   1.000  H
  H60      1.0000 0.82730  0.06470  0.44130  Biso   1.000  H
  H61      1.0000 0.60690  0.26960  0.98380  Biso   1.000  H
  H62      1.0000 0.58600  0.26950  0.10400  Biso   1.000  H
  H63      1.0000 0.53280  0.21180  0.12580  Biso   1.000  H
  H64      1.0000 0.51220  0.26010  0.09310  Biso   1.000  H
  H65      1.0000 0.64620  0.22030  0.02060  Biso   1.000  H
  H66      1.0000 0.62340  0.19330  0.08210  Biso   1.000  H
  H67      1.0000 0.68490  0.24950  0.04590  Biso   1.000  H
  H68      1.0000 0.50610  0.78370  0.78180  Biso   1.000  H
  H69      1.0000 0.60580  0.83850  0.70580  Biso   1.000  H
  H70      1.0000 0.69170  0.80720  0.67840  Biso   1.000  H
  H71      1.0000 0.67650  0.71940  0.72800  Biso   1.000  H
  H72      1.0000 0.43960  0.46010  0.96310  Biso   1.000  H
  H73      1.0000 0.46910  0.46160  0.90940  Biso   1.000  H
  H74      1.0000 0.35180  0.39760  0.96660  Biso   1.000  H
  H75      1.0000 0.32200  0.44440  0.95550  Biso   1.000  H
  H76      1.0000 0.36040  0.47270  0.86800  Biso   1.000  H
  H77      1.0000 0.40010  0.43180  0.87510  Biso   1.000  H
  H78      1.0000 0.24780  0.40490  0.91540  Biso   1.000  H
  H79      1.0000 0.28640  0.36360  0.92450  Biso   1.000  H
  H80      1.0000 0.28450  0.43000  0.82650  Biso   1.000  H
  H81      1.0000 0.31590  0.38400  0.83930  Biso   1.000  H
  H82      1.0000 0.15140  0.83450  0.51580  Biso   1.000  H
  H83      1.0000 0.04830  0.76180  0.56970  Biso   1.000  H
  H84      1.0000 0.10620  0.75350  0.68620  Biso   1.000  H
  H85      1.0000 0.22170  0.81000  0.62480  Biso   1.000  H
  H86      1.0000 0.94800  0.74690  0.67120  Biso   1.000  H
  H87      1.0000 0.98670  0.71460  0.70640  Biso   1.000  H
  H88      1.0000 0.23760  0.72630  0.75700  Biso   1.000  H
  H89      1.0000 0.20440  0.71370  0.83980  Biso   1.000  H
  H90      1.0000 0.28040  0.77010  0.85780  Biso   1.000  H
  H91      1.0000 0.38820  0.83200  0.79400  Biso   1.000  H
  H92      1.0000 0.61470  0.96930  0.50290  Biso   1.000  H
  H93      1.0000 0.64920  0.96870  0.54520  Biso   1.000  H
  H94      1.0000 0.65530  0.91720  0.49310  Biso   1.000  H
  H95      1.0000 0.71790  0.96090  0.48910  Biso   1.000  H
  H96      1.0000 0.66830  0.86370  0.56470  Biso   1.000  H
  H97      1.0000 0.73960  0.90960  0.54820  Biso   1.000  H
  H98      1.0000 0.72140  0.85340  0.49380  Biso   1.000  H
  H99      1.0000 0.77170  0.84970  0.52790  Biso   1.000  H
  H100     1.0000 0.80060  0.94440  0.42940  Biso   1.000  H
  H101     1.0000 0.84890  0.94370  0.46440  Biso   1.000  H
  H102     1.0000 0.84170  0.87900  0.41710  Biso   1.000  H
  H103     1.0000 0.89570  0.88580  0.44640  Biso   1.000  H
  H104     1.0000 0.90860  0.96680  0.34590  Biso   1.000  H
  H105     1.0000 0.96150  0.97580  0.37560  Biso   1.000  H
  H106     1.0000 0.00030  0.90990  0.37090  Biso   1.000  H
  H107     1.0000 0.95150  0.90600  0.33700  Biso   1.000  H
  H108     1.0000 0.01480  0.98390  0.27480  Biso   1.000  H
  H109     1.0000 0.05470  0.99710  0.31020  Biso   1.000  H
  H110     1.0000 0.05580  0.92030  0.28560  Biso   1.000  H
  H111     1.0000 0.09050  0.92840  0.32520  Biso   1.000  H
  H112     1.0000 0.18810  0.98460  0.25360  Biso   1.000  H
  H113     1.0000 0.14470  0.02330  0.24640  Biso   1.000  H
  H114     1.0000 0.14220  0.99130  0.21650  Biso   1.000  H
  H115     1.0000 0.55340  0.80280  0.56500  Biso   1.000  H
  H116     1.0000 0.62160  0.75160  0.57020  Biso   1.000  H
  H117     1.0000 0.50330  0.66390  0.71950  Biso   1.000  H
  H118     1.0000 0.44510  0.72230  0.70980  Biso   1.000  H
  H119     1.0000 0.65190  0.67300  0.66620  Biso   1.000  H
  H120     1.0000 0.58270  0.62940  0.67390  Biso   1.000  H
  H121     1.0000 0.72420  0.89710  0.70940  Biso   1.000  H
  H122     1.0000 0.84870  0.93480  0.67750  Biso   1.000  H
  H123     1.0000 0.90710  0.01810  0.60540  Biso   1.000  H
  H124     1.0000 0.83950  0.05880  0.56150  Biso   1.000  H
  H125     1.0000 0.44340  0.03810  0.57110  Biso   1.000  H
  H126     1.0000 0.51670  0.08170  0.52500  Biso   1.000  H
  H127     1.0000 0.45580  0.07910  0.62140  Biso   1.000  H
  H128     1.0000 0.53250  0.12080  0.57850  Biso   1.000  H
  H129     1.0000 0.39740  0.11300  0.56320  Biso   1.000  H
  H130     1.0000 0.47370  0.15330  0.51860  Biso   1.000  H
  H131     1.0000 0.41150  0.15570  0.61160  Biso   1.000  H
  H132     1.0000 0.49080  0.19370  0.57040  Biso   1.000  H
  H133     1.0000 0.44000  0.23020  0.50640  Biso   1.000  H
  H134     1.0000 0.36090  0.19280  0.54820  Biso   1.000  H
  H135     1.0000 0.37630  0.23400  0.59690  Biso   1.000  H
  H136     1.0000 0.45560  0.27100  0.55560  Biso   1.000  H
  H137     1.0000 0.33110  0.27070  0.52950  Biso   1.000  H
  H138     1.0000 0.41090  0.31170  0.49400  Biso   1.000  H
  H139     1.0000 0.32210  0.30610  0.58440  Biso   1.000  H
  H140     1.0000 0.40430  0.34450  0.55290  Biso   1.000  H
  H141     1.0000 0.28870  0.34890  0.51530  Biso   1.000  H
  H142     1.0000 0.37110  0.38360  0.47860  Biso   1.000  H
  H143     1.0000 0.29220  0.39110  0.56380  Biso   1.000  H
  H144     1.0000 0.37670  0.42180  0.53360  Biso   1.000  H
  H145     1.0000 0.35310  0.47030  0.46030  Biso   1.000  H
  H146     1.0000 0.31910  0.47720  0.50830  Biso   1.000  H
  H147     1.0000 0.26860  0.44130  0.49400  Biso   1.000  H
  H148     1.0000 0.59070  0.98380  0.74660  Biso   1.000  H
  H149     1.0000 0.69000  0.10400  0.62650  Biso   1.000  H
  H150     1.0000 0.65860  0.12580  0.66240  Biso   1.000  H
  H151     1.0000 0.60530  0.09310  0.64680  Biso   1.000  H
  H152     1.0000 0.66680  0.02060  0.75910  Biso   1.000  H
  H153     1.0000 0.70550  0.08210  0.72460  Biso   1.000  H
  H154     1.0000 0.73080  0.04590  0.70460  Biso   1.000  H
  H155     1.0000 0.28790  0.78180  0.43450  Biso   1.000  H
  H156     1.0000 0.31160  0.70580  0.45570  Biso   1.000  H
  H157     1.0000 0.37010  0.67840  0.51440  Biso   1.000  H
  H158     1.0000 0.40450  0.72800  0.55260  Biso   1.000  H
  H159     1.0000 0.40270  0.96310  0.57680  Biso   1.000  H
  H160     1.0000 0.37850  0.90940  0.62900  Biso   1.000  H
  H161     1.0000 0.31840  0.96660  0.63580  Biso   1.000  H
  H162     1.0000 0.27750  0.95550  0.60010  Biso   1.000  H
  H163     1.0000 0.22840  0.86800  0.65930  Biso   1.000  H
  H164     1.0000 0.27520  0.87510  0.69310  Biso   1.000  H
  H165     1.0000 0.16320  0.91540  0.67970  Biso   1.000  H
  H166     1.0000 0.21090  0.92450  0.71190  Biso   1.000  H
  H167     1.0000 0.11100  0.82650  0.74350  Biso   1.000  H
  H168     1.0000 0.15520  0.83930  0.77670  Biso   1.000  H
  H169     1.0000 0.66720  0.51580  0.64970  Biso   1.000  H
  H170     1.0000 0.61800  0.56970  0.66850  Biso   1.000  H
  H171     1.0000 0.79240  0.68620  0.56030  Biso   1.000  H
  H172     1.0000 0.84650  0.62480  0.56520  Biso   1.000  H
  H173     1.0000 0.61920  0.67120  0.58190  Biso   1.000  H
  H174     1.0000 0.69310  0.70640  0.57900  Biso   1.000  H
  H175     1.0000 0.99460  0.75700  0.51670  Biso   1.000  H
  H176     1.0000 0.04420  0.83980  0.44650  Biso   1.000  H
  H177     1.0000 0.13820  0.85780  0.37210  Biso   1.000  H
  H178     1.0000 0.18220  0.79400  0.37400  Biso   1.000  H
  H179     1.0000 0.11760  0.50290  0.52780  Biso   1.000  H
  H180     1.0000 0.19440  0.54520  0.48610  Biso   1.000  H
  H181     1.0000 0.14840  0.49310  0.58970  Biso   1.000  H
  H182     1.0000 0.20700  0.48910  0.55000  Biso   1.000  H
  H183     1.0000 0.23300  0.56470  0.57160  Biso   1.000  H
  H184     1.0000 0.28780  0.54820  0.54220  Biso   1.000  H
  H185     1.0000 0.21520  0.49380  0.65280  Biso   1.000  H
  H186     1.0000 0.29960  0.52790  0.62240  Biso   1.000  H
  H187     1.0000 0.23000  0.42940  0.62620  Biso   1.000  H
  H188     1.0000 0.31330  0.46440  0.59190  Biso   1.000  H
  H189     1.0000 0.25880  0.41710  0.70390  Biso   1.000  H
  H190     1.0000 0.34210  0.44640  0.66780  Biso   1.000  H
  H191     1.0000 0.25450  0.34590  0.68730  Biso   1.000  H
  H192     1.0000 0.33710  0.37560  0.64860  Biso   1.000  H
  H193     1.0000 0.37120  0.37090  0.71920  Biso   1.000  H
  H194     1.0000 0.28850  0.33700  0.75700  Biso   1.000  H
  H195     1.0000 0.28960  0.27480  0.74130  Biso   1.000  H
  H196     1.0000 0.36490  0.31020  0.69270  Biso   1.000  H
  H197     1.0000 0.34140  0.28560  0.79410  Biso   1.000  H
  H198     1.0000 0.41570  0.32520  0.74640  Biso   1.000  H
  H199     1.0000 0.44170  0.25360  0.76180  Biso   1.000  H
  H200     1.0000 0.39110  0.24640  0.73030  Biso   1.000  H
  H201     1.0000 0.35870  0.21650  0.79220  Biso   1.000  H
  H202     1.0000 0.11840  0.56500  0.63220  Biso   1.000  H
  H203     1.0000 0.19180  0.57020  0.67820  Biso   1.000  H
  H204     1.0000 0.22280  0.71950  0.61660  Biso   1.000  H
  H205     1.0000 0.15490  0.70980  0.56790  Biso   1.000  H
  H206     1.0000 0.31810  0.66620  0.66080  Biso   1.000  H
  H207     1.0000 0.25660  0.67390  0.69670  Biso   1.000  H
  H208     1.0000 0.43360  0.70940  0.39350  Biso   1.000  H
  H209     1.0000 0.52620  0.67750  0.38770  Biso   1.000  H
  H210     1.0000 0.51250  0.60540  0.37650  Biso   1.000  H
  H211     1.0000 0.40100  0.56150  0.37970  Biso   1.000  H
  H212     1.0000 0.01450  0.57110  0.39080  Biso   1.000  H
  H213     1.0000 0.04170  0.52500  0.39330  Biso   1.000  H
  H214     1.0000 0.07720  0.62140  0.29950  Biso   1.000  H
  H215     1.0000 0.11100  0.57850  0.30070  Biso   1.000  H
  H216     1.0000 0.96060  0.56320  0.32380  Biso   1.000  H
  H217     1.0000 0.99230  0.51860  0.32810  Biso   1.000  H
  H218     1.0000 0.02310  0.61160  0.23270  Biso   1.000  H
  H219     1.0000 0.06120  0.57040  0.23590  Biso   1.000  H
  H220     1.0000 0.94640  0.50640  0.26340  Biso   1.000  H
  H221     1.0000 0.90910  0.54820  0.25900  Biso   1.000  H
  H222     1.0000 0.97320  0.59690  0.16910  Biso   1.000  H
  H223     1.0000 0.01120  0.55560  0.17340  Biso   1.000  H
  H224     1.0000 0.86060  0.52950  0.19980  Biso   1.000  H
  H225     1.0000 0.90490  0.49400  0.19430  Biso   1.000  H
  H226     1.0000 0.90650  0.58440  0.10950  Biso   1.000  H
  H227     1.0000 0.95720  0.55290  0.10260  Biso   1.000  H
  H228     1.0000 0.80400  0.51530  0.13580  Biso   1.000  H
  H229     1.0000 0.84970  0.47860  0.13780  Biso   1.000  H
  H230     1.0000 0.85600  0.56380  0.04510  Biso   1.000  H
  H231     1.0000 0.91030  0.53360  0.04460  Biso   1.000  H
  H232     1.0000 0.81340  0.46030  0.06940  Biso   1.000  H
  H233     1.0000 0.82740  0.50830  0.01450  Biso   1.000  H
  H234     1.0000 0.76260  0.49400  0.06470  Biso   1.000  H
  H235     1.0000 0.33730  0.74660  0.26960  Biso   1.000  H
  H236     1.0000 0.31650  0.62650  0.26950  Biso   1.000  H
  H237     1.0000 0.32100  0.66240  0.21180  Biso   1.000  H
  H238     1.0000 0.25210  0.64680  0.26010  Biso   1.000  H
  H239     1.0000 0.42590  0.75910  0.22030  Biso   1.000  H
  H240     1.0000 0.43010  0.72460  0.19330  Biso   1.000  H
  H241     1.0000 0.43540  0.70460  0.24950  Biso   1.000  H
  H242     1.0000 0.72240  0.43450  0.78370  Biso   1.000  H
  H243     1.0000 0.76730  0.45570  0.83850  Biso   1.000  H
  H244     1.0000 0.88450  0.51440  0.80720  Biso   1.000  H
  H245     1.0000 0.95710  0.55260  0.71940  Biso   1.000  H
  H246     1.0000 0.97950  0.57680  0.46010  Biso   1.000  H
  H247     1.0000 0.00750  0.62900  0.46160  Biso   1.000  H
  H248     1.0000 0.95420  0.63580  0.39760  Biso   1.000  H
  H249     1.0000 0.87760  0.60010  0.44440  Biso   1.000  H
  H250     1.0000 0.88770  0.65930  0.47270  Biso   1.000  H
  H251     1.0000 0.96830  0.69310  0.43180  Biso   1.000  H
  H252     1.0000 0.84290  0.67970  0.40490  Biso   1.000  H
  H253     1.0000 0.92280  0.71190  0.36360  Biso   1.000  H
  H254     1.0000 0.85450  0.74350  0.43000  Biso   1.000  H
  H255     1.0000 0.93190  0.77670  0.38400  Biso   1.000  H
  H256     1.0000 0.31690  0.64970  0.83450  Biso   1.000  H
  H257     1.0000 0.28650  0.66850  0.76180  Biso   1.000  H
  H258     1.0000 0.35270  0.56030  0.75350  Biso   1.000  H
  H259     1.0000 0.41170  0.56520  0.81000  Biso   1.000  H
  H260     1.0000 0.20110  0.58190  0.74690  Biso   1.000  H
  H261     1.0000 0.27210  0.57900  0.71460  Biso   1.000  H
  H262     1.0000 0.48870  0.48330  0.27370  Biso   1.000  H
  H263     1.0000 0.50930  0.55350  0.28630  Biso   1.000  H
  H264     1.0000 0.48970  0.62790  0.22990  Biso   1.000  H
  H265     1.0000 0.44380  0.62600  0.16800  Biso   1.000  H
  H266     1.0000 0.35460  0.47220  0.03070  Biso   1.000  H
  H267     1.0000 0.31950  0.51390  0.03130  Biso   1.000  H
  H268     1.0000 0.26190  0.41030  0.08280  Biso   1.000  H
  H269     1.0000 0.24300  0.45000  0.03910  Biso   1.000  H
  H270     1.0000 0.19540  0.42840  0.13630  Biso   1.000  H
  H271     1.0000 0.17000  0.45780  0.09040  Biso   1.000  H
  H272     1.0000 0.13200  0.34720  0.14660  Biso   1.000  H
  H273     1.0000 0.07800  0.37760  0.15030  Biso   1.000  H
  H274     1.0000 0.14380  0.37380  0.05560  Biso   1.000  H
  H275     1.0000 0.09480  0.40810  0.05630  Biso   1.000  H
  H276     1.0000 0.03730  0.29610  0.12100  Biso   1.000  H
  H277     1.0000 0.99010  0.33220  0.11420  Biso   1.000  H
  H278     1.0000 0.05820  0.31270  0.03320  Biso   1.000  H
  H279     1.0000 0.01430  0.35140  0.02420  Biso   1.000  H
  H280     1.0000 0.90960  0.28080  0.09010  Biso   1.000  H
  H281     1.0000 0.95450  0.24300  0.09400  Biso   1.000  H
  H282     1.0000 0.96910  0.25870  0.01610  Biso   1.000  H
  H283     1.0000 0.94240  0.30730  0.00290  Biso   1.000  H
  H284     1.0000 0.86450  0.20590  0.07970  Biso   1.000  H
  H285     1.0000 0.83790  0.25360  0.07160  Biso   1.000  H
  H286     1.0000 0.79650  0.23820  0.01540  Biso   1.000  H
  H287     1.0000 0.87860  0.26970  0.97670  Biso   1.000  H
  H288     1.0000 0.84910  0.20780  0.00870  Biso   1.000  H
  H289     1.0000 0.24940  0.36780  0.19720  Biso   1.000  H
  H290     1.0000 0.13000  0.32180  0.24840  Biso   1.000  H
  H291     1.0000 0.16060  0.38340  0.33610  Biso   1.000  H
  H292     1.0000 0.27720  0.43210  0.27770  Biso   1.000  H
  H293     1.0000 0.02110  0.33920  0.32700  Biso   1.000  H
  H294     1.0000 0.04670  0.30330  0.37060  Biso   1.000  H
  H295     1.0000 0.17290  0.60650  0.10290  Biso   1.000  H
  H296     1.0000 0.08610  0.61230  0.06520  Biso   1.000  H
  H297     1.0000 0.11100  0.62350  0.98190  Biso   1.000  H
  H298     1.0000 0.21930  0.62030  0.94120  Biso   1.000  H
  H299     1.0000 0.59470  0.60920  0.96190  Biso   1.000  H
  H300     1.0000 0.56500  0.60670  0.91830  Biso   1.000  H
  H301     1.0000 0.62330  0.70050  0.92090  Biso   1.000  H
  H302     1.0000 0.58830  0.69930  0.87920  Biso   1.000  H
  H303     1.0000 0.71560  0.67620  0.88700  Biso   1.000  H
  H304     1.0000 0.67960  0.67190  0.84670  Biso   1.000  H
  H305     1.0000 0.74420  0.76730  0.84430  Biso   1.000  H
  H306     1.0000 0.70290  0.76410  0.80630  Biso   1.000  H
  H307     1.0000 0.79020  0.73660  0.76980  Biso   1.000  H
  H308     1.0000 0.83190  0.74100  0.80720  Biso   1.000  H
  H309     1.0000 0.85770  0.83090  0.76600  Biso   1.000  H
  H310     1.0000 0.81540  0.82660  0.72900  Biso   1.000  H
  H311     1.0000 0.93960  0.80020  0.72930  Biso   1.000  H
  H312     1.0000 0.90080  0.80570  0.68830  Biso   1.000  H
  H313     1.0000 0.98400  0.89050  0.69390  Biso   1.000  H
  H314     1.0000 0.94020  0.89740  0.65550  Biso   1.000  H
  H315     1.0000 0.06020  0.86420  0.65110  Biso   1.000  H
  H316     1.0000 0.01250  0.86220  0.61640  Biso   1.000  H
  H317     1.0000 0.09890  0.95490  0.60890  Biso   1.000  H
  H318     1.0000 0.04510  0.95540  0.57820  Biso   1.000  H
  H319     1.0000 0.11720  0.93060  0.52970  Biso   1.000  H
  H320     1.0000 0.15810  0.98550  0.52280  Biso   1.000  H
  H321     1.0000 0.17270  0.93530  0.55870  Biso   1.000  H
  H322     1.0000 0.39310  0.73040  0.01620  Biso   1.000  H
  H323     1.0000 0.41400  0.73050  0.89600  Biso   1.000  H
  H324     1.0000 0.46720  0.78820  0.87420  Biso   1.000  H
  H325     1.0000 0.48780  0.73990  0.90690  Biso   1.000  H
  H326     1.0000 0.35380  0.77970  0.97940  Biso   1.000  H
  H327     1.0000 0.37660  0.80670  0.91790  Biso   1.000  H
  H328     1.0000 0.31510  0.75050  0.95410  Biso   1.000  H
  H329     1.0000 0.49390  0.21630  0.21820  Biso   1.000  H
  H330     1.0000 0.39420  0.16150  0.29420  Biso   1.000  H
  H331     1.0000 0.30830  0.19280  0.32160  Biso   1.000  H
  H332     1.0000 0.32350  0.28060  0.27200  Biso   1.000  H
  H333     1.0000 0.56040  0.53990  0.03690  Biso   1.000  H
  H334     1.0000 0.53090  0.53840  0.09060  Biso   1.000  H
  H335     1.0000 0.64820  0.60240  0.03340  Biso   1.000  H
  H336     1.0000 0.67800  0.55560  0.04450  Biso   1.000  H
  H337     1.0000 0.63960  0.52730  0.13200  Biso   1.000  H
  H338     1.0000 0.59990  0.56820  0.12490  Biso   1.000  H
  H339     1.0000 0.75220  0.59510  0.08460  Biso   1.000  H
  H340     1.0000 0.71360  0.63640  0.07550  Biso   1.000  H
  H341     1.0000 0.71550  0.57000  0.17350  Biso   1.000  H
  H342     1.0000 0.68410  0.61600  0.16070  Biso   1.000  H
  H343     1.0000 0.84860  0.16550  0.48420  Biso   1.000  H
  H344     1.0000 0.95170  0.23820  0.43030  Biso   1.000  H
  H345     1.0000 0.89380  0.24650  0.31380  Biso   1.000  H
  H346     1.0000 0.77830  0.19000  0.37520  Biso   1.000  H
  H347     1.0000 0.05200  0.25310  0.32880  Biso   1.000  H
  H348     1.0000 0.01330  0.28540  0.29360  Biso   1.000  H
  H349     1.0000 0.76240  0.27370  0.24300  Biso   1.000  H
  H350     1.0000 0.79560  0.28630  0.16020  Biso   1.000  H
  H351     1.0000 0.71960  0.22990  0.14220  Biso   1.000  H
  H352     1.0000 0.61180  0.16800  0.20600  Biso   1.000  H
  H353     1.0000 0.38530  0.03070  0.49710  Biso   1.000  H
  H354     1.0000 0.35080  0.03130  0.45480  Biso   1.000  H
  H355     1.0000 0.34470  0.08280  0.50690  Biso   1.000  H
  H356     1.0000 0.28210  0.03910  0.51090  Biso   1.000  H
  H357     1.0000 0.33170  0.13630  0.43530  Biso   1.000  H
  H358     1.0000 0.26040  0.09040  0.45180  Biso   1.000  H
  H359     1.0000 0.27860  0.14660  0.50620  Biso   1.000  H
  H360     1.0000 0.22830  0.15030  0.47210  Biso   1.000  H
  H361     1.0000 0.19940  0.05560  0.57060  Biso   1.000  H
  H362     1.0000 0.15110  0.05630  0.53560  Biso   1.000  H
  H363     1.0000 0.15830  0.12100  0.58290  Biso   1.000  H
  H364     1.0000 0.10430  0.11420  0.55360  Biso   1.000  H
  H365     1.0000 0.09140  0.03320  0.65410  Biso   1.000  H
  H366     1.0000 0.03850  0.02420  0.62440  Biso   1.000  H
  H367     1.0000 0.99970  0.09010  0.62910  Biso   1.000  H
  H368     1.0000 0.04850  0.09400  0.66300  Biso   1.000  H
  H369     1.0000 0.98520  0.01610  0.72520  Biso   1.000  H
  H370     1.0000 0.94530  0.00290  0.68980  Biso   1.000  H
  H371     1.0000 0.94420  0.07970  0.71440  Biso   1.000  H
  H372     1.0000 0.90950  0.07160  0.67480  Biso   1.000  H
  H373     1.0000 0.81190  0.01540  0.74640  Biso   1.000  H
  H374     1.0000 0.85530  0.97670  0.75360  Biso   1.000  H
  H375     1.0000 0.85780  0.00870  0.78350  Biso   1.000  H
  H376     1.0000 0.44660  0.19720  0.43500  Biso   1.000  H
  H377     1.0000 0.37840  0.24840  0.42980  Biso   1.000  H
  H378     1.0000 0.49670  0.33610  0.28050  Biso   1.000  H
  H379     1.0000 0.55490  0.27770  0.29020  Biso   1.000  H
  H380     1.0000 0.34810  0.32700  0.33380  Biso   1.000  H
  H381     1.0000 0.41730  0.37060  0.32610  Biso   1.000  H
  H382     1.0000 0.27580  0.10290  0.29060  Biso   1.000  H
  H383     1.0000 0.15130  0.06520  0.32250  Biso   1.000  H
  H384     1.0000 0.09290  0.98190  0.39460  Biso   1.000  H
  H385     1.0000 0.16050  0.94120  0.43850  Biso   1.000  H
  H386     1.0000 0.55660  0.96190  0.42890  Biso   1.000  H
  H387     1.0000 0.48330  0.91830  0.47500  Biso   1.000  H
  H388     1.0000 0.54420  0.92090  0.37860  Biso   1.000  H
  H389     1.0000 0.46750  0.87920  0.42150  Biso   1.000  H
  H390     1.0000 0.60260  0.88700  0.43680  Biso   1.000  H
  H391     1.0000 0.52630  0.84670  0.48140  Biso   1.000  H
  H392     1.0000 0.58850  0.84430  0.38840  Biso   1.000  H
  H393     1.0000 0.50920  0.80630  0.42960  Biso   1.000  H
  H394     1.0000 0.56000  0.76980  0.49360  Biso   1.000  H
  H395     1.0000 0.63910  0.80720  0.45180  Biso   1.000  H
  H396     1.0000 0.62370  0.76600  0.40310  Biso   1.000  H
  H397     1.0000 0.54440  0.72900  0.44440  Biso   1.000  H
  H398     1.0000 0.66890  0.72930  0.47050  Biso   1.000  H
  H399     1.0000 0.58910  0.68830  0.50600  Biso   1.000  H
  H400     1.0000 0.67790  0.69390  0.41560  Biso   1.000  H
  H401     1.0000 0.59570  0.65550  0.44710  Biso   1.000  H
  H402     1.0000 0.71130  0.65110  0.48470  Biso   1.000  H
  H403     1.0000 0.62890  0.61640  0.52140  Biso   1.000  H
  H404     1.0000 0.70780  0.60890  0.43620  Biso   1.000  H
  H405     1.0000 0.62330  0.57820  0.46640  Biso   1.000  H
  H406     1.0000 0.64690  0.52970  0.53970  Biso   1.000  H
  H407     1.0000 0.68090  0.52280  0.49170  Biso   1.000  H
  H408     1.0000 0.73140  0.55870  0.50600  Biso   1.000  H
  H409     1.0000 0.40930  0.01620  0.25340  Biso   1.000  H
  H410     1.0000 0.31000  0.89600  0.37350  Biso   1.000  H
  H411     1.0000 0.34140  0.87420  0.33760  Biso   1.000  H
  H412     1.0000 0.39470  0.90690  0.35320  Biso   1.000  H
  H413     1.0000 0.33320  0.97940  0.24090  Biso   1.000  H
  H414     1.0000 0.29450  0.91790  0.27540  Biso   1.000  H
  H415     1.0000 0.26920  0.95410  0.29540  Biso   1.000  H
  H416     1.0000 0.71210  0.21820  0.56550  Biso   1.000  H
  H417     1.0000 0.68840  0.29420  0.54430  Biso   1.000  H
  H418     1.0000 0.62990  0.32160  0.48560  Biso   1.000  H
  H419     1.0000 0.59550  0.27200  0.44740  Biso   1.000  H
  H420     1.0000 0.59730  0.03690  0.42320  Biso   1.000  H
  H421     1.0000 0.62150  0.09060  0.37100  Biso   1.000  H
  H422     1.0000 0.68160  0.03340  0.36420  Biso   1.000  H
  H423     1.0000 0.72250  0.04450  0.39990  Biso   1.000  H
  H424     1.0000 0.77160  0.13200  0.34070  Biso   1.000  H
  H425     1.0000 0.72480  0.12490  0.30690  Biso   1.000  H
  H426     1.0000 0.83680  0.08460  0.32030  Biso   1.000  H
  H427     1.0000 0.78910  0.07550  0.28810  Biso   1.000  H
  H428     1.0000 0.88900  0.17350  0.25650  Biso   1.000  H
  H429     1.0000 0.84480  0.16070  0.22330  Biso   1.000  H
  H430     1.0000 0.33280  0.48420  0.35030  Biso   1.000  H
  H431     1.0000 0.38200  0.43030  0.33150  Biso   1.000  H
  H432     1.0000 0.20760  0.31380  0.43970  Biso   1.000  H
  H433     1.0000 0.15350  0.37520  0.43480  Biso   1.000  H
  H434     1.0000 0.38080  0.32880  0.41810  Biso   1.000  H
  H435     1.0000 0.30690  0.29360  0.42100  Biso   1.000  H
  H436     1.0000 0.00540  0.24300  0.48330  Biso   1.000  H
  H437     1.0000 0.95580  0.16020  0.55350  Biso   1.000  H
  H438     1.0000 0.86180  0.14220  0.62790  Biso   1.000  H
  H439     1.0000 0.81780  0.20600  0.62600  Biso   1.000  H
  H440     1.0000 0.88240  0.49710  0.47220  Biso   1.000  H
  H441     1.0000 0.80560  0.45480  0.51390  Biso   1.000  H
  H442     1.0000 0.85160  0.50690  0.41030  Biso   1.000  H
  H443     1.0000 0.79300  0.51090  0.45000  Biso   1.000  H
  H444     1.0000 0.76700  0.43530  0.42840  Biso   1.000  H
  H445     1.0000 0.71220  0.45180  0.45780  Biso   1.000  H
  H446     1.0000 0.78480  0.50620  0.34720  Biso   1.000  H
  H447     1.0000 0.70040  0.47210  0.37760  Biso   1.000  H
  H448     1.0000 0.77000  0.57060  0.37380  Biso   1.000  H
  H449     1.0000 0.68670  0.53560  0.40810  Biso   1.000  H
  H450     1.0000 0.74120  0.58290  0.29610  Biso   1.000  H
  H451     1.0000 0.65790  0.55360  0.33220  Biso   1.000  H
  H452     1.0000 0.74550  0.65410  0.31270  Biso   1.000  H
  H453     1.0000 0.66290  0.62440  0.35140  Biso   1.000  H
  H454     1.0000 0.62880  0.62910  0.28080  Biso   1.000  H
  H455     1.0000 0.71150  0.66300  0.24300  Biso   1.000  H
  H456     1.0000 0.71040  0.72520  0.25870  Biso   1.000  H
  H457     1.0000 0.63510  0.68980  0.30730  Biso   1.000  H
  H458     1.0000 0.65860  0.71440  0.20590  Biso   1.000  H
  H459     1.0000 0.58430  0.67480  0.25360  Biso   1.000  H
  H460     1.0000 0.55830  0.74640  0.23820  Biso   1.000  H
  H461     1.0000 0.60890  0.75360  0.26970  Biso   1.000  H
  H462     1.0000 0.64130  0.78350  0.20780  Biso   1.000  H
  H463     1.0000 0.88160  0.43500  0.36780  Biso   1.000  H
  H464     1.0000 0.80820  0.42980  0.32180  Biso   1.000  H
  H465     1.0000 0.77720  0.28050  0.38340  Biso   1.000  H
  H466     1.0000 0.84510  0.29020  0.43210  Biso   1.000  H
  H467     1.0000 0.68190  0.33380  0.33920  Biso   1.000  H
  H468     1.0000 0.74340  0.32610  0.30330  Biso   1.000  H
  H469     1.0000 0.56640  0.29060  0.60650  Biso   1.000  H
  H470     1.0000 0.47380  0.32250  0.61230  Biso   1.000  H
  H471     1.0000 0.48750  0.39460  0.62350  Biso   1.000  H
  H472     1.0000 0.59900  0.43850  0.62030  Biso   1.000  H
  H473     1.0000 0.98550  0.42890  0.60920  Biso   1.000  H
  H474     1.0000 0.95830  0.47500  0.60670  Biso   1.000  H
  H475     1.0000 0.92280  0.37860  0.70050  Biso   1.000  H
  H476     1.0000 0.88900  0.42150  0.69930  Biso   1.000  H
  H477     1.0000 0.03940  0.43680  0.67620  Biso   1.000  H
  H478     1.0000 0.00770  0.48140  0.67190  Biso   1.000  H
  H479     1.0000 0.97690  0.38840  0.76730  Biso   1.000  H
  H480     1.0000 0.93880  0.42960  0.76410  Biso   1.000  H
  H481     1.0000 0.05360  0.49360  0.73660  Biso   1.000  H
  H482     1.0000 0.09090  0.45180  0.74100  Biso   1.000  H
  H483     1.0000 0.02680  0.40310  0.83090  Biso   1.000  H
  H484     1.0000 0.98880  0.44440  0.82660  Biso   1.000  H
  H485     1.0000 0.13940  0.47050  0.80020  Biso   1.000  H
  H486     1.0000 0.09510  0.50600  0.80570  Biso   1.000  H
  H487     1.0000 0.09350  0.41560  0.89050  Biso   1.000  H
  H488     1.0000 0.04280  0.44710  0.89740  Biso   1.000  H
  H489     1.0000 0.19600  0.48470  0.86420  Biso   1.000  H
  H490     1.0000 0.15030  0.52140  0.86220  Biso   1.000  H
  H491     1.0000 0.14400  0.43620  0.95490  Biso   1.000  H
  H492     1.0000 0.08970  0.46640  0.95540  Biso   1.000  H
  H493     1.0000 0.18660  0.53970  0.93060  Biso   1.000  H
  H494     1.0000 0.17260  0.49170  0.98550  Biso   1.000  H
  H495     1.0000 0.23740  0.50600  0.93530  Biso   1.000  H
  H496     1.0000 0.66270  0.25340  0.73040  Biso   1.000  H
  H497     1.0000 0.68350  0.37350  0.73050  Biso   1.000  H
  H498     1.0000 0.67900  0.33760  0.78820  Biso   1.000  H
  H499     1.0000 0.74790  0.35320  0.73990  Biso   1.000  H
  H500     1.0000 0.57410  0.24090  0.77970  Biso   1.000  H
  H501     1.0000 0.56990  0.27540  0.80670  Biso   1.000  H
  H502     1.0000 0.56460  0.29540  0.75050  Biso   1.000  H
  H503     1.0000 0.27760  0.56550  0.21630  Biso   1.000  H
  H504     1.0000 0.23270  0.54430  0.16150  Biso   1.000  H
  H505     1.0000 0.11550  0.48560  0.19280  Biso   1.000  H
  H506     1.0000 0.04290  0.44740  0.28060  Biso   1.000  H
  H507     1.0000 0.02050  0.42320  0.53990  Biso   1.000  H
  H508     1.0000 0.99250  0.37100  0.53840  Biso   1.000  H
  H509     1.0000 0.04580  0.36420  0.60240  Biso   1.000  H
  H510     1.0000 0.12240  0.39990  0.55560  Biso   1.000  H
  H511     1.0000 0.11230  0.34070  0.52730  Biso   1.000  H
  H512     1.0000 0.03170  0.30690  0.56820  Biso   1.000  H
  H513     1.0000 0.15710  0.32030  0.59510  Biso   1.000  H
  H514     1.0000 0.07720  0.28810  0.63640  Biso   1.000  H
  H515     1.0000 0.14550  0.25650  0.57000  Biso   1.000  H
  H516     1.0000 0.06810  0.22330  0.61600  Biso   1.000  H
  H517     1.0000 0.68310  0.35030  0.16550  Biso   1.000  H
  H518     1.0000 0.71350  0.33150  0.23820  Biso   1.000  H
  H519     1.0000 0.64730  0.43970  0.24650  Biso   1.000  H
  H520     1.0000 0.58830  0.43480  0.19000  Biso   1.000  H
  H521     1.0000 0.79890  0.41810  0.25310  Biso   1.000  H
  H522     1.0000 0.72790  0.42100  0.28540  Biso   1.000  H
  C1       1.0000 0.55504  0.49193  0.78121  Biso   1.000  C
  C2       1.0000 0.52330  0.48820  0.74670  Biso   1.000  C
  C3       1.0000 0.50860  0.44610  0.74000  Biso   1.000  C
  C4       1.0000 0.52110  0.40240  0.77310  Biso   1.000  C
  C5       1.0000 0.54863  0.40379  0.80950  Biso   1.000  C
  C6       1.0000 0.56610  0.44738  0.81448  Biso   1.000  C
  C7       1.0000 0.59237  0.44403  0.85652  Biso   1.000  C
  C8       1.0000 0.65208  0.51944  0.90640  Biso   1.000  C
  C9       1.0000 0.67964  0.52081  0.94689  Biso   1.000  C
  C10      1.0000 0.74730  0.55690  0.92880  Biso   1.000  C
  C11      1.0000 0.81290  0.57120  0.89450  Biso   1.000  C
  C12      1.0000 0.87940  0.62200  0.87330  Biso   1.000  C
  C13      1.0000 0.89790  0.62430  0.92240  Biso   1.000  C
  C14      1.0000 0.96740  0.67210  0.90420  Biso   1.000  C
  C15      1.0000 0.98250  0.68060  0.94960  Biso   1.000  C
  C16      1.0000 0.05010  0.72440  0.92950  Biso   1.000  C
  C17      1.0000 0.06290  0.72700  0.96930  Biso   1.000  C
  C18      1.0000 0.13140  0.75930  0.94610  Biso   1.000  C
  C19      1.0000 0.15380  0.76100  0.99040  Biso   1.000  C
  C20      1.0000 0.77040  0.62710  0.77490  Biso   1.000  C
  C21      1.0000 0.84120  0.65540  0.74380  Biso   1.000  C
  C22      1.0000 0.87115  0.65180  0.70195  Biso   1.000  C
  C23      1.0000 0.82400  0.61960  0.69390  Biso   1.000  C
  C24      1.0000 0.75350  0.59070  0.72890  Biso   1.000  C
  C25      1.0000 0.95020  0.68360  0.66580  Biso   1.000  C
  C26      1.0000 0.75148  0.39023  0.95509  Biso   1.000  C
  C27      1.0000 0.81720  0.39040  0.93030  Biso   1.000  C
  C28      1.0000 0.86840  0.38640  0.95300  Biso   1.000  C
  C29      1.0000 0.85450  0.38080  0.00170  Biso   1.000  C
  C30      1.0000 0.78930  0.38150  0.02610  Biso   1.000  C
  C31      1.0000 0.73633  0.38457  0.00508  Biso   1.000  C
  C32      1.0000 0.66878  0.38419  0.03455  Biso   1.000  C
  C33      1.0000 0.50291  0.38272  0.03059  Biso   1.000  C
  C34      1.0000 0.43040  0.37529  0.06159  Biso   1.000  C
  C35      1.0000 0.38478  0.31696  0.09932  Biso   1.000  C
  C36      1.0000 0.31240  0.30920  0.13440  Biso   1.000  C
  C37      1.0000 0.26760  0.25130  0.17430  Biso   1.000  C
  C38      1.0000 0.19790  0.24420  0.21220  Biso   1.000  C
  C39      1.0000 0.15440  0.18830  0.25200  Biso   1.000  C
  C40      1.0000 0.08630  0.17970  0.29020  Biso   1.000  C
  C41      1.0000 0.03360  0.12360  0.32680  Biso   1.000  C
  C42      1.0000 0.96990  0.11900  0.36660  Biso   1.000  C
  C43      1.0000 0.92250  0.06210  0.40840  Biso   1.000  C
  C44      1.0000 0.86380  0.05180  0.45300  Biso   1.000  C
  C45      1.0000 0.58280  0.27820  0.00770  Biso   1.000  C
  C46      1.0000 0.55200  0.24750  0.09700  Biso   1.000  C
  C47      1.0000 0.63920  0.22630  0.05000  Biso   1.000  C
  C48      1.0000 0.52749  0.71638  0.79821  Biso   1.000  C
  C49      1.0000 0.53954  0.77038  0.76986  Biso   1.000  C
  C50      1.0000 0.59950  0.80310  0.72530  Biso   1.000  C
  C51      1.0000 0.65040  0.78460  0.70890  Biso   1.000  C
  C52      1.0000 0.64030  0.73170  0.73820  Biso   1.000  C
  C53      1.0000 0.57846  0.69782  0.78124  Biso   1.000  C
  C54      1.0000 0.56956  0.64276  0.80568  Biso   1.000  C
  C55      1.0000 0.44588  0.52570  0.90126  Biso   1.000  C
  C56      1.0000 0.43228  0.46866  0.93002  Biso   1.000  C
  C57      1.0000 0.36000  0.43380  0.94100  Biso   1.000  C
  C58      1.0000 0.35760  0.43750  0.89160  Biso   1.000  C
  C59      1.0000 0.28940  0.39830  0.89920  Biso   1.000  C
  C60      1.0000 0.27900  0.39540  0.85370  Biso   1.000  C
  C61      1.0000 0.14550  0.81570  0.55130  Biso   1.000  C
  C62      1.0000 0.07710  0.77720  0.58360  Biso   1.000  C
  C63      1.0000 0.05500  0.76370  0.62920  Biso   1.000  C
  C64      1.0000 0.11480  0.77080  0.65010  Biso   1.000  C
  C65      1.0000 0.18250  0.80380  0.61350  Biso   1.000  C
  C66      1.0000 0.98110  0.72750  0.67220  Biso   1.000  C
  C67      1.0000 0.33625  0.78121  0.72686  Biso   1.000  C
  C68      1.0000 0.27000  0.74670  0.76510  Biso   1.000  C
  C69      1.0000 0.24860  0.74000  0.81390  Biso   1.000  C
  C70      1.0000 0.29420  0.77310  0.82450  Biso   1.000  C
  C71      1.0000 0.35813  0.80950  0.78671  Biso   1.000  C
  C72      1.0000 0.38058  0.81448  0.73814  Biso   1.000  C
  C73      1.0000 0.44889  0.85652  0.69945  Biso   1.000  C
  C74      1.0000 0.55848  0.90640  0.57416  Biso   1.000  C
  C75      1.0000 0.62653  0.94689  0.53230  Biso   1.000  C
  C76      1.0000 0.67610  0.92880  0.51430  Biso   1.000  C
  C77      1.0000 0.70740  0.89450  0.53430  Biso   1.000  C
  C78      1.0000 0.75270  0.87330  0.50470  Biso   1.000  C
  C79      1.0000 0.82030  0.92240  0.45330  Biso   1.000  C
  C80      1.0000 0.87160  0.90420  0.42370  Biso   1.000  C
  C81      1.0000 0.93210  0.94960  0.36980  Biso   1.000  C
  C82      1.0000 0.97960  0.92950  0.34610  Biso   1.000  C
  C83      1.0000 0.03220  0.96930  0.30370  Biso   1.000  C
  C84      1.0000 0.07750  0.94610  0.29460  Biso   1.000  C
  C85      1.0000 0.14420  0.99040  0.24860  Biso   1.000  C
  C86      1.0000 0.54530  0.77490  0.59800  Biso   1.000  C
  C87      1.0000 0.58500  0.74380  0.60080  Biso   1.000  C
  C88      1.0000 0.57310  0.70195  0.64625  Biso   1.000  C
  C89      1.0000 0.51790  0.69390  0.68650  Biso   1.000  C
  C90      1.0000 0.48240  0.72890  0.68040  Biso   1.000  C
  C91      1.0000 0.61600  0.66580  0.65060  Biso   1.000  C
  C92      1.0000 0.70657  0.95509  0.65468  Biso   1.000  C
  C93      1.0000 0.74750  0.93030  0.67930  Biso   1.000  C
  C94      1.0000 0.82140  0.95300  0.66060  Biso   1.000  C
  C95      1.0000 0.85620  0.00170  0.61750  Biso   1.000  C
  C96      1.0000 0.81540  0.02610  0.59240  Biso   1.000  C
  C97      1.0000 0.74141  0.00508  0.61035  Biso   1.000  C
  C98      1.0000 0.70333  0.03455  0.58126  Biso   1.000  C
  C99      1.0000 0.53350  0.03059  0.58669  Biso   1.000  C
  C100     1.0000 0.49199  0.06159  0.56312  Biso   1.000  C
  C101     1.0000 0.48410  0.09932  0.58372  Biso   1.000  C
  C102     1.0000 0.44680  0.13440  0.55640  Biso   1.000  C
  C103     1.0000 0.44190  0.17430  0.57440  Biso   1.000  C
  C104     1.0000 0.41010  0.21220  0.54360  Biso   1.000  C
  C105     1.0000 0.40640  0.25200  0.55970  Biso   1.000  C
  C106     1.0000 0.37650  0.29020  0.53010  Biso   1.000  C
  C107     1.0000 0.36040  0.32680  0.54960  Biso   1.000  C
  C108     1.0000 0.33650  0.36660  0.51440  Biso   1.000  C
  C109     1.0000 0.33090  0.40840  0.52950  Biso   1.000  C
  C110     1.0000 0.31680  0.45300  0.49520  Biso   1.000  C
  C111     1.0000 0.59050  0.00770  0.71410  Biso   1.000  C
  C112     1.0000 0.64900  0.09700  0.65550  Biso   1.000  C
  C113     1.0000 0.68920  0.05000  0.72370  Biso   1.000  C
  C114     1.0000 0.32570  0.79821  0.48541  Biso   1.000  C
  C115     1.0000 0.30940  0.76986  0.45976  Biso   1.000  C
  C116     1.0000 0.32480  0.72530  0.47160  Biso   1.000  C
  C117     1.0000 0.35930  0.70890  0.50650  Biso   1.000  C
  C118     1.0000 0.37850  0.73820  0.53010  Biso   1.000  C
  C119     1.0000 0.35970  0.78124  0.52094  Biso   1.000  C
  C120     1.0000 0.37524  0.80568  0.55156  Biso   1.000  C
  C121     1.0000 0.34714  0.90126  0.57304  Biso   1.000  C
  C122     1.0000 0.36230  0.93002  0.60132  Biso   1.000  C
  C123     1.0000 0.30100  0.94100  0.62520  Biso   1.000  C
  C124     1.0000 0.24920  0.89160  0.67090  Biso   1.000  C
  C125     1.0000 0.18860  0.89920  0.70250  Biso   1.000  C
  C126     1.0000 0.13270  0.85370  0.75090  Biso   1.000  C
  C127     1.0000 0.69680  0.55130  0.63300  Biso   1.000  C
  C128     1.0000 0.66070  0.58360  0.63920  Biso   1.000  C
  C129     1.0000 0.68420  0.62920  0.60710  Biso   1.000  C
  C130     1.0000 0.76490  0.65010  0.57910  Biso   1.000  C
  C131     1.0000 0.79600  0.61350  0.58270  Biso   1.000  C
  C132     1.0000 0.65330  0.67220  0.60030  Biso   1.000  C
  C133     1.0000 0.06311  0.72686  0.49193  Biso   1.000  C
  C134     1.0000 0.03510  0.76510  0.48820  Biso   1.000  C
  C135     1.0000 0.06250  0.81390  0.44610  Biso   1.000  C
  C136     1.0000 0.11870  0.82450  0.40240  Biso   1.000  C
  C137     1.0000 0.14484  0.78671  0.40379  Biso   1.000  C
  C138     1.0000 0.11872  0.73814  0.44738  Biso   1.000  C
  C139     1.0000 0.14834  0.69945  0.44403  Biso   1.000  C
  C140     1.0000 0.13264  0.57416  0.51944  Biso   1.000  C
  C141     1.0000 0.15883  0.53230  0.52081  Biso   1.000  C
  C142     1.0000 0.19040  0.51430  0.55690  Biso   1.000  C
  C143     1.0000 0.24170  0.53430  0.57120  Biso   1.000  C
  C144     1.0000 0.25740  0.50470  0.62200  Biso   1.000  C
  C145     1.0000 0.27360  0.45330  0.62430  Biso   1.000  C
  C146     1.0000 0.29530  0.42370  0.67210  Biso   1.000  C
  C147     1.0000 0.30190  0.36980  0.68060  Biso   1.000  C
  C148     1.0000 0.32570  0.34610  0.72440  Biso   1.000  C
  C149     1.0000 0.33590  0.30370  0.72700  Biso   1.000  C
  C150     1.0000 0.37210  0.29460  0.75930  Biso   1.000  C
  C151     1.0000 0.39280  0.24860  0.76100  Biso   1.000  C
  C152     1.0000 0.14330  0.59800  0.62710  Biso   1.000  C
  C153     1.0000 0.18580  0.60080  0.65540  Biso   1.000  C
  C154     1.0000 0.21935  0.64625  0.65180  Biso   1.000  C
  C155     1.0000 0.20440  0.68650  0.61960  Biso   1.000  C
  C156     1.0000 0.16280  0.68040  0.59070  Biso   1.000  C
  C157     1.0000 0.26660  0.65060  0.68360  Biso   1.000  C
  C158     1.0000 0.36125  0.65468  0.39023  Biso   1.000  C
  C159     1.0000 0.42680  0.67930  0.39040  Biso   1.000  C
  C160     1.0000 0.48200  0.66060  0.38640  Biso   1.000  C
  C161     1.0000 0.47370  0.61750  0.38080  Biso   1.000  C
  C162     1.0000 0.40780  0.59240  0.38150  Biso   1.000  C
  C163     1.0000 0.35176  0.61035  0.38457  Biso   1.000  C
  C164     1.0000 0.28459  0.58126  0.38419  Biso   1.000  C
  C165     1.0000 0.12019  0.58669  0.38272  Biso   1.000  C
  C166     1.0000 0.05511  0.56312  0.37529  Biso   1.000  C
  C167     1.0000 0.06782  0.58372  0.31696  Biso   1.000  C
  C168     1.0000 0.00320  0.55640  0.30920  Biso   1.000  C
  C169     1.0000 0.01630  0.57440  0.25130  Biso   1.000  C
  C170     1.0000 0.95370  0.54360  0.24420  Biso   1.000  C
  C171     1.0000 0.96610  0.55970  0.18830  Biso   1.000  C
  C172     1.0000 0.90660  0.53010  0.17970  Biso   1.000  C
  C173     1.0000 0.91000  0.54960  0.12360  Biso   1.000  C
  C174     1.0000 0.85090  0.51440  0.11900  Biso   1.000  C
  C175     1.0000 0.86040  0.52950  0.06210  Biso   1.000  C
  C176     1.0000 0.81200  0.49520  0.05180  Biso   1.000  C
  C177     1.0000 0.30460  0.71410  0.27820  Biso   1.000  C
  C178     1.0000 0.30450  0.65550  0.24750  Biso   1.000  C
  C179     1.0000 0.41290  0.72370  0.22630  Biso   1.000  C
  C180     1.0000 0.81111  0.48541  0.71638  Biso   1.000  C
  C181     1.0000 0.76916  0.45976  0.77038  Biso   1.000  C
  C182     1.0000 0.79640  0.47160  0.80310  Biso   1.000  C
  C183     1.0000 0.86580  0.50650  0.78460  Biso   1.000  C
  C184     1.0000 0.90860  0.53010  0.73170  Biso   1.000  C
  C185     1.0000 0.88064  0.52094  0.69782  Biso   1.000  C
  C186     1.0000 0.92680  0.55156  0.64276  Biso   1.000  C
  C187     1.0000 0.92018  0.57304  0.52570  Biso   1.000  C
  C188     1.0000 0.96362  0.60132  0.46866  Biso   1.000  C
  C189     1.0000 0.92620  0.62520  0.43380  Biso   1.000  C
  C190     1.0000 0.92010  0.67090  0.43750  Biso   1.000  C
  C191     1.0000 0.89110  0.70250  0.39830  Biso   1.000  C
  C192     1.0000 0.88360  0.75090  0.39540  Biso   1.000  C
  C193     1.0000 0.32980  0.63300  0.81570  Biso   1.000  C
  C194     1.0000 0.29990  0.63920  0.77720  Biso   1.000  C
  C195     1.0000 0.29130  0.60710  0.76370  Biso   1.000  C
  C196     1.0000 0.34400  0.57910  0.77080  Biso   1.000  C
  C197     1.0000 0.37870  0.58270  0.80380  Biso   1.000  C
  C198     1.0000 0.25360  0.60030  0.72750  Biso   1.000  C
  C199     1.0000 0.44496  0.50807  0.21879  Biso   1.000  C
  C200     1.0000 0.47670  0.51180  0.25330  Biso   1.000  C
  C201     1.0000 0.49140  0.55390  0.26000  Biso   1.000  C
  C202     1.0000 0.47890  0.59760  0.22690  Biso   1.000  C
  C203     1.0000 0.45137  0.59621  0.19050  Biso   1.000  C
  C204     1.0000 0.43390  0.55262  0.18552  Biso   1.000  C
  C205     1.0000 0.40763  0.55597  0.14348  Biso   1.000  C
  C206     1.0000 0.34792  0.48056  0.09360  Biso   1.000  C
  C207     1.0000 0.32036  0.47919  0.05311  Biso   1.000  C
  C208     1.0000 0.25270  0.44310  0.07120  Biso   1.000  C
  C209     1.0000 0.18710  0.42880  0.10550  Biso   1.000  C
  C210     1.0000 0.12060  0.37800  0.12670  Biso   1.000  C
  C211     1.0000 0.10210  0.37570  0.07760  Biso   1.000  C
  C212     1.0000 0.03260  0.32790  0.09580  Biso   1.000  C
  C213     1.0000 0.01750  0.31940  0.05040  Biso   1.000  C
  C214     1.0000 0.94990  0.27560  0.07050  Biso   1.000  C
  C215     1.0000 0.93710  0.27300  0.03070  Biso   1.000  C
  C216     1.0000 0.86860  0.24070  0.05390  Biso   1.000  C
  C217     1.0000 0.84620  0.23900  0.00960  Biso   1.000  C
  C218     1.0000 0.22960  0.37290  0.22510  Biso   1.000  C
  C219     1.0000 0.15880  0.34460  0.25620  Biso   1.000  C
  C220     1.0000 0.12885  0.34820  0.29805  Biso   1.000  C
  C221     1.0000 0.17600  0.38040  0.30610  Biso   1.000  C
  C222     1.0000 0.24650  0.40930  0.27110  Biso   1.000  C
  C223     1.0000 0.04980  0.31640  0.33420  Biso   1.000  C
  C224     1.0000 0.24852  0.60977  0.04491  Biso   1.000  C
  C225     1.0000 0.18280  0.60960  0.06970  Biso   1.000  C
  C226     1.0000 0.13160  0.61360  0.04700  Biso   1.000  C
  C227     1.0000 0.14550  0.61920  0.99830  Biso   1.000  C
  C228     1.0000 0.21070  0.61850  0.97390  Biso   1.000  C
  C229     1.0000 0.26367  0.61543  0.99492  Biso   1.000  C
  C230     1.0000 0.33122  0.61581  0.96545  Biso   1.000  C
  C231     1.0000 0.49709  0.61728  0.96941  Biso   1.000  C
  C232     1.0000 0.56960  0.62471  0.93841  Biso   1.000  C
  C233     1.0000 0.61522  0.68304  0.90068  Biso   1.000  C
  C234     1.0000 0.68760  0.69080  0.86560  Biso   1.000  C
  C235     1.0000 0.73240  0.74870  0.82570  Biso   1.000  C
  C236     1.0000 0.80210  0.75580  0.78780  Biso   1.000  C
  C237     1.0000 0.84560  0.81170  0.74800  Biso   1.000  C
  C238     1.0000 0.91370  0.82030  0.70980  Biso   1.000  C
  C239     1.0000 0.96640  0.87640  0.67320  Biso   1.000  C
  C240     1.0000 0.03010  0.88100  0.63340  Biso   1.000  C
  C241     1.0000 0.07750  0.93790  0.59160  Biso   1.000  C
  C242     1.0000 0.13620  0.94820  0.54700  Biso   1.000  C
  C243     1.0000 0.41720  0.72180  0.99230  Biso   1.000  C
  C244     1.0000 0.44800  0.75250  0.90300  Biso   1.000  C
  C245     1.0000 0.36080  0.77370  0.95000  Biso   1.000  C
  C246     1.0000 0.47251  0.28362  0.20179  Biso   1.000  C
  C247     1.0000 0.46046  0.22962  0.23014  Biso   1.000  C
  C248     1.0000 0.40050  0.19690  0.27470  Biso   1.000  C
  C249     1.0000 0.34960  0.21540  0.29110  Biso   1.000  C
  C250     1.0000 0.35970  0.26830  0.26180  Biso   1.000  C
  C251     1.0000 0.42154  0.30218  0.21876  Biso   1.000  C
  C252     1.0000 0.43044  0.35724  0.19432  Biso   1.000  C
  C253     1.0000 0.55412  0.47430  0.09874  Biso   1.000  C
  C254     1.0000 0.56772  0.53134  0.06998  Biso   1.000  C
  C255     1.0000 0.64000  0.56620  0.05900  Biso   1.000  C
  C256     1.0000 0.64240  0.56250  0.10840  Biso   1.000  C
  C257     1.0000 0.71060  0.60170  0.10080  Biso   1.000  C
  C258     1.0000 0.72100  0.60460  0.14630  Biso   1.000  C
  C259     1.0000 0.85450  0.18430  0.44870  Biso   1.000  C
  C260     1.0000 0.92290  0.22280  0.41640  Biso   1.000  C
  C261     1.0000 0.94500  0.23630  0.37080  Biso   1.000  C
  C262     1.0000 0.88520  0.22920  0.34990  Biso   1.000  C
  C263     1.0000 0.81750  0.19620  0.38650  Biso   1.000  C
  C264     1.0000 0.01890  0.27250  0.32780  Biso   1.000  C
  C265     1.0000 0.66375  0.21879  0.27314  Biso   1.000  C
  C266     1.0000 0.73000  0.25330  0.23490  Biso   1.000  C
  C267     1.0000 0.75140  0.26000  0.18610  Biso   1.000  C
  C268     1.0000 0.70580  0.22690  0.17550  Biso   1.000  C
  C269     1.0000 0.64187  0.19050  0.21329  Biso   1.000  C
  C270     1.0000 0.61942  0.18552  0.26186  Biso   1.000  C
  C271     1.0000 0.55111  0.14348  0.30055  Biso   1.000  C
  C272     1.0000 0.44152  0.09360  0.42584  Biso   1.000  C
  C273     1.0000 0.37347  0.05311  0.46770  Biso   1.000  C
  C274     1.0000 0.32390  0.07120  0.48570  Biso   1.000  C
  C275     1.0000 0.29260  0.10550  0.46570  Biso   1.000  C
  C276     1.0000 0.24730  0.12670  0.49530  Biso   1.000  C
  C277     1.0000 0.17970  0.07760  0.54670  Biso   1.000  C
  C278     1.0000 0.12840  0.09580  0.57630  Biso   1.000  C
  C279     1.0000 0.06790  0.05040  0.63020  Biso   1.000  C
  C280     1.0000 0.02040  0.07050  0.65390  Biso   1.000  C
  C281     1.0000 0.96780  0.03070  0.69630  Biso   1.000  C
  C282     1.0000 0.92250  0.05390  0.70540  Biso   1.000  C
  C283     1.0000 0.85580  0.00960  0.75140  Biso   1.000  C
  C284     1.0000 0.45470  0.22510  0.40200  Biso   1.000  C
  C285     1.0000 0.41500  0.25620  0.39920  Biso   1.000  C
  C286     1.0000 0.42690  0.29805  0.35375  Biso   1.000  C
  C287     1.0000 0.48210  0.30610  0.31350  Biso   1.000  C
  C288     1.0000 0.51760  0.27110  0.31960  Biso   1.000  C
  C289     1.0000 0.38400  0.33420  0.34940  Biso   1.000  C
  C290     1.0000 0.29343  0.04491  0.34532  Biso   1.000  C
  C291     1.0000 0.25250  0.06970  0.32070  Biso   1.000  C
  C292     1.0000 0.17860  0.04700  0.33940  Biso   1.000  C
  C293     1.0000 0.14380  0.99830  0.38250  Biso   1.000  C
  C294     1.0000 0.18460  0.97390  0.40760  Biso   1.000  C
  C295     1.0000 0.25859  0.99492  0.38965  Biso   1.000  C
  C296     1.0000 0.29667  0.96545  0.41874  Biso   1.000  C
  C297     1.0000 0.46650  0.96941  0.41331  Biso   1.000  C
  C298     1.0000 0.50801  0.93841  0.43688  Biso   1.000  C
  C299     1.0000 0.51590  0.90068  0.41628  Biso   1.000  C
  C300     1.0000 0.55320  0.86560  0.44360  Biso   1.000  C
  C301     1.0000 0.55810  0.82570  0.42560  Biso   1.000  C
  C302     1.0000 0.58990  0.78780  0.45640  Biso   1.000  C
  C303     1.0000 0.59360  0.74800  0.44030  Biso   1.000  C
  C304     1.0000 0.62350  0.70980  0.46990  Biso   1.000  C
  C305     1.0000 0.63960  0.67320  0.45040  Biso   1.000  C
  C306     1.0000 0.66350  0.63340  0.48560  Biso   1.000  C
  C307     1.0000 0.66910  0.59160  0.47050  Biso   1.000  C
  C308     1.0000 0.68320  0.54700  0.50480  Biso   1.000  C
  C309     1.0000 0.40950  0.99230  0.28590  Biso   1.000  C
  C310     1.0000 0.35100  0.90300  0.34450  Biso   1.000  C
  C311     1.0000 0.31080  0.95000  0.27630  Biso   1.000  C
  C312     1.0000 0.67430  0.20179  0.51459  Biso   1.000  C
  C313     1.0000 0.69060  0.23014  0.54024  Biso   1.000  C
  C314     1.0000 0.67520  0.27470  0.52840  Biso   1.000  C
  C315     1.0000 0.64070  0.29110  0.49350  Biso   1.000  C
  C316     1.0000 0.62150  0.26180  0.46990  Biso   1.000  C
  C317     1.0000 0.64030  0.21876  0.47906  Biso   1.000  C
  C318     1.0000 0.62476  0.19432  0.44844  Biso   1.000  C
  C319     1.0000 0.65286  0.09874  0.42696  Biso   1.000  C
  C320     1.0000 0.63770  0.06998  0.39868  Biso   1.000  C
  C321     1.0000 0.69900  0.05900  0.37480  Biso   1.000  C
  C322     1.0000 0.75080  0.10840  0.32910  Biso   1.000  C
  C323     1.0000 0.81140  0.10080  0.29750  Biso   1.000  C
  C324     1.0000 0.86730  0.14630  0.24910  Biso   1.000  C
  C325     1.0000 0.30320  0.44870  0.36700  Biso   1.000  C
  C326     1.0000 0.33930  0.41640  0.36080  Biso   1.000  C
  C327     1.0000 0.31580  0.37080  0.39290  Biso   1.000  C
  C328     1.0000 0.23510  0.34990  0.42090  Biso   1.000  C
  C329     1.0000 0.20400  0.38650  0.41730  Biso   1.000  C
  C330     1.0000 0.34670  0.32780  0.39970  Biso   1.000  C
  C331     1.0000 0.93689  0.27314  0.50807  Biso   1.000  C
  C332     1.0000 0.96490  0.23490  0.51180  Biso   1.000  C
  C333     1.0000 0.93750  0.18610  0.55390  Biso   1.000  C
  C334     1.0000 0.88130  0.17550  0.59760  Biso   1.000  C
  C335     1.0000 0.85516  0.21329  0.59621  Biso   1.000  C
  C336     1.0000 0.88128  0.26186  0.55262  Biso   1.000  C
  C337     1.0000 0.85166  0.30055  0.55597  Biso   1.000  C
  C338     1.0000 0.86736  0.42584  0.48056  Biso   1.000  C
  C339     1.0000 0.84117  0.46770  0.47919  Biso   1.000  C
  C340     1.0000 0.80960  0.48570  0.44310  Biso   1.000  C
  C341     1.0000 0.75830  0.46570  0.42880  Biso   1.000  C
  C342     1.0000 0.74260  0.49530  0.37800  Biso   1.000  C
  C343     1.0000 0.72640  0.54670  0.37570  Biso   1.000  C
  C344     1.0000 0.70470  0.57630  0.32790  Biso   1.000  C
  C345     1.0000 0.69810  0.63020  0.31940  Biso   1.000  C
  C346     1.0000 0.67430  0.65390  0.27560  Biso   1.000  C
  C347     1.0000 0.66410  0.69630  0.27300  Biso   1.000  C
  C348     1.0000 0.62790  0.70540  0.24070  Biso   1.000  C
  C349     1.0000 0.60720  0.75140  0.23900  Biso   1.000  C
  C350     1.0000 0.85670  0.40200  0.37290  Biso   1.000  C
  C351     1.0000 0.81420  0.39920  0.34460  Biso   1.000  C
  C352     1.0000 0.78065  0.35375  0.34820  Biso   1.000  C
  C353     1.0000 0.79560  0.31350  0.38040  Biso   1.000  C
  C354     1.0000 0.83720  0.31960  0.40930  Biso   1.000  C
  C355     1.0000 0.73340  0.34940  0.31640  Biso   1.000  C
  C356     1.0000 0.63875  0.34532  0.60977  Biso   1.000  C
  C357     1.0000 0.57320  0.32070  0.60960  Biso   1.000  C
  C358     1.0000 0.51800  0.33940  0.61360  Biso   1.000  C
  C359     1.0000 0.52630  0.38250  0.61920  Biso   1.000  C
  C360     1.0000 0.59220  0.40760  0.61850  Biso   1.000  C
  C361     1.0000 0.64824  0.38965  0.61543  Biso   1.000  C
  C362     1.0000 0.71541  0.41874  0.61581  Biso   1.000  C
  C363     1.0000 0.87981  0.41331  0.61728  Biso   1.000  C
  C364     1.0000 0.94489  0.43688  0.62471  Biso   1.000  C
  C365     1.0000 0.93218  0.41628  0.68304  Biso   1.000  C
  C366     1.0000 0.99680  0.44360  0.69080  Biso   1.000  C
  C367     1.0000 0.98370  0.42560  0.74870  Biso   1.000  C
  C368     1.0000 0.04630  0.45640  0.75580  Biso   1.000  C
  C369     1.0000 0.03390  0.44030  0.81170  Biso   1.000  C
  C370     1.0000 0.09340  0.46990  0.82030  Biso   1.000  C
  C371     1.0000 0.09000  0.45040  0.87640  Biso   1.000  C
  C372     1.0000 0.14910  0.48560  0.88100  Biso   1.000  C
  C373     1.0000 0.13960  0.47050  0.93790  Biso   1.000  C
  C374     1.0000 0.18800  0.50480  0.94820  Biso   1.000  C
  C375     1.0000 0.69540  0.28590  0.72180  Biso   1.000  C
  C376     1.0000 0.69550  0.34450  0.75250  Biso   1.000  C
  C377     1.0000 0.58710  0.27630  0.77370  Biso   1.000  C
  C378     1.0000 0.18889  0.51459  0.28362  Biso   1.000  C
  C379     1.0000 0.23084  0.54024  0.22962  Biso   1.000  C
  C380     1.0000 0.20360  0.52840  0.19690  Biso   1.000  C
  C381     1.0000 0.13420  0.49350  0.21540  Biso   1.000  C
  C382     1.0000 0.09140  0.46990  0.26830  Biso   1.000  C
  C383     1.0000 0.11936  0.47906  0.30218  Biso   1.000  C
  C384     1.0000 0.07320  0.44844  0.35724  Biso   1.000  C
  C385     1.0000 0.07982  0.42696  0.47430  Biso   1.000  C
  C386     1.0000 0.03638  0.39868  0.53134  Biso   1.000  C
  C387     1.0000 0.07380  0.37480  0.56620  Biso   1.000  C
  C388     1.0000 0.07990  0.32910  0.56250  Biso   1.000  C
  C389     1.0000 0.10890  0.29750  0.60170  Biso   1.000  C
  C390     1.0000 0.11640  0.24910  0.60460  Biso   1.000  C
  C391     1.0000 0.67020  0.36700  0.18430  Biso   1.000  C
  C392     1.0000 0.70010  0.36080  0.22280  Biso   1.000  C
  C393     1.0000 0.70870  0.39290  0.23630  Biso   1.000  C
  C394     1.0000 0.65600  0.42090  0.22920  Biso   1.000  C
  C395     1.0000 0.62130  0.41730  0.19620  Biso   1.000  C
  C396     1.0000 0.74640  0.39970  0.27250  Biso   1.000  C
  N1       1.0000 0.61128  0.48576  0.86162  Biso   1.000  N
  N2       1.0000 0.63542  0.47729  0.90343  Biso   1.000  N
  N3       1.0000 0.72863  0.59323  0.76824  Biso   1.000  N
  N4       1.0000 0.61660  0.38636  0.01626  Biso   1.000  N
  N5       1.0000 0.55356  0.38368  0.04940  Biso   1.000  N
  N6       1.0000 0.58698  0.24897  0.05203  Biso   1.000  N
  N7       1.0000 0.50982  0.60864  0.84548  Biso   1.000  N
  N8       1.0000 0.50599  0.55637  0.86410  Biso   1.000  N
  N9       1.0000 0.19493  0.82830  0.56051  Biso   1.000  N
  N10      1.0000 0.47290  0.86162  0.65262  Biso   1.000  N
  N11      1.0000 0.53885  0.90343  0.61928  Biso   1.000  N
  N12      1.0000 0.49687  0.76824  0.63853  Biso   1.000  N
  N13      1.0000 0.63286  0.01626  0.59738  Biso   1.000  N
  N14      1.0000 0.60296  0.04940  0.56692  Biso   1.000  N
  N15      1.0000 0.63901  0.05203  0.69900  Biso   1.000  N
  N16      1.0000 0.35530  0.84548  0.54588  Biso   1.000  N
  N17      1.0000 0.37009  0.86410  0.57953  Biso   1.000  N
  N18      1.0000 0.75544  0.56051  0.61119  Biso   1.000  N
  N19      1.0000 0.12552  0.65262  0.48576  Biso   1.000  N
  N20      1.0000 0.15813  0.61928  0.47729  Biso   1.000  N
  N21      1.0000 0.13540  0.63853  0.59323  Biso   1.000  N
  N22      1.0000 0.23024  0.59738  0.38636  Biso   1.000  N
  N23      1.0000 0.16988  0.56692  0.38368  Biso   1.000  N
  N24      1.0000 0.33801  0.69900  0.24897  Biso   1.000  N
  N25      1.0000 0.90118  0.54588  0.60864  Biso   1.000  N
  N26      1.0000 0.94962  0.57953  0.55637  Biso   1.000  N
  N27      1.0000 0.36663  0.61119  0.82830  Biso   1.000  N
  N28      1.0000 0.38872  0.51424  0.13838  Biso   1.000  N
  N29      1.0000 0.36458  0.52271  0.09657  Biso   1.000  N
  N30      1.0000 0.27137  0.40677  0.23176  Biso   1.000  N
  N31      1.0000 0.38340  0.61364  0.98374  Biso   1.000  N
  N32      1.0000 0.44644  0.61632  0.95060  Biso   1.000  N
  N33      1.0000 0.41302  0.75103  0.94797  Biso   1.000  N
  N34      1.0000 0.49018  0.39136  0.15452  Biso   1.000  N
  N35      1.0000 0.49401  0.44363  0.13590  Biso   1.000  N
  N36      1.0000 0.80507  0.17170  0.43949  Biso   1.000  N
  N37      1.0000 0.52710  0.13838  0.34738  Biso   1.000  N
  N38      1.0000 0.46115  0.09657  0.38072  Biso   1.000  N
  N39      1.0000 0.50313  0.23176  0.36147  Biso   1.000  N
  N40      1.0000 0.36714  0.98374  0.40262  Biso   1.000  N
  N41      1.0000 0.39704  0.95060  0.43308  Biso   1.000  N
  N42      1.0000 0.36099  0.94797  0.30100  Biso   1.000  N
  N43      1.0000 0.64470  0.15452  0.45412  Biso   1.000  N
  N44      1.0000 0.62991  0.13590  0.42047  Biso   1.000  N
  N45      1.0000 0.24456  0.43949  0.38881  Biso   1.000  N
  N46      1.0000 0.87448  0.34738  0.51424  Biso   1.000  N
  N47      1.0000 0.84187  0.38072  0.52271  Biso   1.000  N
  N48      1.0000 0.86460  0.36147  0.40677  Biso   1.000  N
  N49      1.0000 0.76976  0.40262  0.61364  Biso   1.000  N
  N50      1.0000 0.83012  0.43308  0.61632  Biso   1.000  N
  N51      1.0000 0.66199  0.30100  0.75103  Biso   1.000  N
  N52      1.0000 0.09882  0.45412  0.39136  Biso   1.000  N
  N53      1.0000 0.05038  0.42047  0.44363  Biso   1.000  N
  N54      1.0000 0.63337  0.38881  0.17170  Biso   1.000  N
  O1       1.0000 0.57473  0.53756  0.77947  Biso   1.000  O
  O2       1.0000 0.59450  0.40090  0.88800  Biso   1.000  O
  O3       1.0000 0.64528  0.56150  0.87436  Biso   1.000  O
  O4       1.0000 0.70400  0.39370  0.93120  Biso   1.000  O
  O5       1.0000 0.66270  0.38195  0.07845  Biso   1.000  O
  O6       1.0000 0.51256  0.38563  0.98505  Biso   1.000  O
  O7       1.0000 0.56510  0.30641  0.98731  Biso   1.000  O
  O8       1.0000 0.46641  0.68750  0.83947  Biso   1.000  O
  O9       1.0000 0.61768  0.62880  0.78686  Biso   1.000  O
  O10      1.0000 0.39579  0.54103  0.91776  Biso   1.000  O
  O11      1.0000 0.35420  0.77947  0.68297  Biso   1.000  O
  O12      1.0000 0.48250  0.88800  0.71110  Biso   1.000  O
  O13      1.0000 0.51964  0.87436  0.56414  Biso   1.000  O
  O14      1.0000 0.63520  0.93120  0.67510  Biso   1.000  O
  O15      1.0000 0.74115  0.07845  0.53960  Biso   1.000  O
  O16      1.0000 0.49761  0.98505  0.62932  Biso   1.000  O
  O17      1.0000 0.55241  0.98731  0.70628  Biso   1.000  O
  O18      1.0000 0.30588  0.83947  0.47303  Biso   1.000  O
  O19      1.0000 0.40454  0.78686  0.58434  Biso   1.000  O
  O20      1.0000 0.31355  0.91776  0.54121  Biso   1.000  O
  O21      1.0000 0.03717  0.68297  0.53756  Biso   1.000  O
  O22      1.0000 0.19360  0.71110  0.40090  Biso   1.000  O
  O23      1.0000 0.08378  0.56414  0.56150  Biso   1.000  O
  O24      1.0000 0.31030  0.67510  0.39370  Biso   1.000  O
  O25      1.0000 0.28075  0.53960  0.38195  Biso   1.000  O
  O26      1.0000 0.12693  0.62932  0.38563  Biso   1.000  O
  O27      1.0000 0.25869  0.70628  0.30641  Biso   1.000  O
  O28      1.0000 0.77891  0.47303  0.68750  Biso   1.000  O
  O29      1.0000 0.98888  0.58434  0.62880  Biso   1.000  O
  O30      1.0000 0.85476  0.54121  0.54103  Biso   1.000  O
  O31      1.0000 0.42527  0.46244  0.22053  Biso   1.000  O
  O32      1.0000 0.40550  0.59910  0.11200  Biso   1.000  O
  O33      1.0000 0.35472  0.43850  0.12564  Biso   1.000  O
  O34      1.0000 0.29600  0.60630  0.06880  Biso   1.000  O
  O35      1.0000 0.33730  0.61805  0.92155  Biso   1.000  O
  O36      1.0000 0.48744  0.61437  0.01495  Biso   1.000  O
  O37      1.0000 0.43490  0.69359  0.01269  Biso   1.000  O
  O38      1.0000 0.53359  0.31250  0.16053  Biso   1.000  O
  O39      1.0000 0.38232  0.37120  0.21314  Biso   1.000  O
  O40      1.0000 0.60421  0.45897  0.08224  Biso   1.000  O
  O41      1.0000 0.64580  0.22053  0.31703  Biso   1.000  O
  O42      1.0000 0.51750  0.11200  0.28890  Biso   1.000  O
  O43      1.0000 0.48036  0.12564  0.43586  Biso   1.000  O
  O44      1.0000 0.36480  0.06880  0.32490  Biso   1.000  O
  O45      1.0000 0.25885  0.92155  0.46040  Biso   1.000  O
  O46      1.0000 0.50239  0.01495  0.37068  Biso   1.000  O
  O47      1.0000 0.44759  0.01269  0.29372  Biso   1.000  O
  O48      1.0000 0.69412  0.16053  0.52697  Biso   1.000  O
  O49      1.0000 0.59546  0.21314  0.41566  Biso   1.000  O
  O50      1.0000 0.68645  0.08224  0.45879  Biso   1.000  O
  O51      1.0000 0.96283  0.31703  0.46244  Biso   1.000  O
  O52      1.0000 0.80640  0.28890  0.59910  Biso   1.000  O
  O53      1.0000 0.91622  0.43586  0.43850  Biso   1.000  O
  O54      1.0000 0.68970  0.32490  0.60630  Biso   1.000  O
  O55      1.0000 0.71925  0.46040  0.61805  Biso   1.000  O
  O56      1.0000 0.87307  0.37068  0.61437  Biso   1.000  O
  O57      1.0000 0.74131  0.29372  0.69359  Biso   1.000  O
  O58      1.0000 0.22109  0.52697  0.31250  Biso   1.000  O
  O59      1.0000 0.01112  0.41566  0.37120  Biso   1.000  O
  O60      1.0000 0.14524  0.45879  0.45897  Biso   1.000  O
