data_image0
_cell_length_a       30.4133
_cell_length_b       34.588
_cell_length_c       27.5921
_cell_angle_alpha    90
_cell_angle_beta     90
_cell_angle_gamma    90

_symmetry_space_group_name_H-M    "P 1"
_symmetry_int_tables_number       1

loop_
  _symmetry_equiv_pos_as_xyz
  'x, y, z'

loop_
  _atom_site_label
  _atom_site_occupancy
  _atom_site_fract_x
  _atom_site_fract_y
  _atom_site_fract_z
  _atom_site_thermal_displace_type
  _atom_site_B_iso_or_equiv
  _atom_site_type_symbol
  Cd1      1.0000 0.74706  0.39372  0.36871  Biso   1.000  Cd
  Cd2      1.0000 0.83911  0.49782  0.55317  Biso   1.000  Cd
  K1       1.0000 0.78907  0.44495  0.46299  Biso   1.000  K
  O1       1.0000 0.60288  0.29291  0.73880  Biso   1.000  O
  O2       1.0000 0.72600  0.43260  0.43440  Biso   1.000  O
  O3       1.0000 0.93920  0.19732  0.64270  Biso   1.000  O
  O4       1.0000 0.77910  0.50286  0.45780  Biso   1.000  O
  O5       1.0000 0.79400  0.35241  0.39890  Biso   1.000  O
  O6       1.0000 0.76530  0.44428  0.53260  Biso   1.000  O
  O7       1.0000 0.79110  0.46824  0.60190  Biso   1.000  O
  O8       1.0000 0.64100  0.30640  0.80380  Biso   1.000  O
  O9       1.0000 0.80010  0.38713  0.46770  Biso   1.000  O
  O10      1.0000 0.53450  0.61300  0.55450  Biso   1.000  O
  O11      1.0000 0.95830  0.17730  0.56890  Biso   1.000  O
  O12      1.0000 0.79030  0.53976  0.52360  Biso   1.000  O
  O13      1.0000 0.56320  0.59750  0.62520  Biso   1.000  O
  O14      1.0000 0.69400  0.44710  0.36500  Biso   1.000  O
  O15      1.0000 0.64900  0.70540  0.28940  Biso   1.000  O
  C1       1.0000 0.65200  0.34580  0.68310  Biso   1.000  C
  H1       1.0000 0.63260  0.32960  0.66680  Biso   1.000  H
  O16      1.0000 0.62240  0.71680  0.36160  Biso   1.000  O
  C2       1.0000 0.65590  0.34370  0.73340  Biso   1.000  C
  C3       1.0000 0.93720  0.20010  0.59840  Biso   1.000  C
  C4       1.0000 0.67770  0.37260  0.65760  Biso   1.000  C
  C5       1.0000 0.63220  0.31330  0.76130  Biso   1.000  C
  C6       1.0000 0.67760  0.37360  0.60590  Biso   1.000  C
  H2       1.0000 0.65940  0.35650  0.58940  Biso   1.000  H
  C7       1.0000 0.73410  0.42240  0.60600  Biso   1.000  C
  C8       1.0000 0.91240  0.23200  0.57620  Biso   1.000  C
  C9       1.0000 0.90780  0.23480  0.52630  Biso   1.000  C
  H3       1.0000 0.92090  0.21640  0.50640  Biso   1.000  H
  C10      1.0000 0.64640  0.51280  0.50780  Biso   1.000  C
  C11      1.0000 0.70200  0.39750  0.58050  Biso   1.000  C
  H4       1.0000 0.69910  0.39870  0.54700  Biso   1.000  H
  C12      1.0000 0.85390  0.29770  0.43490  Biso   1.000  C
  H5       1.0000 0.84910  0.29870  0.40170  Biso   1.000  H
  C13      1.0000 0.73330  0.42280  0.65390  Biso   1.000  C
  H6       1.0000 0.75110  0.44050  0.67010  Biso   1.000  H
  C14      1.0000 0.67280  0.48390  0.43500  Biso   1.000  C
  C15      1.0000 0.83520  0.32580  0.46460  Biso   1.000  C
  C16      1.0000 0.67300  0.48510  0.48320  Biso   1.000  C
  H7       1.0000 0.69040  0.46800  0.50080  Biso   1.000  H
  C17      1.0000 0.76610  0.44730  0.57740  Biso   1.000  C
  C18      1.0000 0.80780  0.35840  0.44240  Biso   1.000  C
  C19      1.0000 0.70660  0.39740  0.68190  Biso   1.000  C
  C20      1.0000 0.86320  0.29290  0.53550  Biso   1.000  C
  C21      1.0000 0.83830  0.32370  0.51220  Biso   1.000  C
  H8       1.0000 0.82440  0.34230  0.53120  Biso   1.000  H
  C22      1.0000 0.59390  0.56470  0.50630  Biso   1.000  C
  H9       1.0000 0.57600  0.58110  0.48830  Biso   1.000  H
  C23      1.0000 0.62140  0.53900  0.48150  Biso   1.000  C
  C24      1.0000 0.87900  0.26860  0.45360  Biso   1.000  C
  H10      1.0000 0.89300  0.25120  0.43300  Biso   1.000  H
  C25      1.0000 0.59230  0.56660  0.55510  Biso   1.000  C
  C26      1.0000 0.69930  0.45280  0.40950  Biso   1.000  C
  C27      1.0000 0.70840  0.39540  0.73310  Biso   1.000  C
  H11      1.0000 0.72620  0.41290  0.74960  Biso   1.000  H
  C28      1.0000 0.74900  0.56600  0.46090  Biso   1.000  C
  C29      1.0000 0.89090  0.26100  0.60670  Biso   1.000  C
  H12      1.0000 0.89320  0.25940  0.64020  Biso   1.000  H
  C30      1.0000 0.61940  0.54180  0.58240  Biso   1.000  C
  H13      1.0000 0.61880  0.54270  0.61610  Biso   1.000  H
  C31      1.0000 0.56180  0.59480  0.57920  Biso   1.000  C
  C32      1.0000 0.88370  0.26510  0.50530  Biso   1.000  C
  C33      1.0000 0.77450  0.53360  0.48130  Biso   1.000  C
  C34      1.0000 0.64840  0.50940  0.40780  Biso   1.000  C
  H14      1.0000 0.64930  0.50820  0.37410  Biso   1.000  H
  C35      1.0000 0.64670  0.51640  0.55900  Biso   1.000  C
  H15      1.0000 0.66580  0.50120  0.57710  Biso   1.000  H
  C36      1.0000 0.68560  0.36970  0.75890  Biso   1.000  C
  H16      1.0000 0.68870  0.36830  0.79240  Biso   1.000  H
  C37      1.0000 0.70320  0.62880  0.42580  Biso   1.000  C
  C38      1.0000 0.86830  0.28950  0.58670  Biso   1.000  C
  H17      1.0000 0.85520  0.30780  0.60660  Biso   1.000  H
  C39      1.0000 0.64710  0.69880  0.33090  Biso   1.000  C
  C40      1.0000 0.62340  0.53590  0.42990  Biso   1.000  C
  H18      1.0000 0.60680  0.55280  0.41110  Biso   1.000  H
  C41      1.0000 0.72670  0.59280  0.49210  Biso   1.000  C
  H19      1.0000 0.72630  0.58890  0.52540  Biso   1.000  H
  C42      1.0000 0.74420  0.56850  0.41190  Biso   1.000  C
  H20      1.0000 0.75610  0.55010  0.39120  Biso   1.000  H
  C43      1.0000 0.71990  0.60140  0.39380  Biso   1.000  C
  C44      1.0000 0.70530  0.62540  0.47170  Biso   1.000  C
  H21      1.0000 0.69280  0.64410  0.49160  Biso   1.000  H
  C45      1.0000 0.67630  0.66590  0.35640  Biso   1.000  C
  C46      1.0000 0.69270  0.63930  0.32440  Biso   1.000  C
  H22      1.0000 0.68810  0.64130  0.29110  Biso   1.000  H
  C47      1.0000 0.71830  0.60690  0.34570  Biso   1.000  C
  H23      1.0000 0.73350  0.59010  0.32540  Biso   1.000  H
  C48      1.0000 0.67760  0.66240  0.40320  Biso   1.000  C
  H24      1.0000 0.66310  0.68020  0.42290  Biso   1.000  H
  Cd3      1.0000 0.74706  0.89372  0.86871  Biso   1.000  Cd
  Cd4      1.0000 0.83911  0.99782  0.05317  Biso   1.000  Cd
  K2       1.0000 0.78907  0.94495  0.96299  Biso   1.000  K
  O17      1.0000 0.60288  0.79291  0.23880  Biso   1.000  O
  O18      1.0000 0.72600  0.93260  0.93440  Biso   1.000  O
  O19      1.0000 0.93920  0.69732  0.14270  Biso   1.000  O
  O20      1.0000 0.77910  0.00286  0.95780  Biso   1.000  O
  O21      1.0000 0.79400  0.85241  0.89890  Biso   1.000  O
  O22      1.0000 0.76530  0.94428  0.03260  Biso   1.000  O
  O23      1.0000 0.79110  0.96824  0.10190  Biso   1.000  O
  O24      1.0000 0.64100  0.80640  0.30380  Biso   1.000  O
  O25      1.0000 0.80010  0.88713  0.96770  Biso   1.000  O
  O26      1.0000 0.53450  0.11300  0.05450  Biso   1.000  O
  O27      1.0000 0.95830  0.67730  0.06890  Biso   1.000  O
  O28      1.0000 0.79030  0.03976  0.02360  Biso   1.000  O
  O29      1.0000 0.56320  0.09750  0.12520  Biso   1.000  O
  O30      1.0000 0.69400  0.94710  0.86500  Biso   1.000  O
  O31      1.0000 0.64900  0.20540  0.78940  Biso   1.000  O
  C49      1.0000 0.65200  0.84580  0.18310  Biso   1.000  C
  H25      1.0000 0.63260  0.82960  0.16680  Biso   1.000  H
  O32      1.0000 0.62240  0.21680  0.86160  Biso   1.000  O
  C50      1.0000 0.65590  0.84370  0.23340  Biso   1.000  C
  C51      1.0000 0.93720  0.70010  0.09840  Biso   1.000  C
  C52      1.0000 0.67770  0.87260  0.15760  Biso   1.000  C
  C53      1.0000 0.63220  0.81330  0.26130  Biso   1.000  C
  C54      1.0000 0.67760  0.87360  0.10590  Biso   1.000  C
  H26      1.0000 0.65940  0.85650  0.08940  Biso   1.000  H
  C55      1.0000 0.73410  0.92240  0.10600  Biso   1.000  C
  C56      1.0000 0.91240  0.73200  0.07620  Biso   1.000  C
  C57      1.0000 0.90780  0.73480  0.02630  Biso   1.000  C
  H27      1.0000 0.92090  0.71640  0.00640  Biso   1.000  H
  C58      1.0000 0.64640  0.01280  0.00780  Biso   1.000  C
  C59      1.0000 0.70200  0.89750  0.08050  Biso   1.000  C
  H28      1.0000 0.69910  0.89870  0.04700  Biso   1.000  H
  C60      1.0000 0.85390  0.79770  0.93490  Biso   1.000  C
  H29      1.0000 0.84910  0.79870  0.90170  Biso   1.000  H
  C61      1.0000 0.73330  0.92280  0.15390  Biso   1.000  C
  H30      1.0000 0.75110  0.94050  0.17010  Biso   1.000  H
  C62      1.0000 0.67280  0.98390  0.93500  Biso   1.000  C
  C63      1.0000 0.83520  0.82580  0.96460  Biso   1.000  C
  C64      1.0000 0.67300  0.98510  0.98320  Biso   1.000  C
  H31      1.0000 0.69040  0.96800  0.00080  Biso   1.000  H
  C65      1.0000 0.76610  0.94730  0.07740  Biso   1.000  C
  C66      1.0000 0.80780  0.85840  0.94240  Biso   1.000  C
  C67      1.0000 0.70660  0.89740  0.18190  Biso   1.000  C
  C68      1.0000 0.86320  0.79290  0.03550  Biso   1.000  C
  C69      1.0000 0.83830  0.82370  0.01220  Biso   1.000  C
  H32      1.0000 0.82440  0.84230  0.03120  Biso   1.000  H
  C70      1.0000 0.59390  0.06470  0.00630  Biso   1.000  C
  H33      1.0000 0.57600  0.08110  0.98830  Biso   1.000  H
  C71      1.0000 0.62140  0.03900  0.98150  Biso   1.000  C
  C72      1.0000 0.87900  0.76860  0.95360  Biso   1.000  C
  H34      1.0000 0.89300  0.75120  0.93300  Biso   1.000  H
  C73      1.0000 0.59230  0.06660  0.05510  Biso   1.000  C
  C74      1.0000 0.69930  0.95280  0.90950  Biso   1.000  C
  C75      1.0000 0.70840  0.89540  0.23310  Biso   1.000  C
  H35      1.0000 0.72620  0.91290  0.24960  Biso   1.000  H
  C76      1.0000 0.74900  0.06600  0.96090  Biso   1.000  C
  C77      1.0000 0.89090  0.76100  0.10670  Biso   1.000  C
  H36      1.0000 0.89320  0.75940  0.14020  Biso   1.000  H
  C78      1.0000 0.61940  0.04180  0.08240  Biso   1.000  C
  H37      1.0000 0.61880  0.04270  0.11610  Biso   1.000  H
  C79      1.0000 0.56180  0.09480  0.07920  Biso   1.000  C
  C80      1.0000 0.88370  0.76510  0.00530  Biso   1.000  C
  C81      1.0000 0.77450  0.03360  0.98130  Biso   1.000  C
  C82      1.0000 0.64840  0.00940  0.90780  Biso   1.000  C
  H38      1.0000 0.64930  0.00820  0.87410  Biso   1.000  H
  C83      1.0000 0.64670  0.01640  0.05900  Biso   1.000  C
  H39      1.0000 0.66580  0.00120  0.07710  Biso   1.000  H
  C84      1.0000 0.68560  0.86970  0.25890  Biso   1.000  C
  H40      1.0000 0.68870  0.86830  0.29240  Biso   1.000  H
  C85      1.0000 0.70320  0.12880  0.92580  Biso   1.000  C
  C86      1.0000 0.86830  0.78950  0.08670  Biso   1.000  C
  H41      1.0000 0.85520  0.80780  0.10660  Biso   1.000  H
  C87      1.0000 0.64710  0.19880  0.83090  Biso   1.000  C
  C88      1.0000 0.62340  0.03590  0.92990  Biso   1.000  C
  H42      1.0000 0.60680  0.05280  0.91110  Biso   1.000  H
  C89      1.0000 0.72670  0.09280  0.99210  Biso   1.000  C
  H43      1.0000 0.72630  0.08890  0.02540  Biso   1.000  H
  C90      1.0000 0.74420  0.06850  0.91190  Biso   1.000  C
  H44      1.0000 0.75610  0.05010  0.89120  Biso   1.000  H
  C91      1.0000 0.71990  0.10140  0.89380  Biso   1.000  C
  C92      1.0000 0.70530  0.12540  0.97170  Biso   1.000  C
  H45      1.0000 0.69280  0.14410  0.99160  Biso   1.000  H
  C93      1.0000 0.67630  0.16590  0.85640  Biso   1.000  C
  C94      1.0000 0.69270  0.13930  0.82440  Biso   1.000  C
  H46      1.0000 0.68810  0.14130  0.79110  Biso   1.000  H
  C95      1.0000 0.71830  0.10690  0.84570  Biso   1.000  C
  H47      1.0000 0.73350  0.09010  0.82540  Biso   1.000  H
  C96      1.0000 0.67760  0.16240  0.90320  Biso   1.000  C
  H48      1.0000 0.66310  0.18020  0.92290  Biso   1.000  H
  Cd5      1.0000 0.24706  0.39372  0.86871  Biso   1.000  Cd
  Cd6      1.0000 0.33911  0.49782  0.05317  Biso   1.000  Cd
  K3       1.0000 0.28907  0.44495  0.96299  Biso   1.000  K
  O33      1.0000 0.10288  0.29291  0.23880  Biso   1.000  O
  O34      1.0000 0.22600  0.43260  0.93440  Biso   1.000  O
  O35      1.0000 0.43920  0.19732  0.14270  Biso   1.000  O
  O36      1.0000 0.27910  0.50286  0.95780  Biso   1.000  O
  O37      1.0000 0.29400  0.35241  0.89890  Biso   1.000  O
  O38      1.0000 0.26530  0.44428  0.03260  Biso   1.000  O
  O39      1.0000 0.29110  0.46824  0.10190  Biso   1.000  O
  O40      1.0000 0.14100  0.30640  0.30380  Biso   1.000  O
  O41      1.0000 0.30010  0.38713  0.96770  Biso   1.000  O
  O42      1.0000 0.03450  0.61300  0.05450  Biso   1.000  O
  O43      1.0000 0.45830  0.17730  0.06890  Biso   1.000  O
  O44      1.0000 0.29030  0.53976  0.02360  Biso   1.000  O
  O45      1.0000 0.06320  0.59750  0.12520  Biso   1.000  O
  O46      1.0000 0.19400  0.44710  0.86500  Biso   1.000  O
  O47      1.0000 0.14900  0.70540  0.78940  Biso   1.000  O
  C97      1.0000 0.15200  0.34580  0.18310  Biso   1.000  C
  H49      1.0000 0.13260  0.32960  0.16680  Biso   1.000  H
  O48      1.0000 0.12240  0.71680  0.86160  Biso   1.000  O
  C98      1.0000 0.15590  0.34370  0.23340  Biso   1.000  C
  C99      1.0000 0.43720  0.20010  0.09840  Biso   1.000  C
  C100     1.0000 0.17770  0.37260  0.15760  Biso   1.000  C
  C101     1.0000 0.13220  0.31330  0.26130  Biso   1.000  C
  C102     1.0000 0.17760  0.37360  0.10590  Biso   1.000  C
  H50      1.0000 0.15940  0.35650  0.08940  Biso   1.000  H
  C103     1.0000 0.23410  0.42240  0.10600  Biso   1.000  C
  C104     1.0000 0.41240  0.23200  0.07620  Biso   1.000  C
  C105     1.0000 0.40780  0.23480  0.02630  Biso   1.000  C
  H51      1.0000 0.42090  0.21640  0.00640  Biso   1.000  H
  C106     1.0000 0.14640  0.51280  0.00780  Biso   1.000  C
  C107     1.0000 0.20200  0.39750  0.08050  Biso   1.000  C
  H52      1.0000 0.19910  0.39870  0.04700  Biso   1.000  H
  C108     1.0000 0.35390  0.29770  0.93490  Biso   1.000  C
  H53      1.0000 0.34910  0.29870  0.90170  Biso   1.000  H
  C109     1.0000 0.23330  0.42280  0.15390  Biso   1.000  C
  H54      1.0000 0.25110  0.44050  0.17010  Biso   1.000  H
  C110     1.0000 0.17280  0.48390  0.93500  Biso   1.000  C
  C111     1.0000 0.33520  0.32580  0.96460  Biso   1.000  C
  C112     1.0000 0.17300  0.48510  0.98320  Biso   1.000  C
  H55      1.0000 0.19040  0.46800  0.00080  Biso   1.000  H
  C113     1.0000 0.26610  0.44730  0.07740  Biso   1.000  C
  C114     1.0000 0.30780  0.35840  0.94240  Biso   1.000  C
  C115     1.0000 0.20660  0.39740  0.18190  Biso   1.000  C
  C116     1.0000 0.36320  0.29290  0.03550  Biso   1.000  C
  C117     1.0000 0.33830  0.32370  0.01220  Biso   1.000  C
  H56      1.0000 0.32440  0.34230  0.03120  Biso   1.000  H
  C118     1.0000 0.09390  0.56470  0.00630  Biso   1.000  C
  H57      1.0000 0.07600  0.58110  0.98830  Biso   1.000  H
  C119     1.0000 0.12140  0.53900  0.98150  Biso   1.000  C
  C120     1.0000 0.37900  0.26860  0.95360  Biso   1.000  C
  H58      1.0000 0.39300  0.25120  0.93300  Biso   1.000  H
  C121     1.0000 0.09230  0.56660  0.05510  Biso   1.000  C
  C122     1.0000 0.19930  0.45280  0.90950  Biso   1.000  C
  C123     1.0000 0.20840  0.39540  0.23310  Biso   1.000  C
  H59      1.0000 0.22620  0.41290  0.24960  Biso   1.000  H
  C124     1.0000 0.24900  0.56600  0.96090  Biso   1.000  C
  C125     1.0000 0.39090  0.26100  0.10670  Biso   1.000  C
  H60      1.0000 0.39320  0.25940  0.14020  Biso   1.000  H
  C126     1.0000 0.11940  0.54180  0.08240  Biso   1.000  C
  H61      1.0000 0.11880  0.54270  0.11610  Biso   1.000  H
  C127     1.0000 0.06180  0.59480  0.07920  Biso   1.000  C
  C128     1.0000 0.38370  0.26510  0.00530  Biso   1.000  C
  C129     1.0000 0.27450  0.53360  0.98130  Biso   1.000  C
  C130     1.0000 0.14840  0.50940  0.90780  Biso   1.000  C
  H62      1.0000 0.14930  0.50820  0.87410  Biso   1.000  H
  C131     1.0000 0.14670  0.51640  0.05900  Biso   1.000  C
  H63      1.0000 0.16580  0.50120  0.07710  Biso   1.000  H
  C132     1.0000 0.18560  0.36970  0.25890  Biso   1.000  C
  H64      1.0000 0.18870  0.36830  0.29240  Biso   1.000  H
  C133     1.0000 0.20320  0.62880  0.92580  Biso   1.000  C
  C134     1.0000 0.36830  0.28950  0.08670  Biso   1.000  C
  H65      1.0000 0.35520  0.30780  0.10660  Biso   1.000  H
  C135     1.0000 0.14710  0.69880  0.83090  Biso   1.000  C
  C136     1.0000 0.12340  0.53590  0.92990  Biso   1.000  C
  H66      1.0000 0.10680  0.55280  0.91110  Biso   1.000  H
  C137     1.0000 0.22670  0.59280  0.99210  Biso   1.000  C
  H67      1.0000 0.22630  0.58890  0.02540  Biso   1.000  H
  C138     1.0000 0.24420  0.56850  0.91190  Biso   1.000  C
  H68      1.0000 0.25610  0.55010  0.89120  Biso   1.000  H
  C139     1.0000 0.21990  0.60140  0.89380  Biso   1.000  C
  C140     1.0000 0.20530  0.62540  0.97170  Biso   1.000  C
  H69      1.0000 0.19280  0.64410  0.99160  Biso   1.000  H
  C141     1.0000 0.17630  0.66590  0.85640  Biso   1.000  C
  C142     1.0000 0.19270  0.63930  0.82440  Biso   1.000  C
  H70      1.0000 0.18810  0.64130  0.79110  Biso   1.000  H
  C143     1.0000 0.21830  0.60690  0.84570  Biso   1.000  C
  H71      1.0000 0.23350  0.59010  0.82540  Biso   1.000  H
  C144     1.0000 0.17760  0.66240  0.90320  Biso   1.000  C
  H72      1.0000 0.16310  0.68020  0.92290  Biso   1.000  H
  Cd7      1.0000 0.24706  0.89372  0.36871  Biso   1.000  Cd
  Cd8      1.0000 0.33911  0.99782  0.55317  Biso   1.000  Cd
  K4       1.0000 0.28907  0.94495  0.46299  Biso   1.000  K
  O49      1.0000 0.10288  0.79291  0.73880  Biso   1.000  O
  O50      1.0000 0.22600  0.93260  0.43440  Biso   1.000  O
  O51      1.0000 0.43920  0.69732  0.64270  Biso   1.000  O
  O52      1.0000 0.27910  0.00286  0.45780  Biso   1.000  O
  O53      1.0000 0.29400  0.85241  0.39890  Biso   1.000  O
  O54      1.0000 0.26530  0.94428  0.53260  Biso   1.000  O
  O55      1.0000 0.29110  0.96824  0.60190  Biso   1.000  O
  O56      1.0000 0.14100  0.80640  0.80380  Biso   1.000  O
  O57      1.0000 0.30010  0.88713  0.46770  Biso   1.000  O
  O58      1.0000 0.03450  0.11300  0.55450  Biso   1.000  O
  O59      1.0000 0.45830  0.67730  0.56890  Biso   1.000  O
  O60      1.0000 0.29030  0.03976  0.52360  Biso   1.000  O
  O61      1.0000 0.06320  0.09750  0.62520  Biso   1.000  O
  O62      1.0000 0.19400  0.94710  0.36500  Biso   1.000  O
  O63      1.0000 0.14900  0.20540  0.28940  Biso   1.000  O
  C145     1.0000 0.15200  0.84580  0.68310  Biso   1.000  C
  H73      1.0000 0.13260  0.82960  0.66680  Biso   1.000  H
  O64      1.0000 0.12240  0.21680  0.36160  Biso   1.000  O
  C146     1.0000 0.15590  0.84370  0.73340  Biso   1.000  C
  C147     1.0000 0.43720  0.70010  0.59840  Biso   1.000  C
  C148     1.0000 0.17770  0.87260  0.65760  Biso   1.000  C
  C149     1.0000 0.13220  0.81330  0.76130  Biso   1.000  C
  C150     1.0000 0.17760  0.87360  0.60590  Biso   1.000  C
  H74      1.0000 0.15940  0.85650  0.58940  Biso   1.000  H
  C151     1.0000 0.23410  0.92240  0.60600  Biso   1.000  C
  C152     1.0000 0.41240  0.73200  0.57620  Biso   1.000  C
  C153     1.0000 0.40780  0.73480  0.52630  Biso   1.000  C
  H75      1.0000 0.42090  0.71640  0.50640  Biso   1.000  H
  C154     1.0000 0.14640  0.01280  0.50780  Biso   1.000  C
  C155     1.0000 0.20200  0.89750  0.58050  Biso   1.000  C
  H76      1.0000 0.19910  0.89870  0.54700  Biso   1.000  H
  C156     1.0000 0.35390  0.79770  0.43490  Biso   1.000  C
  H77      1.0000 0.34910  0.79870  0.40170  Biso   1.000  H
  C157     1.0000 0.23330  0.92280  0.65390  Biso   1.000  C
  H78      1.0000 0.25110  0.94050  0.67010  Biso   1.000  H
  C158     1.0000 0.17280  0.98390  0.43500  Biso   1.000  C
  C159     1.0000 0.33520  0.82580  0.46460  Biso   1.000  C
  C160     1.0000 0.17300  0.98510  0.48320  Biso   1.000  C
  H79      1.0000 0.19040  0.96800  0.50080  Biso   1.000  H
  C161     1.0000 0.26610  0.94730  0.57740  Biso   1.000  C
  C162     1.0000 0.30780  0.85840  0.44240  Biso   1.000  C
  C163     1.0000 0.20660  0.89740  0.68190  Biso   1.000  C
  C164     1.0000 0.36320  0.79290  0.53550  Biso   1.000  C
  C165     1.0000 0.33830  0.82370  0.51220  Biso   1.000  C
  H80      1.0000 0.32440  0.84230  0.53120  Biso   1.000  H
  C166     1.0000 0.09390  0.06470  0.50630  Biso   1.000  C
  H81      1.0000 0.07600  0.08110  0.48830  Biso   1.000  H
  C167     1.0000 0.12140  0.03900  0.48150  Biso   1.000  C
  C168     1.0000 0.37900  0.76860  0.45360  Biso   1.000  C
  H82      1.0000 0.39300  0.75120  0.43300  Biso   1.000  H
  C169     1.0000 0.09230  0.06660  0.55510  Biso   1.000  C
  C170     1.0000 0.19930  0.95280  0.40950  Biso   1.000  C
  C171     1.0000 0.20840  0.89540  0.73310  Biso   1.000  C
  H83      1.0000 0.22620  0.91290  0.74960  Biso   1.000  H
  C172     1.0000 0.24900  0.06600  0.46090  Biso   1.000  C
  C173     1.0000 0.39090  0.76100  0.60670  Biso   1.000  C
  H84      1.0000 0.39320  0.75940  0.64020  Biso   1.000  H
  C174     1.0000 0.11940  0.04180  0.58240  Biso   1.000  C
  H85      1.0000 0.11880  0.04270  0.61610  Biso   1.000  H
  C175     1.0000 0.06180  0.09480  0.57920  Biso   1.000  C
  C176     1.0000 0.38370  0.76510  0.50530  Biso   1.000  C
  C177     1.0000 0.27450  0.03360  0.48130  Biso   1.000  C
  C178     1.0000 0.14840  0.00940  0.40780  Biso   1.000  C
  H86      1.0000 0.14930  0.00820  0.37410  Biso   1.000  H
  C179     1.0000 0.14670  0.01640  0.55900  Biso   1.000  C
  H87      1.0000 0.16580  0.00120  0.57710  Biso   1.000  H
  C180     1.0000 0.18560  0.86970  0.75890  Biso   1.000  C
  H88      1.0000 0.18870  0.86830  0.79240  Biso   1.000  H
  C181     1.0000 0.20320  0.12880  0.42580  Biso   1.000  C
  C182     1.0000 0.36830  0.78950  0.58670  Biso   1.000  C
  H89      1.0000 0.35520  0.80780  0.60660  Biso   1.000  H
  C183     1.0000 0.14710  0.19880  0.33090  Biso   1.000  C
  C184     1.0000 0.12340  0.03590  0.42990  Biso   1.000  C
  H90      1.0000 0.10680  0.05280  0.41110  Biso   1.000  H
  C185     1.0000 0.22670  0.09280  0.49210  Biso   1.000  C
  H91      1.0000 0.22630  0.08890  0.52540  Biso   1.000  H
  C186     1.0000 0.24420  0.06850  0.41190  Biso   1.000  C
  H92      1.0000 0.25610  0.05010  0.39120  Biso   1.000  H
  C187     1.0000 0.21990  0.10140  0.39380  Biso   1.000  C
  C188     1.0000 0.20530  0.12540  0.47170  Biso   1.000  C
  H93      1.0000 0.19280  0.14410  0.49160  Biso   1.000  H
  C189     1.0000 0.17630  0.16590  0.35640  Biso   1.000  C
  C190     1.0000 0.19270  0.13930  0.32440  Biso   1.000  C
  H94      1.0000 0.18810  0.14130  0.29110  Biso   1.000  H
  C191     1.0000 0.21830  0.10690  0.34570  Biso   1.000  C
  H95      1.0000 0.23350  0.09010  0.32540  Biso   1.000  H
  C192     1.0000 0.17760  0.16240  0.40320  Biso   1.000  C
  H96      1.0000 0.16310  0.18020  0.42290  Biso   1.000  H
  Cd9      1.0000 0.25294  0.60628  0.36871  Biso   1.000  Cd
  Cd10     1.0000 0.16089  0.50218  0.55317  Biso   1.000  Cd
  K5       1.0000 0.21093  0.55505  0.46299  Biso   1.000  K
  O65      1.0000 0.39712  0.70709  0.73880  Biso   1.000  O
  O66      1.0000 0.27400  0.56740  0.43440  Biso   1.000  O
  O67      1.0000 0.06080  0.80268  0.64270  Biso   1.000  O
  O68      1.0000 0.22090  0.49714  0.45780  Biso   1.000  O
  O69      1.0000 0.20600  0.64759  0.39890  Biso   1.000  O
  O70      1.0000 0.23470  0.55572  0.53260  Biso   1.000  O
  O71      1.0000 0.20890  0.53176  0.60190  Biso   1.000  O
  O72      1.0000 0.35900  0.69360  0.80380  Biso   1.000  O
  O73      1.0000 0.19990  0.61287  0.46770  Biso   1.000  O
  O74      1.0000 0.46550  0.38700  0.55450  Biso   1.000  O
  O75      1.0000 0.04170  0.82270  0.56890  Biso   1.000  O
  O76      1.0000 0.20970  0.46024  0.52360  Biso   1.000  O
  O77      1.0000 0.43680  0.40250  0.62520  Biso   1.000  O
  O78      1.0000 0.30600  0.55290  0.36500  Biso   1.000  O
  O79      1.0000 0.35100  0.29460  0.28940  Biso   1.000  O
  C193     1.0000 0.34800  0.65420  0.68310  Biso   1.000  C
  H97      1.0000 0.36740  0.67040  0.66680  Biso   1.000  H
  O80      1.0000 0.37760  0.28320  0.36160  Biso   1.000  O
  C194     1.0000 0.34410  0.65630  0.73340  Biso   1.000  C
  C195     1.0000 0.06280  0.79990  0.59840  Biso   1.000  C
  C196     1.0000 0.32230  0.62740  0.65760  Biso   1.000  C
  C197     1.0000 0.36780  0.68670  0.76130  Biso   1.000  C
  C198     1.0000 0.32240  0.62640  0.60590  Biso   1.000  C
  H98      1.0000 0.34060  0.64350  0.58940  Biso   1.000  H
  C199     1.0000 0.26590  0.57760  0.60600  Biso   1.000  C
  C200     1.0000 0.08760  0.76800  0.57620  Biso   1.000  C
  C201     1.0000 0.09220  0.76520  0.52630  Biso   1.000  C
  H99      1.0000 0.07910  0.78360  0.50640  Biso   1.000  H
  C202     1.0000 0.35360  0.48720  0.50780  Biso   1.000  C
  C203     1.0000 0.29800  0.60250  0.58050  Biso   1.000  C
  H100     1.0000 0.30090  0.60130  0.54700  Biso   1.000  H
  C204     1.0000 0.14610  0.70230  0.43490  Biso   1.000  C
  H101     1.0000 0.15090  0.70130  0.40170  Biso   1.000  H
  C205     1.0000 0.26670  0.57720  0.65390  Biso   1.000  C
  H102     1.0000 0.24890  0.55950  0.67010  Biso   1.000  H
  C206     1.0000 0.32720  0.51610  0.43500  Biso   1.000  C
  C207     1.0000 0.16480  0.67420  0.46460  Biso   1.000  C
  C208     1.0000 0.32700  0.51490  0.48320  Biso   1.000  C
  H103     1.0000 0.30960  0.53200  0.50080  Biso   1.000  H
  C209     1.0000 0.23390  0.55270  0.57740  Biso   1.000  C
  C210     1.0000 0.19220  0.64160  0.44240  Biso   1.000  C
  C211     1.0000 0.29340  0.60260  0.68190  Biso   1.000  C
  C212     1.0000 0.13680  0.70710  0.53550  Biso   1.000  C
  C213     1.0000 0.16170  0.67630  0.51220  Biso   1.000  C
  H104     1.0000 0.17560  0.65770  0.53120  Biso   1.000  H
  C214     1.0000 0.40610  0.43530  0.50630  Biso   1.000  C
  H105     1.0000 0.42400  0.41890  0.48830  Biso   1.000  H
  C215     1.0000 0.37860  0.46100  0.48150  Biso   1.000  C
  C216     1.0000 0.12100  0.73140  0.45360  Biso   1.000  C
  H106     1.0000 0.10700  0.74880  0.43300  Biso   1.000  H
  C217     1.0000 0.40770  0.43340  0.55510  Biso   1.000  C
  C218     1.0000 0.30070  0.54720  0.40950  Biso   1.000  C
  C219     1.0000 0.29160  0.60460  0.73310  Biso   1.000  C
  H107     1.0000 0.27380  0.58710  0.74960  Biso   1.000  H
  C220     1.0000 0.25100  0.43400  0.46090  Biso   1.000  C
  C221     1.0000 0.10910  0.73900  0.60670  Biso   1.000  C
  H108     1.0000 0.10680  0.74060  0.64020  Biso   1.000  H
  C222     1.0000 0.38060  0.45820  0.58240  Biso   1.000  C
  H109     1.0000 0.38120  0.45730  0.61610  Biso   1.000  H
  C223     1.0000 0.43820  0.40520  0.57920  Biso   1.000  C
  C224     1.0000 0.11630  0.73490  0.50530  Biso   1.000  C
  C225     1.0000 0.22550  0.46640  0.48130  Biso   1.000  C
  C226     1.0000 0.35160  0.49060  0.40780  Biso   1.000  C
  H110     1.0000 0.35070  0.49180  0.37410  Biso   1.000  H
  C227     1.0000 0.35330  0.48360  0.55900  Biso   1.000  C
  H111     1.0000 0.33420  0.49880  0.57710  Biso   1.000  H
  C228     1.0000 0.31440  0.63030  0.75890  Biso   1.000  C
  H112     1.0000 0.31130  0.63170  0.79240  Biso   1.000  H
  C229     1.0000 0.29680  0.37120  0.42580  Biso   1.000  C
  C230     1.0000 0.13170  0.71050  0.58670  Biso   1.000  C
  H113     1.0000 0.14480  0.69220  0.60660  Biso   1.000  H
  C231     1.0000 0.35290  0.30120  0.33090  Biso   1.000  C
  C232     1.0000 0.37660  0.46410  0.42990  Biso   1.000  C
  H114     1.0000 0.39320  0.44720  0.41110  Biso   1.000  H
  C233     1.0000 0.27330  0.40720  0.49210  Biso   1.000  C
  H115     1.0000 0.27370  0.41110  0.52540  Biso   1.000  H
  C234     1.0000 0.25580  0.43150  0.41190  Biso   1.000  C
  H116     1.0000 0.24390  0.44990  0.39120  Biso   1.000  H
  C235     1.0000 0.28010  0.39860  0.39380  Biso   1.000  C
  C236     1.0000 0.29470  0.37460  0.47170  Biso   1.000  C
  H117     1.0000 0.30720  0.35590  0.49160  Biso   1.000  H
  C237     1.0000 0.32370  0.33410  0.35640  Biso   1.000  C
  C238     1.0000 0.30730  0.36070  0.32440  Biso   1.000  C
  H118     1.0000 0.31190  0.35870  0.29110  Biso   1.000  H
  C239     1.0000 0.28170  0.39310  0.34570  Biso   1.000  C
  H119     1.0000 0.26650  0.40990  0.32540  Biso   1.000  H
  C240     1.0000 0.32240  0.33760  0.40320  Biso   1.000  C
  H120     1.0000 0.33690  0.31980  0.42290  Biso   1.000  H
  Cd11     1.0000 0.25294  0.10628  0.86871  Biso   1.000  Cd
  Cd12     1.0000 0.16089  0.00218  0.05317  Biso   1.000  Cd
  K6       1.0000 0.21093  0.05505  0.96299  Biso   1.000  K
  O81      1.0000 0.39712  0.20709  0.23880  Biso   1.000  O
  O82      1.0000 0.27400  0.06740  0.93440  Biso   1.000  O
  O83      1.0000 0.06080  0.30268  0.14270  Biso   1.000  O
  O84      1.0000 0.22090  0.99714  0.95780  Biso   1.000  O
  O85      1.0000 0.20600  0.14759  0.89890  Biso   1.000  O
  O86      1.0000 0.23470  0.05572  0.03260  Biso   1.000  O
  O87      1.0000 0.20890  0.03176  0.10190  Biso   1.000  O
  O88      1.0000 0.35900  0.19360  0.30380  Biso   1.000  O
  O89      1.0000 0.19990  0.11287  0.96770  Biso   1.000  O
  O90      1.0000 0.46550  0.88700  0.05450  Biso   1.000  O
  O91      1.0000 0.04170  0.32270  0.06890  Biso   1.000  O
  O92      1.0000 0.20970  0.96024  0.02360  Biso   1.000  O
  O93      1.0000 0.43680  0.90250  0.12520  Biso   1.000  O
  O94      1.0000 0.30600  0.05290  0.86500  Biso   1.000  O
  O95      1.0000 0.35100  0.79460  0.78940  Biso   1.000  O
  C241     1.0000 0.34800  0.15420  0.18310  Biso   1.000  C
  H121     1.0000 0.36740  0.17040  0.16680  Biso   1.000  H
  O96      1.0000 0.37760  0.78320  0.86160  Biso   1.000  O
  C242     1.0000 0.34410  0.15630  0.23340  Biso   1.000  C
  C243     1.0000 0.06280  0.29990  0.09840  Biso   1.000  C
  C244     1.0000 0.32230  0.12740  0.15760  Biso   1.000  C
  C245     1.0000 0.36780  0.18670  0.26130  Biso   1.000  C
  C246     1.0000 0.32240  0.12640  0.10590  Biso   1.000  C
  H122     1.0000 0.34060  0.14350  0.08940  Biso   1.000  H
  C247     1.0000 0.26590  0.07760  0.10600  Biso   1.000  C
  C248     1.0000 0.08760  0.26800  0.07620  Biso   1.000  C
  C249     1.0000 0.09220  0.26520  0.02630  Biso   1.000  C
  H123     1.0000 0.07910  0.28360  0.00640  Biso   1.000  H
  C250     1.0000 0.35360  0.98720  0.00780  Biso   1.000  C
  C251     1.0000 0.29800  0.10250  0.08050  Biso   1.000  C
  H124     1.0000 0.30090  0.10130  0.04700  Biso   1.000  H
  C252     1.0000 0.14610  0.20230  0.93490  Biso   1.000  C
  H125     1.0000 0.15090  0.20130  0.90170  Biso   1.000  H
  C253     1.0000 0.26670  0.07720  0.15390  Biso   1.000  C
  H126     1.0000 0.24890  0.05950  0.17010  Biso   1.000  H
  C254     1.0000 0.32720  0.01610  0.93500  Biso   1.000  C
  C255     1.0000 0.16480  0.17420  0.96460  Biso   1.000  C
  C256     1.0000 0.32700  0.01490  0.98320  Biso   1.000  C
  H127     1.0000 0.30960  0.03200  0.00080  Biso   1.000  H
  C257     1.0000 0.23390  0.05270  0.07740  Biso   1.000  C
  C258     1.0000 0.19220  0.14160  0.94240  Biso   1.000  C
  C259     1.0000 0.29340  0.10260  0.18190  Biso   1.000  C
  C260     1.0000 0.13680  0.20710  0.03550  Biso   1.000  C
  C261     1.0000 0.16170  0.17630  0.01220  Biso   1.000  C
  H128     1.0000 0.17560  0.15770  0.03120  Biso   1.000  H
  C262     1.0000 0.40610  0.93530  0.00630  Biso   1.000  C
  H129     1.0000 0.42400  0.91890  0.98830  Biso   1.000  H
  C263     1.0000 0.37860  0.96100  0.98150  Biso   1.000  C
  C264     1.0000 0.12100  0.23140  0.95360  Biso   1.000  C
  H130     1.0000 0.10700  0.24880  0.93300  Biso   1.000  H
  C265     1.0000 0.40770  0.93340  0.05510  Biso   1.000  C
  C266     1.0000 0.30070  0.04720  0.90950  Biso   1.000  C
  C267     1.0000 0.29160  0.10460  0.23310  Biso   1.000  C
  H131     1.0000 0.27380  0.08710  0.24960  Biso   1.000  H
  C268     1.0000 0.25100  0.93400  0.96090  Biso   1.000  C
  C269     1.0000 0.10910  0.23900  0.10670  Biso   1.000  C
  H132     1.0000 0.10680  0.24060  0.14020  Biso   1.000  H
  C270     1.0000 0.38060  0.95820  0.08240  Biso   1.000  C
  H133     1.0000 0.38120  0.95730  0.11610  Biso   1.000  H
  C271     1.0000 0.43820  0.90520  0.07920  Biso   1.000  C
  C272     1.0000 0.11630  0.23490  0.00530  Biso   1.000  C
  C273     1.0000 0.22550  0.96640  0.98130  Biso   1.000  C
  C274     1.0000 0.35160  0.99060  0.90780  Biso   1.000  C
  H134     1.0000 0.35070  0.99180  0.87410  Biso   1.000  H
  C275     1.0000 0.35330  0.98360  0.05900  Biso   1.000  C
  H135     1.0000 0.33420  0.99880  0.07710  Biso   1.000  H
  C276     1.0000 0.31440  0.13030  0.25890  Biso   1.000  C
  H136     1.0000 0.31130  0.13170  0.29240  Biso   1.000  H
  C277     1.0000 0.29680  0.87120  0.92580  Biso   1.000  C
  C278     1.0000 0.13170  0.21050  0.08670  Biso   1.000  C
  H137     1.0000 0.14480  0.19220  0.10660  Biso   1.000  H
  C279     1.0000 0.35290  0.80120  0.83090  Biso   1.000  C
  C280     1.0000 0.37660  0.96410  0.92990  Biso   1.000  C
  H138     1.0000 0.39320  0.94720  0.91110  Biso   1.000  H
  C281     1.0000 0.27330  0.90720  0.99210  Biso   1.000  C
  H139     1.0000 0.27370  0.91110  0.02540  Biso   1.000  H
  C282     1.0000 0.25580  0.93150  0.91190  Biso   1.000  C
  H140     1.0000 0.24390  0.94990  0.89120  Biso   1.000  H
  C283     1.0000 0.28010  0.89860  0.89380  Biso   1.000  C
  C284     1.0000 0.29470  0.87460  0.97170  Biso   1.000  C
  H141     1.0000 0.30720  0.85590  0.99160  Biso   1.000  H
  C285     1.0000 0.32370  0.83410  0.85640  Biso   1.000  C
  C286     1.0000 0.30730  0.86070  0.82440  Biso   1.000  C
  H142     1.0000 0.31190  0.85870  0.79110  Biso   1.000  H
  C287     1.0000 0.28170  0.89310  0.84570  Biso   1.000  C
  H143     1.0000 0.26650  0.90990  0.82540  Biso   1.000  H
  C288     1.0000 0.32240  0.83760  0.90320  Biso   1.000  C
  H144     1.0000 0.33690  0.81980  0.92290  Biso   1.000  H
  Cd13     1.0000 0.75294  0.60628  0.86871  Biso   1.000  Cd
  Cd14     1.0000 0.66089  0.50218  0.05317  Biso   1.000  Cd
  K7       1.0000 0.71093  0.55505  0.96299  Biso   1.000  K
  O97      1.0000 0.89712  0.70709  0.23880  Biso   1.000  O
  O98      1.0000 0.77400  0.56740  0.93440  Biso   1.000  O
  O99      1.0000 0.56080  0.80268  0.14270  Biso   1.000  O
  O100     1.0000 0.72090  0.49714  0.95780  Biso   1.000  O
  O101     1.0000 0.70600  0.64759  0.89890  Biso   1.000  O
  O102     1.0000 0.73470  0.55572  0.03260  Biso   1.000  O
  O103     1.0000 0.70890  0.53176  0.10190  Biso   1.000  O
  O104     1.0000 0.85900  0.69360  0.30380  Biso   1.000  O
  O105     1.0000 0.69990  0.61287  0.96770  Biso   1.000  O
  O106     1.0000 0.96550  0.38700  0.05450  Biso   1.000  O
  O107     1.0000 0.54170  0.82270  0.06890  Biso   1.000  O
  O108     1.0000 0.70970  0.46024  0.02360  Biso   1.000  O
  O109     1.0000 0.93680  0.40250  0.12520  Biso   1.000  O
  O110     1.0000 0.80600  0.55290  0.86500  Biso   1.000  O
  O111     1.0000 0.85100  0.29460  0.78940  Biso   1.000  O
  C289     1.0000 0.84800  0.65420  0.18310  Biso   1.000  C
  H145     1.0000 0.86740  0.67040  0.16680  Biso   1.000  H
  O112     1.0000 0.87760  0.28320  0.86160  Biso   1.000  O
  C290     1.0000 0.84410  0.65630  0.23340  Biso   1.000  C
  C291     1.0000 0.56280  0.79990  0.09840  Biso   1.000  C
  C292     1.0000 0.82230  0.62740  0.15760  Biso   1.000  C
  C293     1.0000 0.86780  0.68670  0.26130  Biso   1.000  C
  C294     1.0000 0.82240  0.62640  0.10590  Biso   1.000  C
  H146     1.0000 0.84060  0.64350  0.08940  Biso   1.000  H
  C295     1.0000 0.76590  0.57760  0.10600  Biso   1.000  C
  C296     1.0000 0.58760  0.76800  0.07620  Biso   1.000  C
  C297     1.0000 0.59220  0.76520  0.02630  Biso   1.000  C
  H147     1.0000 0.57910  0.78360  0.00640  Biso   1.000  H
  C298     1.0000 0.85360  0.48720  0.00780  Biso   1.000  C
  C299     1.0000 0.79800  0.60250  0.08050  Biso   1.000  C
  H148     1.0000 0.80090  0.60130  0.04700  Biso   1.000  H
  C300     1.0000 0.64610  0.70230  0.93490  Biso   1.000  C
  H149     1.0000 0.65090  0.70130  0.90170  Biso   1.000  H
  C301     1.0000 0.76670  0.57720  0.15390  Biso   1.000  C
  H150     1.0000 0.74890  0.55950  0.17010  Biso   1.000  H
  C302     1.0000 0.82720  0.51610  0.93500  Biso   1.000  C
  C303     1.0000 0.66480  0.67420  0.96460  Biso   1.000  C
  C304     1.0000 0.82700  0.51490  0.98320  Biso   1.000  C
  H151     1.0000 0.80960  0.53200  0.00080  Biso   1.000  H
  C305     1.0000 0.73390  0.55270  0.07740  Biso   1.000  C
  C306     1.0000 0.69220  0.64160  0.94240  Biso   1.000  C
  C307     1.0000 0.79340  0.60260  0.18190  Biso   1.000  C
  C308     1.0000 0.63680  0.70710  0.03550  Biso   1.000  C
  C309     1.0000 0.66170  0.67630  0.01220  Biso   1.000  C
  H152     1.0000 0.67560  0.65770  0.03120  Biso   1.000  H
  C310     1.0000 0.90610  0.43530  0.00630  Biso   1.000  C
  H153     1.0000 0.92400  0.41890  0.98830  Biso   1.000  H
  C311     1.0000 0.87860  0.46100  0.98150  Biso   1.000  C
  C312     1.0000 0.62100  0.73140  0.95360  Biso   1.000  C
  H154     1.0000 0.60700  0.74880  0.93300  Biso   1.000  H
  C313     1.0000 0.90770  0.43340  0.05510  Biso   1.000  C
  C314     1.0000 0.80070  0.54720  0.90950  Biso   1.000  C
  C315     1.0000 0.79160  0.60460  0.23310  Biso   1.000  C
  H155     1.0000 0.77380  0.58710  0.24960  Biso   1.000  H
  C316     1.0000 0.75100  0.43400  0.96090  Biso   1.000  C
  C317     1.0000 0.60910  0.73900  0.10670  Biso   1.000  C
  H156     1.0000 0.60680  0.74060  0.14020  Biso   1.000  H
  C318     1.0000 0.88060  0.45820  0.08240  Biso   1.000  C
  H157     1.0000 0.88120  0.45730  0.11610  Biso   1.000  H
  C319     1.0000 0.93820  0.40520  0.07920  Biso   1.000  C
  C320     1.0000 0.61630  0.73490  0.00530  Biso   1.000  C
  C321     1.0000 0.72550  0.46640  0.98130  Biso   1.000  C
  C322     1.0000 0.85160  0.49060  0.90780  Biso   1.000  C
  H158     1.0000 0.85070  0.49180  0.87410  Biso   1.000  H
  C323     1.0000 0.85330  0.48360  0.05900  Biso   1.000  C
  H159     1.0000 0.83420  0.49880  0.07710  Biso   1.000  H
  C324     1.0000 0.81440  0.63030  0.25890  Biso   1.000  C
  H160     1.0000 0.81130  0.63170  0.29240  Biso   1.000  H
  C325     1.0000 0.79680  0.37120  0.92580  Biso   1.000  C
  C326     1.0000 0.63170  0.71050  0.08670  Biso   1.000  C
  H161     1.0000 0.64480  0.69220  0.10660  Biso   1.000  H
  C327     1.0000 0.85290  0.30120  0.83090  Biso   1.000  C
  C328     1.0000 0.87660  0.46410  0.92990  Biso   1.000  C
  H162     1.0000 0.89320  0.44720  0.91110  Biso   1.000  H
  C329     1.0000 0.77330  0.40720  0.99210  Biso   1.000  C
  H163     1.0000 0.77370  0.41110  0.02540  Biso   1.000  H
  C330     1.0000 0.75580  0.43150  0.91190  Biso   1.000  C
  H164     1.0000 0.74390  0.44990  0.89120  Biso   1.000  H
  C331     1.0000 0.78010  0.39860  0.89380  Biso   1.000  C
  C332     1.0000 0.79470  0.37460  0.97170  Biso   1.000  C
  H165     1.0000 0.80720  0.35590  0.99160  Biso   1.000  H
  C333     1.0000 0.82370  0.33410  0.85640  Biso   1.000  C
  C334     1.0000 0.80730  0.36070  0.82440  Biso   1.000  C
  H166     1.0000 0.81190  0.35870  0.79110  Biso   1.000  H
  C335     1.0000 0.78170  0.39310  0.84570  Biso   1.000  C
  H167     1.0000 0.76650  0.40990  0.82540  Biso   1.000  H
  C336     1.0000 0.82240  0.33760  0.90320  Biso   1.000  C
  H168     1.0000 0.83690  0.31980  0.92290  Biso   1.000  H
  Cd15     1.0000 0.75294  0.10628  0.36871  Biso   1.000  Cd
  Cd16     1.0000 0.66089  0.00218  0.55317  Biso   1.000  Cd
  K8       1.0000 0.71093  0.05505  0.46299  Biso   1.000  K
  O113     1.0000 0.89712  0.20709  0.73880  Biso   1.000  O
  O114     1.0000 0.77400  0.06740  0.43440  Biso   1.000  O
  O115     1.0000 0.56080  0.30268  0.64270  Biso   1.000  O
  O116     1.0000 0.72090  0.99714  0.45780  Biso   1.000  O
  O117     1.0000 0.70600  0.14759  0.39890  Biso   1.000  O
  O118     1.0000 0.73470  0.05572  0.53260  Biso   1.000  O
  O119     1.0000 0.70890  0.03176  0.60190  Biso   1.000  O
  O120     1.0000 0.85900  0.19360  0.80380  Biso   1.000  O
  O121     1.0000 0.69990  0.11287  0.46770  Biso   1.000  O
  O122     1.0000 0.96550  0.88700  0.55450  Biso   1.000  O
  O123     1.0000 0.54170  0.32270  0.56890  Biso   1.000  O
  O124     1.0000 0.70970  0.96024  0.52360  Biso   1.000  O
  O125     1.0000 0.93680  0.90250  0.62520  Biso   1.000  O
  O126     1.0000 0.80600  0.05290  0.36500  Biso   1.000  O
  O127     1.0000 0.85100  0.79460  0.28940  Biso   1.000  O
  C337     1.0000 0.84800  0.15420  0.68310  Biso   1.000  C
  H169     1.0000 0.86740  0.17040  0.66680  Biso   1.000  H
  O128     1.0000 0.87760  0.78320  0.36160  Biso   1.000  O
  C338     1.0000 0.84410  0.15630  0.73340  Biso   1.000  C
  C339     1.0000 0.56280  0.29990  0.59840  Biso   1.000  C
  C340     1.0000 0.82230  0.12740  0.65760  Biso   1.000  C
  C341     1.0000 0.86780  0.18670  0.76130  Biso   1.000  C
  C342     1.0000 0.82240  0.12640  0.60590  Biso   1.000  C
  H170     1.0000 0.84060  0.14350  0.58940  Biso   1.000  H
  C343     1.0000 0.76590  0.07760  0.60600  Biso   1.000  C
  C344     1.0000 0.58760  0.26800  0.57620  Biso   1.000  C
  C345     1.0000 0.59220  0.26520  0.52630  Biso   1.000  C
  H171     1.0000 0.57910  0.28360  0.50640  Biso   1.000  H
  C346     1.0000 0.85360  0.98720  0.50780  Biso   1.000  C
  C347     1.0000 0.79800  0.10250  0.58050  Biso   1.000  C
  H172     1.0000 0.80090  0.10130  0.54700  Biso   1.000  H
  C348     1.0000 0.64610  0.20230  0.43490  Biso   1.000  C
  H173     1.0000 0.65090  0.20130  0.40170  Biso   1.000  H
  C349     1.0000 0.76670  0.07720  0.65390  Biso   1.000  C
  H174     1.0000 0.74890  0.05950  0.67010  Biso   1.000  H
  C350     1.0000 0.82720  0.01610  0.43500  Biso   1.000  C
  C351     1.0000 0.66480  0.17420  0.46460  Biso   1.000  C
  C352     1.0000 0.82700  0.01490  0.48320  Biso   1.000  C
  H175     1.0000 0.80960  0.03200  0.50080  Biso   1.000  H
  C353     1.0000 0.73390  0.05270  0.57740  Biso   1.000  C
  C354     1.0000 0.69220  0.14160  0.44240  Biso   1.000  C
  C355     1.0000 0.79340  0.10260  0.68190  Biso   1.000  C
  C356     1.0000 0.63680  0.20710  0.53550  Biso   1.000  C
  C357     1.0000 0.66170  0.17630  0.51220  Biso   1.000  C
  H176     1.0000 0.67560  0.15770  0.53120  Biso   1.000  H
  C358     1.0000 0.90610  0.93530  0.50630  Biso   1.000  C
  H177     1.0000 0.92400  0.91890  0.48830  Biso   1.000  H
  C359     1.0000 0.87860  0.96100  0.48150  Biso   1.000  C
  C360     1.0000 0.62100  0.23140  0.45360  Biso   1.000  C
  H178     1.0000 0.60700  0.24880  0.43300  Biso   1.000  H
  C361     1.0000 0.90770  0.93340  0.55510  Biso   1.000  C
  C362     1.0000 0.80070  0.04720  0.40950  Biso   1.000  C
  C363     1.0000 0.79160  0.10460  0.73310  Biso   1.000  C
  H179     1.0000 0.77380  0.08710  0.74960  Biso   1.000  H
  C364     1.0000 0.75100  0.93400  0.46090  Biso   1.000  C
  C365     1.0000 0.60910  0.23900  0.60670  Biso   1.000  C
  H180     1.0000 0.60680  0.24060  0.64020  Biso   1.000  H
  C366     1.0000 0.88060  0.95820  0.58240  Biso   1.000  C
  H181     1.0000 0.88120  0.95730  0.61610  Biso   1.000  H
  C367     1.0000 0.93820  0.90520  0.57920  Biso   1.000  C
  C368     1.0000 0.61630  0.23490  0.50530  Biso   1.000  C
  C369     1.0000 0.72550  0.96640  0.48130  Biso   1.000  C
  C370     1.0000 0.85160  0.99060  0.40780  Biso   1.000  C
  H182     1.0000 0.85070  0.99180  0.37410  Biso   1.000  H
  C371     1.0000 0.85330  0.98360  0.55900  Biso   1.000  C
  H183     1.0000 0.83420  0.99880  0.57710  Biso   1.000  H
  C372     1.0000 0.81440  0.13030  0.75890  Biso   1.000  C
  H184     1.0000 0.81130  0.13170  0.79240  Biso   1.000  H
  C373     1.0000 0.79680  0.87120  0.42580  Biso   1.000  C
  C374     1.0000 0.63170  0.21050  0.58670  Biso   1.000  C
  H185     1.0000 0.64480  0.19220  0.60660  Biso   1.000  H
  C375     1.0000 0.85290  0.80120  0.33090  Biso   1.000  C
  C376     1.0000 0.87660  0.96410  0.42990  Biso   1.000  C
  H186     1.0000 0.89320  0.94720  0.41110  Biso   1.000  H
  C377     1.0000 0.77330  0.90720  0.49210  Biso   1.000  C
  H187     1.0000 0.77370  0.91110  0.52540  Biso   1.000  H
  C378     1.0000 0.75580  0.93150  0.41190  Biso   1.000  C
  H188     1.0000 0.74390  0.94990  0.39120  Biso   1.000  H
  C379     1.0000 0.78010  0.89860  0.39380  Biso   1.000  C
  C380     1.0000 0.79470  0.87460  0.47170  Biso   1.000  C
  H189     1.0000 0.80720  0.85590  0.49160  Biso   1.000  H
  C381     1.0000 0.82370  0.83410  0.35640  Biso   1.000  C
  C382     1.0000 0.80730  0.86070  0.32440  Biso   1.000  C
  H190     1.0000 0.81190  0.85870  0.29110  Biso   1.000  H
  C383     1.0000 0.78170  0.89310  0.34570  Biso   1.000  C
  H191     1.0000 0.76650  0.90990  0.32540  Biso   1.000  H
  C384     1.0000 0.82240  0.83760  0.40320  Biso   1.000  C
  H192     1.0000 0.83690  0.81980  0.42290  Biso   1.000  H
  Cd17     1.0000 0.99706  0.85628  0.61871  Biso   1.000  Cd
  Cd18     1.0000 0.08911  0.75218  0.80317  Biso   1.000  Cd
  K9       1.0000 0.03907  0.80505  0.71299  Biso   1.000  K
  O129     1.0000 0.85288  0.95709  0.98880  Biso   1.000  O
  O130     1.0000 0.97600  0.81740  0.68440  Biso   1.000  O
  O131     1.0000 0.18920  0.05268  0.89270  Biso   1.000  O
  O132     1.0000 0.02910  0.74714  0.70780  Biso   1.000  O
  O133     1.0000 0.04400  0.89759  0.64890  Biso   1.000  O
  O134     1.0000 0.01530  0.80572  0.78260  Biso   1.000  O
  O135     1.0000 0.04110  0.78176  0.85190  Biso   1.000  O
  O136     1.0000 0.89100  0.94360  0.05380  Biso   1.000  O
  O137     1.0000 0.05010  0.86287  0.71770  Biso   1.000  O
  O138     1.0000 0.78450  0.63700  0.80450  Biso   1.000  O
  O139     1.0000 0.20830  0.07270  0.81890  Biso   1.000  O
  O140     1.0000 0.04030  0.71024  0.77360  Biso   1.000  O
  O141     1.0000 0.81320  0.65250  0.87520  Biso   1.000  O
  O142     1.0000 0.94400  0.80290  0.61500  Biso   1.000  O
  O143     1.0000 0.89900  0.54460  0.53940  Biso   1.000  O
  C385     1.0000 0.90200  0.90420  0.93310  Biso   1.000  C
  H193     1.0000 0.88260  0.92040  0.91680  Biso   1.000  H
  O144     1.0000 0.87240  0.53320  0.61160  Biso   1.000  O
  C386     1.0000 0.90590  0.90630  0.98340  Biso   1.000  C
  C387     1.0000 0.18720  0.04990  0.84840  Biso   1.000  C
  C388     1.0000 0.92770  0.87740  0.90760  Biso   1.000  C
  C389     1.0000 0.88220  0.93670  0.01130  Biso   1.000  C
  C390     1.0000 0.92760  0.87640  0.85590  Biso   1.000  C
  H194     1.0000 0.90940  0.89350  0.83940  Biso   1.000  H
  C391     1.0000 0.98410  0.82760  0.85600  Biso   1.000  C
  C392     1.0000 0.16240  0.01800  0.82620  Biso   1.000  C
  C393     1.0000 0.15780  0.01520  0.77630  Biso   1.000  C
  H195     1.0000 0.17090  0.03360  0.75640  Biso   1.000  H
  C394     1.0000 0.89640  0.73720  0.75780  Biso   1.000  C
  C395     1.0000 0.95200  0.85250  0.83050  Biso   1.000  C
  H196     1.0000 0.94910  0.85130  0.79700  Biso   1.000  H
  C396     1.0000 0.10390  0.95230  0.68490  Biso   1.000  C
  H197     1.0000 0.09910  0.95130  0.65170  Biso   1.000  H
  C397     1.0000 0.98330  0.82720  0.90390  Biso   1.000  C
  H198     1.0000 0.00110  0.80950  0.92010  Biso   1.000  H
  C398     1.0000 0.92280  0.76610  0.68500  Biso   1.000  C
  C399     1.0000 0.08520  0.92420  0.71460  Biso   1.000  C
  C400     1.0000 0.92300  0.76490  0.73320  Biso   1.000  C
  H199     1.0000 0.94040  0.78200  0.75080  Biso   1.000  H
  C401     1.0000 0.01610  0.80270  0.82740  Biso   1.000  C
  C402     1.0000 0.05780  0.89160  0.69240  Biso   1.000  C
  C403     1.0000 0.95660  0.85260  0.93190  Biso   1.000  C
  C404     1.0000 0.11320  0.95710  0.78550  Biso   1.000  C
  C405     1.0000 0.08830  0.92630  0.76220  Biso   1.000  C
  H200     1.0000 0.07440  0.90770  0.78120  Biso   1.000  H
  C406     1.0000 0.84390  0.68530  0.75630  Biso   1.000  C
  H201     1.0000 0.82600  0.66890  0.73830  Biso   1.000  H
  C407     1.0000 0.87140  0.71100  0.73150  Biso   1.000  C
  C408     1.0000 0.12900  0.98140  0.70360  Biso   1.000  C
  H202     1.0000 0.14300  0.99880  0.68300  Biso   1.000  H
  C409     1.0000 0.84230  0.68340  0.80510  Biso   1.000  C
  C410     1.0000 0.94930  0.79720  0.65950  Biso   1.000  C
  C411     1.0000 0.95840  0.85460  0.98310  Biso   1.000  C
  H203     1.0000 0.97620  0.83710  0.99960  Biso   1.000  H
  C412     1.0000 0.99900  0.68400  0.71090  Biso   1.000  C
  C413     1.0000 0.14090  0.98900  0.85670  Biso   1.000  C
  H204     1.0000 0.14320  0.99060  0.89020  Biso   1.000  H
  C414     1.0000 0.86940  0.70820  0.83240  Biso   1.000  C
  H205     1.0000 0.86880  0.70730  0.86610  Biso   1.000  H
  C415     1.0000 0.81180  0.65520  0.82920  Biso   1.000  C
  C416     1.0000 0.13370  0.98490  0.75530  Biso   1.000  C
  C417     1.0000 0.02450  0.71640  0.73130  Biso   1.000  C
  C418     1.0000 0.89840  0.74060  0.65780  Biso   1.000  C
  H206     1.0000 0.89930  0.74180  0.62410  Biso   1.000  H
  C419     1.0000 0.89670  0.73360  0.80900  Biso   1.000  C
  H207     1.0000 0.91580  0.74880  0.82710  Biso   1.000  H
  C420     1.0000 0.93560  0.88030  0.00890  Biso   1.000  C
  H208     1.0000 0.93870  0.88170  0.04240  Biso   1.000  H
  C421     1.0000 0.95320  0.62120  0.67580  Biso   1.000  C
  C422     1.0000 0.11830  0.96050  0.83670  Biso   1.000  C
  H209     1.0000 0.10520  0.94220  0.85660  Biso   1.000  H
  C423     1.0000 0.89710  0.55120  0.58090  Biso   1.000  C
  C424     1.0000 0.87340  0.71410  0.67990  Biso   1.000  C
  H210     1.0000 0.85680  0.69720  0.66110  Biso   1.000  H
  C425     1.0000 0.97670  0.65720  0.74210  Biso   1.000  C
  H211     1.0000 0.97630  0.66110  0.77540  Biso   1.000  H
  C426     1.0000 0.99420  0.68150  0.66190  Biso   1.000  C
  H212     1.0000 0.00610  0.69990  0.64120  Biso   1.000  H
  C427     1.0000 0.96990  0.64860  0.64380  Biso   1.000  C
  C428     1.0000 0.95530  0.62460  0.72170  Biso   1.000  C
  H213     1.0000 0.94280  0.60590  0.74160  Biso   1.000  H
  C429     1.0000 0.92630  0.58410  0.60640  Biso   1.000  C
  C430     1.0000 0.94270  0.61070  0.57440  Biso   1.000  C
  H214     1.0000 0.93810  0.60870  0.54110  Biso   1.000  H
  C431     1.0000 0.96830  0.64310  0.59570  Biso   1.000  C
  H215     1.0000 0.98350  0.65990  0.57540  Biso   1.000  H
  C432     1.0000 0.92760  0.58760  0.65320  Biso   1.000  C
  H216     1.0000 0.91310  0.56980  0.67290  Biso   1.000  H
  Cd19     1.0000 0.99706  0.35628  0.11871  Biso   1.000  Cd
  Cd20     1.0000 0.08911  0.25218  0.30317  Biso   1.000  Cd
  K10      1.0000 0.03907  0.30505  0.21299  Biso   1.000  K
  O145     1.0000 0.85288  0.45709  0.48880  Biso   1.000  O
  O146     1.0000 0.97600  0.31740  0.18440  Biso   1.000  O
  O147     1.0000 0.18920  0.55268  0.39270  Biso   1.000  O
  O148     1.0000 0.02910  0.24714  0.20780  Biso   1.000  O
  O149     1.0000 0.04400  0.39759  0.14890  Biso   1.000  O
  O150     1.0000 0.01530  0.30572  0.28260  Biso   1.000  O
  O151     1.0000 0.04110  0.28176  0.35190  Biso   1.000  O
  O152     1.0000 0.89100  0.44360  0.55380  Biso   1.000  O
  O153     1.0000 0.05010  0.36287  0.21770  Biso   1.000  O
  O154     1.0000 0.78450  0.13700  0.30450  Biso   1.000  O
  O155     1.0000 0.20830  0.57270  0.31890  Biso   1.000  O
  O156     1.0000 0.04030  0.21024  0.27360  Biso   1.000  O
  O157     1.0000 0.81320  0.15250  0.37520  Biso   1.000  O
  O158     1.0000 0.94400  0.30290  0.11500  Biso   1.000  O
  O159     1.0000 0.89900  0.04460  0.03940  Biso   1.000  O
  C433     1.0000 0.90200  0.40420  0.43310  Biso   1.000  C
  H217     1.0000 0.88260  0.42040  0.41680  Biso   1.000  H
  O160     1.0000 0.87240  0.03320  0.11160  Biso   1.000  O
  C434     1.0000 0.90590  0.40630  0.48340  Biso   1.000  C
  C435     1.0000 0.18720  0.54990  0.34840  Biso   1.000  C
  C436     1.0000 0.92770  0.37740  0.40760  Biso   1.000  C
  C437     1.0000 0.88220  0.43670  0.51130  Biso   1.000  C
  C438     1.0000 0.92760  0.37640  0.35590  Biso   1.000  C
  H218     1.0000 0.90940  0.39350  0.33940  Biso   1.000  H
  C439     1.0000 0.98410  0.32760  0.35600  Biso   1.000  C
  C440     1.0000 0.16240  0.51800  0.32620  Biso   1.000  C
  C441     1.0000 0.15780  0.51520  0.27630  Biso   1.000  C
  H219     1.0000 0.17090  0.53360  0.25640  Biso   1.000  H
  C442     1.0000 0.89640  0.23720  0.25780  Biso   1.000  C
  C443     1.0000 0.95200  0.35250  0.33050  Biso   1.000  C
  H220     1.0000 0.94910  0.35130  0.29700  Biso   1.000  H
  C444     1.0000 0.10390  0.45230  0.18490  Biso   1.000  C
  H221     1.0000 0.09910  0.45130  0.15170  Biso   1.000  H
  C445     1.0000 0.98330  0.32720  0.40390  Biso   1.000  C
  H222     1.0000 0.00110  0.30950  0.42010  Biso   1.000  H
  C446     1.0000 0.92280  0.26610  0.18500  Biso   1.000  C
  C447     1.0000 0.08520  0.42420  0.21460  Biso   1.000  C
  C448     1.0000 0.92300  0.26490  0.23320  Biso   1.000  C
  H223     1.0000 0.94040  0.28200  0.25080  Biso   1.000  H
  C449     1.0000 0.01610  0.30270  0.32740  Biso   1.000  C
  C450     1.0000 0.05780  0.39160  0.19240  Biso   1.000  C
  C451     1.0000 0.95660  0.35260  0.43190  Biso   1.000  C
  C452     1.0000 0.11320  0.45710  0.28550  Biso   1.000  C
  C453     1.0000 0.08830  0.42630  0.26220  Biso   1.000  C
  H224     1.0000 0.07440  0.40770  0.28120  Biso   1.000  H
  C454     1.0000 0.84390  0.18530  0.25630  Biso   1.000  C
  H225     1.0000 0.82600  0.16890  0.23830  Biso   1.000  H
  C455     1.0000 0.87140  0.21100  0.23150  Biso   1.000  C
  C456     1.0000 0.12900  0.48140  0.20360  Biso   1.000  C
  H226     1.0000 0.14300  0.49880  0.18300  Biso   1.000  H
  C457     1.0000 0.84230  0.18340  0.30510  Biso   1.000  C
  C458     1.0000 0.94930  0.29720  0.15950  Biso   1.000  C
  C459     1.0000 0.95840  0.35460  0.48310  Biso   1.000  C
  H227     1.0000 0.97620  0.33710  0.49960  Biso   1.000  H
  C460     1.0000 0.99900  0.18400  0.21090  Biso   1.000  C
  C461     1.0000 0.14090  0.48900  0.35670  Biso   1.000  C
  H228     1.0000 0.14320  0.49060  0.39020  Biso   1.000  H
  C462     1.0000 0.86940  0.20820  0.33240  Biso   1.000  C
  H229     1.0000 0.86880  0.20730  0.36610  Biso   1.000  H
  C463     1.0000 0.81180  0.15520  0.32920  Biso   1.000  C
  C464     1.0000 0.13370  0.48490  0.25530  Biso   1.000  C
  C465     1.0000 0.02450  0.21640  0.23130  Biso   1.000  C
  C466     1.0000 0.89840  0.24060  0.15780  Biso   1.000  C
  H230     1.0000 0.89930  0.24180  0.12410  Biso   1.000  H
  C467     1.0000 0.89670  0.23360  0.30900  Biso   1.000  C
  H231     1.0000 0.91580  0.24880  0.32710  Biso   1.000  H
  C468     1.0000 0.93560  0.38030  0.50890  Biso   1.000  C
  H232     1.0000 0.93870  0.38170  0.54240  Biso   1.000  H
  C469     1.0000 0.95320  0.12120  0.17580  Biso   1.000  C
  C470     1.0000 0.11830  0.46050  0.33670  Biso   1.000  C
  H233     1.0000 0.10520  0.44220  0.35660  Biso   1.000  H
  C471     1.0000 0.89710  0.05120  0.08090  Biso   1.000  C
  C472     1.0000 0.87340  0.21410  0.17990  Biso   1.000  C
  H234     1.0000 0.85680  0.19720  0.16110  Biso   1.000  H
  C473     1.0000 0.97670  0.15720  0.24210  Biso   1.000  C
  H235     1.0000 0.97630  0.16110  0.27540  Biso   1.000  H
  C474     1.0000 0.99420  0.18150  0.16190  Biso   1.000  C
  H236     1.0000 0.00610  0.19990  0.14120  Biso   1.000  H
  C475     1.0000 0.96990  0.14860  0.14380  Biso   1.000  C
  C476     1.0000 0.95530  0.12460  0.22170  Biso   1.000  C
  H237     1.0000 0.94280  0.10590  0.24160  Biso   1.000  H
  C477     1.0000 0.92630  0.08410  0.10640  Biso   1.000  C
  C478     1.0000 0.94270  0.11070  0.07440  Biso   1.000  C
  H238     1.0000 0.93810  0.10870  0.04110  Biso   1.000  H
  C479     1.0000 0.96830  0.14310  0.09570  Biso   1.000  C
  H239     1.0000 0.98350  0.15990  0.07540  Biso   1.000  H
  C480     1.0000 0.92760  0.08760  0.15320  Biso   1.000  C
  H240     1.0000 0.91310  0.06980  0.17290  Biso   1.000  H
  Cd21     1.0000 0.49706  0.85628  0.11871  Biso   1.000  Cd
  Cd22     1.0000 0.58911  0.75218  0.30317  Biso   1.000  Cd
  K11      1.0000 0.53907  0.80505  0.21299  Biso   1.000  K
  O161     1.0000 0.35288  0.95709  0.48880  Biso   1.000  O
  O162     1.0000 0.47600  0.81740  0.18440  Biso   1.000  O
  O163     1.0000 0.68920  0.05268  0.39270  Biso   1.000  O
  O164     1.0000 0.52910  0.74714  0.20780  Biso   1.000  O
  O165     1.0000 0.54400  0.89759  0.14890  Biso   1.000  O
  O166     1.0000 0.51530  0.80572  0.28260  Biso   1.000  O
  O167     1.0000 0.54110  0.78176  0.35190  Biso   1.000  O
  O168     1.0000 0.39100  0.94360  0.55380  Biso   1.000  O
  O169     1.0000 0.55010  0.86287  0.21770  Biso   1.000  O
  O170     1.0000 0.28450  0.63700  0.30450  Biso   1.000  O
  O171     1.0000 0.70830  0.07270  0.31890  Biso   1.000  O
  O172     1.0000 0.54030  0.71024  0.27360  Biso   1.000  O
  O173     1.0000 0.31320  0.65250  0.37520  Biso   1.000  O
  O174     1.0000 0.44400  0.80290  0.11500  Biso   1.000  O
  O175     1.0000 0.39900  0.54460  0.03940  Biso   1.000  O
  C481     1.0000 0.40200  0.90420  0.43310  Biso   1.000  C
  H241     1.0000 0.38260  0.92040  0.41680  Biso   1.000  H
  O176     1.0000 0.37240  0.53320  0.11160  Biso   1.000  O
  C482     1.0000 0.40590  0.90630  0.48340  Biso   1.000  C
  C483     1.0000 0.68720  0.04990  0.34840  Biso   1.000  C
  C484     1.0000 0.42770  0.87740  0.40760  Biso   1.000  C
  C485     1.0000 0.38220  0.93670  0.51130  Biso   1.000  C
  C486     1.0000 0.42760  0.87640  0.35590  Biso   1.000  C
  H242     1.0000 0.40940  0.89350  0.33940  Biso   1.000  H
  C487     1.0000 0.48410  0.82760  0.35600  Biso   1.000  C
  C488     1.0000 0.66240  0.01800  0.32620  Biso   1.000  C
  C489     1.0000 0.65780  0.01520  0.27630  Biso   1.000  C
  H243     1.0000 0.67090  0.03360  0.25640  Biso   1.000  H
  C490     1.0000 0.39640  0.73720  0.25780  Biso   1.000  C
  C491     1.0000 0.45200  0.85250  0.33050  Biso   1.000  C
  H244     1.0000 0.44910  0.85130  0.29700  Biso   1.000  H
  C492     1.0000 0.60390  0.95230  0.18490  Biso   1.000  C
  H245     1.0000 0.59910  0.95130  0.15170  Biso   1.000  H
  C493     1.0000 0.48330  0.82720  0.40390  Biso   1.000  C
  H246     1.0000 0.50110  0.80950  0.42010  Biso   1.000  H
  C494     1.0000 0.42280  0.76610  0.18500  Biso   1.000  C
  C495     1.0000 0.58520  0.92420  0.21460  Biso   1.000  C
  C496     1.0000 0.42300  0.76490  0.23320  Biso   1.000  C
  H247     1.0000 0.44040  0.78200  0.25080  Biso   1.000  H
  C497     1.0000 0.51610  0.80270  0.32740  Biso   1.000  C
  C498     1.0000 0.55780  0.89160  0.19240  Biso   1.000  C
  C499     1.0000 0.45660  0.85260  0.43190  Biso   1.000  C
  C500     1.0000 0.61320  0.95710  0.28550  Biso   1.000  C
  C501     1.0000 0.58830  0.92630  0.26220  Biso   1.000  C
  H248     1.0000 0.57440  0.90770  0.28120  Biso   1.000  H
  C502     1.0000 0.34390  0.68530  0.25630  Biso   1.000  C
  H249     1.0000 0.32600  0.66890  0.23830  Biso   1.000  H
  C503     1.0000 0.37140  0.71100  0.23150  Biso   1.000  C
  C504     1.0000 0.62900  0.98140  0.20360  Biso   1.000  C
  H250     1.0000 0.64300  0.99880  0.18300  Biso   1.000  H
  C505     1.0000 0.34230  0.68340  0.30510  Biso   1.000  C
  C506     1.0000 0.44930  0.79720  0.15950  Biso   1.000  C
  C507     1.0000 0.45840  0.85460  0.48310  Biso   1.000  C
  H251     1.0000 0.47620  0.83710  0.49960  Biso   1.000  H
  C508     1.0000 0.49900  0.68400  0.21090  Biso   1.000  C
  C509     1.0000 0.64090  0.98900  0.35670  Biso   1.000  C
  H252     1.0000 0.64320  0.99060  0.39020  Biso   1.000  H
  C510     1.0000 0.36940  0.70820  0.33240  Biso   1.000  C
  H253     1.0000 0.36880  0.70730  0.36610  Biso   1.000  H
  C511     1.0000 0.31180  0.65520  0.32920  Biso   1.000  C
  C512     1.0000 0.63370  0.98490  0.25530  Biso   1.000  C
  C513     1.0000 0.52450  0.71640  0.23130  Biso   1.000  C
  C514     1.0000 0.39840  0.74060  0.15780  Biso   1.000  C
  H254     1.0000 0.39930  0.74180  0.12410  Biso   1.000  H
  C515     1.0000 0.39670  0.73360  0.30900  Biso   1.000  C
  H255     1.0000 0.41580  0.74880  0.32710  Biso   1.000  H
  C516     1.0000 0.43560  0.88030  0.50890  Biso   1.000  C
  H256     1.0000 0.43870  0.88170  0.54240  Biso   1.000  H
  C517     1.0000 0.45320  0.62120  0.17580  Biso   1.000  C
  C518     1.0000 0.61830  0.96050  0.33670  Biso   1.000  C
  H257     1.0000 0.60520  0.94220  0.35660  Biso   1.000  H
  C519     1.0000 0.39710  0.55120  0.08090  Biso   1.000  C
  C520     1.0000 0.37340  0.71410  0.17990  Biso   1.000  C
  H258     1.0000 0.35680  0.69720  0.16110  Biso   1.000  H
  C521     1.0000 0.47670  0.65720  0.24210  Biso   1.000  C
  H259     1.0000 0.47630  0.66110  0.27540  Biso   1.000  H
  C522     1.0000 0.49420  0.68150  0.16190  Biso   1.000  C
  H260     1.0000 0.50610  0.69990  0.14120  Biso   1.000  H
  C523     1.0000 0.46990  0.64860  0.14380  Biso   1.000  C
  C524     1.0000 0.45530  0.62460  0.22170  Biso   1.000  C
  H261     1.0000 0.44280  0.60590  0.24160  Biso   1.000  H
  C525     1.0000 0.42630  0.58410  0.10640  Biso   1.000  C
  C526     1.0000 0.44270  0.61070  0.07440  Biso   1.000  C
  H262     1.0000 0.43810  0.60870  0.04110  Biso   1.000  H
  C527     1.0000 0.46830  0.64310  0.09570  Biso   1.000  C
  H263     1.0000 0.48350  0.65990  0.07540  Biso   1.000  H
  C528     1.0000 0.42760  0.58760  0.15320  Biso   1.000  C
  H264     1.0000 0.41310  0.56980  0.17290  Biso   1.000  H
  Cd23     1.0000 0.49706  0.35628  0.61871  Biso   1.000  Cd
  Cd24     1.0000 0.58911  0.25218  0.80317  Biso   1.000  Cd
  K12      1.0000 0.53907  0.30505  0.71299  Biso   1.000  K
  O177     1.0000 0.35288  0.45709  0.98880  Biso   1.000  O
  O178     1.0000 0.47600  0.31740  0.68440  Biso   1.000  O
  O179     1.0000 0.68920  0.55268  0.89270  Biso   1.000  O
  O180     1.0000 0.52910  0.24714  0.70780  Biso   1.000  O
  O181     1.0000 0.54400  0.39759  0.64890  Biso   1.000  O
  O182     1.0000 0.51530  0.30572  0.78260  Biso   1.000  O
  O183     1.0000 0.54110  0.28176  0.85190  Biso   1.000  O
  O184     1.0000 0.39100  0.44360  0.05380  Biso   1.000  O
  O185     1.0000 0.55010  0.36287  0.71770  Biso   1.000  O
  O186     1.0000 0.28450  0.13700  0.80450  Biso   1.000  O
  O187     1.0000 0.70830  0.57270  0.81890  Biso   1.000  O
  O188     1.0000 0.54030  0.21024  0.77360  Biso   1.000  O
  O189     1.0000 0.31320  0.15250  0.87520  Biso   1.000  O
  O190     1.0000 0.44400  0.30290  0.61500  Biso   1.000  O
  O191     1.0000 0.39900  0.04460  0.53940  Biso   1.000  O
  C529     1.0000 0.40200  0.40420  0.93310  Biso   1.000  C
  H265     1.0000 0.38260  0.42040  0.91680  Biso   1.000  H
  O192     1.0000 0.37240  0.03320  0.61160  Biso   1.000  O
  C530     1.0000 0.40590  0.40630  0.98340  Biso   1.000  C
  C531     1.0000 0.68720  0.54990  0.84840  Biso   1.000  C
  C532     1.0000 0.42770  0.37740  0.90760  Biso   1.000  C
  C533     1.0000 0.38220  0.43670  0.01130  Biso   1.000  C
  C534     1.0000 0.42760  0.37640  0.85590  Biso   1.000  C
  H266     1.0000 0.40940  0.39350  0.83940  Biso   1.000  H
  C535     1.0000 0.48410  0.32760  0.85600  Biso   1.000  C
  C536     1.0000 0.66240  0.51800  0.82620  Biso   1.000  C
  C537     1.0000 0.65780  0.51520  0.77630  Biso   1.000  C
  H267     1.0000 0.67090  0.53360  0.75640  Biso   1.000  H
  C538     1.0000 0.39640  0.23720  0.75780  Biso   1.000  C
  C539     1.0000 0.45200  0.35250  0.83050  Biso   1.000  C
  H268     1.0000 0.44910  0.35130  0.79700  Biso   1.000  H
  C540     1.0000 0.60390  0.45230  0.68490  Biso   1.000  C
  H269     1.0000 0.59910  0.45130  0.65170  Biso   1.000  H
  C541     1.0000 0.48330  0.32720  0.90390  Biso   1.000  C
  H270     1.0000 0.50110  0.30950  0.92010  Biso   1.000  H
  C542     1.0000 0.42280  0.26610  0.68500  Biso   1.000  C
  C543     1.0000 0.58520  0.42420  0.71460  Biso   1.000  C
  C544     1.0000 0.42300  0.26490  0.73320  Biso   1.000  C
  H271     1.0000 0.44040  0.28200  0.75080  Biso   1.000  H
  C545     1.0000 0.51610  0.30270  0.82740  Biso   1.000  C
  C546     1.0000 0.55780  0.39160  0.69240  Biso   1.000  C
  C547     1.0000 0.45660  0.35260  0.93190  Biso   1.000  C
  C548     1.0000 0.61320  0.45710  0.78550  Biso   1.000  C
  C549     1.0000 0.58830  0.42630  0.76220  Biso   1.000  C
  H272     1.0000 0.57440  0.40770  0.78120  Biso   1.000  H
  C550     1.0000 0.34390  0.18530  0.75630  Biso   1.000  C
  H273     1.0000 0.32600  0.16890  0.73830  Biso   1.000  H
  C551     1.0000 0.37140  0.21100  0.73150  Biso   1.000  C
  C552     1.0000 0.62900  0.48140  0.70360  Biso   1.000  C
  H274     1.0000 0.64300  0.49880  0.68300  Biso   1.000  H
  C553     1.0000 0.34230  0.18340  0.80510  Biso   1.000  C
  C554     1.0000 0.44930  0.29720  0.65950  Biso   1.000  C
  C555     1.0000 0.45840  0.35460  0.98310  Biso   1.000  C
  H275     1.0000 0.47620  0.33710  0.99960  Biso   1.000  H
  C556     1.0000 0.49900  0.18400  0.71090  Biso   1.000  C
  C557     1.0000 0.64090  0.48900  0.85670  Biso   1.000  C
  H276     1.0000 0.64320  0.49060  0.89020  Biso   1.000  H
  C558     1.0000 0.36940  0.20820  0.83240  Biso   1.000  C
  H277     1.0000 0.36880  0.20730  0.86610  Biso   1.000  H
  C559     1.0000 0.31180  0.15520  0.82920  Biso   1.000  C
  C560     1.0000 0.63370  0.48490  0.75530  Biso   1.000  C
  C561     1.0000 0.52450  0.21640  0.73130  Biso   1.000  C
  C562     1.0000 0.39840  0.24060  0.65780  Biso   1.000  C
  H278     1.0000 0.39930  0.24180  0.62410  Biso   1.000  H
  C563     1.0000 0.39670  0.23360  0.80900  Biso   1.000  C
  H279     1.0000 0.41580  0.24880  0.82710  Biso   1.000  H
  C564     1.0000 0.43560  0.38030  0.00890  Biso   1.000  C
  H280     1.0000 0.43870  0.38170  0.04240  Biso   1.000  H
  C565     1.0000 0.45320  0.12120  0.67580  Biso   1.000  C
  C566     1.0000 0.61830  0.46050  0.83670  Biso   1.000  C
  H281     1.0000 0.60520  0.44220  0.85660  Biso   1.000  H
  C567     1.0000 0.39710  0.05120  0.58090  Biso   1.000  C
  C568     1.0000 0.37340  0.21410  0.67990  Biso   1.000  C
  H282     1.0000 0.35680  0.19720  0.66110  Biso   1.000  H
  C569     1.0000 0.47670  0.15720  0.74210  Biso   1.000  C
  H283     1.0000 0.47630  0.16110  0.77540  Biso   1.000  H
  C570     1.0000 0.49420  0.18150  0.66190  Biso   1.000  C
  H284     1.0000 0.50610  0.19990  0.64120  Biso   1.000  H
  C571     1.0000 0.46990  0.14860  0.64380  Biso   1.000  C
  C572     1.0000 0.45530  0.12460  0.72170  Biso   1.000  C
  H285     1.0000 0.44280  0.10590  0.74160  Biso   1.000  H
  C573     1.0000 0.42630  0.08410  0.60640  Biso   1.000  C
  C574     1.0000 0.44270  0.11070  0.57440  Biso   1.000  C
  H286     1.0000 0.43810  0.10870  0.54110  Biso   1.000  H
  C575     1.0000 0.46830  0.14310  0.59570  Biso   1.000  C
  H287     1.0000 0.48350  0.15990  0.57540  Biso   1.000  H
  C576     1.0000 0.42760  0.08760  0.65320  Biso   1.000  C
  H288     1.0000 0.41310  0.06980  0.67290  Biso   1.000  H
  Cd25     1.0000 0.50294  0.64372  0.61871  Biso   1.000  Cd
  Cd26     1.0000 0.41089  0.74782  0.80317  Biso   1.000  Cd
  K13      1.0000 0.46093  0.69495  0.71299  Biso   1.000  K
  O193     1.0000 0.64712  0.54291  0.98880  Biso   1.000  O
  O194     1.0000 0.52400  0.68260  0.68440  Biso   1.000  O
  O195     1.0000 0.31080  0.44732  0.89270  Biso   1.000  O
  O196     1.0000 0.47090  0.75286  0.70780  Biso   1.000  O
  O197     1.0000 0.45600  0.60241  0.64890  Biso   1.000  O
  O198     1.0000 0.48470  0.69428  0.78260  Biso   1.000  O
  O199     1.0000 0.45890  0.71824  0.85190  Biso   1.000  O
  O200     1.0000 0.60900  0.55640  0.05380  Biso   1.000  O
  O201     1.0000 0.44990  0.63713  0.71770  Biso   1.000  O
  O202     1.0000 0.71550  0.86300  0.80450  Biso   1.000  O
  O203     1.0000 0.29170  0.42730  0.81890  Biso   1.000  O
  O204     1.0000 0.45970  0.78976  0.77360  Biso   1.000  O
  O205     1.0000 0.68680  0.84750  0.87520  Biso   1.000  O
  O206     1.0000 0.55600  0.69710  0.61500  Biso   1.000  O
  O207     1.0000 0.60100  0.95540  0.53940  Biso   1.000  O
  C577     1.0000 0.59800  0.59580  0.93310  Biso   1.000  C
  H289     1.0000 0.61740  0.57960  0.91680  Biso   1.000  H
  O208     1.0000 0.62760  0.96680  0.61160  Biso   1.000  O
  C578     1.0000 0.59410  0.59370  0.98340  Biso   1.000  C
  C579     1.0000 0.31280  0.45010  0.84840  Biso   1.000  C
  C580     1.0000 0.57230  0.62260  0.90760  Biso   1.000  C
  C581     1.0000 0.61780  0.56330  0.01130  Biso   1.000  C
  C582     1.0000 0.57240  0.62360  0.85590  Biso   1.000  C
  H290     1.0000 0.59060  0.60650  0.83940  Biso   1.000  H
  C583     1.0000 0.51590  0.67240  0.85600  Biso   1.000  C
  C584     1.0000 0.33760  0.48200  0.82620  Biso   1.000  C
  C585     1.0000 0.34220  0.48480  0.77630  Biso   1.000  C
  H291     1.0000 0.32910  0.46640  0.75640  Biso   1.000  H
  C586     1.0000 0.60360  0.76280  0.75780  Biso   1.000  C
  C587     1.0000 0.54800  0.64750  0.83050  Biso   1.000  C
  H292     1.0000 0.55090  0.64870  0.79700  Biso   1.000  H
  C588     1.0000 0.39610  0.54770  0.68490  Biso   1.000  C
  H293     1.0000 0.40090  0.54870  0.65170  Biso   1.000  H
  C589     1.0000 0.51670  0.67280  0.90390  Biso   1.000  C
  H294     1.0000 0.49890  0.69050  0.92010  Biso   1.000  H
  C590     1.0000 0.57720  0.73390  0.68500  Biso   1.000  C
  C591     1.0000 0.41480  0.57580  0.71460  Biso   1.000  C
  C592     1.0000 0.57700  0.73510  0.73320  Biso   1.000  C
  H295     1.0000 0.55960  0.71800  0.75080  Biso   1.000  H
  C593     1.0000 0.48390  0.69730  0.82740  Biso   1.000  C
  C594     1.0000 0.44220  0.60840  0.69240  Biso   1.000  C
  C595     1.0000 0.54340  0.64740  0.93190  Biso   1.000  C
  C596     1.0000 0.38680  0.54290  0.78550  Biso   1.000  C
  C597     1.0000 0.41170  0.57370  0.76220  Biso   1.000  C
  H296     1.0000 0.42560  0.59230  0.78120  Biso   1.000  H
  C598     1.0000 0.65610  0.81470  0.75630  Biso   1.000  C
  H297     1.0000 0.67400  0.83110  0.73830  Biso   1.000  H
  C599     1.0000 0.62860  0.78900  0.73150  Biso   1.000  C
  C600     1.0000 0.37100  0.51860  0.70360  Biso   1.000  C
  H298     1.0000 0.35700  0.50120  0.68300  Biso   1.000  H
  C601     1.0000 0.65770  0.81660  0.80510  Biso   1.000  C
  C602     1.0000 0.55070  0.70280  0.65950  Biso   1.000  C
  C603     1.0000 0.54160  0.64540  0.98310  Biso   1.000  C
  H299     1.0000 0.52380  0.66290  0.99960  Biso   1.000  H
  C604     1.0000 0.50100  0.81600  0.71090  Biso   1.000  C
  C605     1.0000 0.35910  0.51100  0.85670  Biso   1.000  C
  H300     1.0000 0.35680  0.50940  0.89020  Biso   1.000  H
  C606     1.0000 0.63060  0.79180  0.83240  Biso   1.000  C
  H301     1.0000 0.63120  0.79270  0.86610  Biso   1.000  H
  C607     1.0000 0.68820  0.84480  0.82920  Biso   1.000  C
  C608     1.0000 0.36630  0.51510  0.75530  Biso   1.000  C
  C609     1.0000 0.47550  0.78360  0.73130  Biso   1.000  C
  C610     1.0000 0.60160  0.75940  0.65780  Biso   1.000  C
  H302     1.0000 0.60070  0.75820  0.62410  Biso   1.000  H
  C611     1.0000 0.60330  0.76640  0.80900  Biso   1.000  C
  H303     1.0000 0.58420  0.75120  0.82710  Biso   1.000  H
  C612     1.0000 0.56440  0.61970  0.00890  Biso   1.000  C
  H304     1.0000 0.56130  0.61830  0.04240  Biso   1.000  H
  C613     1.0000 0.54680  0.87880  0.67580  Biso   1.000  C
  C614     1.0000 0.38170  0.53950  0.83670  Biso   1.000  C
  H305     1.0000 0.39480  0.55780  0.85660  Biso   1.000  H
  C615     1.0000 0.60290  0.94880  0.58090  Biso   1.000  C
  C616     1.0000 0.62660  0.78590  0.67990  Biso   1.000  C
  H306     1.0000 0.64320  0.80280  0.66110  Biso   1.000  H
  C617     1.0000 0.52330  0.84280  0.74210  Biso   1.000  C
  H307     1.0000 0.52370  0.83890  0.77540  Biso   1.000  H
  C618     1.0000 0.50580  0.81850  0.66190  Biso   1.000  C
  H308     1.0000 0.49390  0.80010  0.64120  Biso   1.000  H
  C619     1.0000 0.53010  0.85140  0.64380  Biso   1.000  C
  C620     1.0000 0.54470  0.87540  0.72170  Biso   1.000  C
  H309     1.0000 0.55720  0.89410  0.74160  Biso   1.000  H
  C621     1.0000 0.57370  0.91590  0.60640  Biso   1.000  C
  C622     1.0000 0.55730  0.88930  0.57440  Biso   1.000  C
  H310     1.0000 0.56190  0.89130  0.54110  Biso   1.000  H
  C623     1.0000 0.53170  0.85690  0.59570  Biso   1.000  C
  H311     1.0000 0.51650  0.84010  0.57540  Biso   1.000  H
  C624     1.0000 0.57240  0.91240  0.65320  Biso   1.000  C
  H312     1.0000 0.58690  0.93020  0.67290  Biso   1.000  H
  Cd27     1.0000 0.50294  0.14372  0.11871  Biso   1.000  Cd
  Cd28     1.0000 0.41089  0.24782  0.30317  Biso   1.000  Cd
  K14      1.0000 0.46093  0.19495  0.21299  Biso   1.000  K
  O209     1.0000 0.64712  0.04291  0.48880  Biso   1.000  O
  O210     1.0000 0.52400  0.18260  0.18440  Biso   1.000  O
  O211     1.0000 0.31080  0.94732  0.39270  Biso   1.000  O
  O212     1.0000 0.47090  0.25286  0.20780  Biso   1.000  O
  O213     1.0000 0.45600  0.10241  0.14890  Biso   1.000  O
  O214     1.0000 0.48470  0.19428  0.28260  Biso   1.000  O
  O215     1.0000 0.45890  0.21824  0.35190  Biso   1.000  O
  O216     1.0000 0.60900  0.05640  0.55380  Biso   1.000  O
  O217     1.0000 0.44990  0.13713  0.21770  Biso   1.000  O
  O218     1.0000 0.71550  0.36300  0.30450  Biso   1.000  O
  O219     1.0000 0.29170  0.92730  0.31890  Biso   1.000  O
  O220     1.0000 0.45970  0.28976  0.27360  Biso   1.000  O
  O221     1.0000 0.68680  0.34750  0.37520  Biso   1.000  O
  O222     1.0000 0.55600  0.19710  0.11500  Biso   1.000  O
  O223     1.0000 0.60100  0.45540  0.03940  Biso   1.000  O
  C625     1.0000 0.59800  0.09580  0.43310  Biso   1.000  C
  H313     1.0000 0.61740  0.07960  0.41680  Biso   1.000  H
  O224     1.0000 0.62760  0.46680  0.11160  Biso   1.000  O
  C626     1.0000 0.59410  0.09370  0.48340  Biso   1.000  C
  C627     1.0000 0.31280  0.95010  0.34840  Biso   1.000  C
  C628     1.0000 0.57230  0.12260  0.40760  Biso   1.000  C
  C629     1.0000 0.61780  0.06330  0.51130  Biso   1.000  C
  C630     1.0000 0.57240  0.12360  0.35590  Biso   1.000  C
  H314     1.0000 0.59060  0.10650  0.33940  Biso   1.000  H
  C631     1.0000 0.51590  0.17240  0.35600  Biso   1.000  C
  C632     1.0000 0.33760  0.98200  0.32620  Biso   1.000  C
  C633     1.0000 0.34220  0.98480  0.27630  Biso   1.000  C
  H315     1.0000 0.32910  0.96640  0.25640  Biso   1.000  H
  C634     1.0000 0.60360  0.26280  0.25780  Biso   1.000  C
  C635     1.0000 0.54800  0.14750  0.33050  Biso   1.000  C
  H316     1.0000 0.55090  0.14870  0.29700  Biso   1.000  H
  C636     1.0000 0.39610  0.04770  0.18490  Biso   1.000  C
  H317     1.0000 0.40090  0.04870  0.15170  Biso   1.000  H
  C637     1.0000 0.51670  0.17280  0.40390  Biso   1.000  C
  H318     1.0000 0.49890  0.19050  0.42010  Biso   1.000  H
  C638     1.0000 0.57720  0.23390  0.18500  Biso   1.000  C
  C639     1.0000 0.41480  0.07580  0.21460  Biso   1.000  C
  C640     1.0000 0.57700  0.23510  0.23320  Biso   1.000  C
  H319     1.0000 0.55960  0.21800  0.25080  Biso   1.000  H
  C641     1.0000 0.48390  0.19730  0.32740  Biso   1.000  C
  C642     1.0000 0.44220  0.10840  0.19240  Biso   1.000  C
  C643     1.0000 0.54340  0.14740  0.43190  Biso   1.000  C
  C644     1.0000 0.38680  0.04290  0.28550  Biso   1.000  C
  C645     1.0000 0.41170  0.07370  0.26220  Biso   1.000  C
  H320     1.0000 0.42560  0.09230  0.28120  Biso   1.000  H
  C646     1.0000 0.65610  0.31470  0.25630  Biso   1.000  C
  H321     1.0000 0.67400  0.33110  0.23830  Biso   1.000  H
  C647     1.0000 0.62860  0.28900  0.23150  Biso   1.000  C
  C648     1.0000 0.37100  0.01860  0.20360  Biso   1.000  C
  H322     1.0000 0.35700  0.00120  0.18300  Biso   1.000  H
  C649     1.0000 0.65770  0.31660  0.30510  Biso   1.000  C
  C650     1.0000 0.55070  0.20280  0.15950  Biso   1.000  C
  C651     1.0000 0.54160  0.14540  0.48310  Biso   1.000  C
  H323     1.0000 0.52380  0.16290  0.49960  Biso   1.000  H
  C652     1.0000 0.50100  0.31600  0.21090  Biso   1.000  C
  C653     1.0000 0.35910  0.01100  0.35670  Biso   1.000  C
  H324     1.0000 0.35680  0.00940  0.39020  Biso   1.000  H
  C654     1.0000 0.63060  0.29180  0.33240  Biso   1.000  C
  H325     1.0000 0.63120  0.29270  0.36610  Biso   1.000  H
  C655     1.0000 0.68820  0.34480  0.32920  Biso   1.000  C
  C656     1.0000 0.36630  0.01510  0.25530  Biso   1.000  C
  C657     1.0000 0.47550  0.28360  0.23130  Biso   1.000  C
  C658     1.0000 0.60160  0.25940  0.15780  Biso   1.000  C
  H326     1.0000 0.60070  0.25820  0.12410  Biso   1.000  H
  C659     1.0000 0.60330  0.26640  0.30900  Biso   1.000  C
  H327     1.0000 0.58420  0.25120  0.32710  Biso   1.000  H
  C660     1.0000 0.56440  0.11970  0.50890  Biso   1.000  C
  H328     1.0000 0.56130  0.11830  0.54240  Biso   1.000  H
  C661     1.0000 0.54680  0.37880  0.17580  Biso   1.000  C
  C662     1.0000 0.38170  0.03950  0.33670  Biso   1.000  C
  H329     1.0000 0.39480  0.05780  0.35660  Biso   1.000  H
  C663     1.0000 0.60290  0.44880  0.08090  Biso   1.000  C
  C664     1.0000 0.62660  0.28590  0.17990  Biso   1.000  C
  H330     1.0000 0.64320  0.30280  0.16110  Biso   1.000  H
  C665     1.0000 0.52330  0.34280  0.24210  Biso   1.000  C
  H331     1.0000 0.52370  0.33890  0.27540  Biso   1.000  H
  C666     1.0000 0.50580  0.31850  0.16190  Biso   1.000  C
  H332     1.0000 0.49390  0.30010  0.14120  Biso   1.000  H
  C667     1.0000 0.53010  0.35140  0.14380  Biso   1.000  C
  C668     1.0000 0.54470  0.37540  0.22170  Biso   1.000  C
  H333     1.0000 0.55720  0.39410  0.24160  Biso   1.000  H
  C669     1.0000 0.57370  0.41590  0.10640  Biso   1.000  C
  C670     1.0000 0.55730  0.38930  0.07440  Biso   1.000  C
  H334     1.0000 0.56190  0.39130  0.04110  Biso   1.000  H
  C671     1.0000 0.53170  0.35690  0.09570  Biso   1.000  C
  H335     1.0000 0.51650  0.34010  0.07540  Biso   1.000  H
  C672     1.0000 0.57240  0.41240  0.15320  Biso   1.000  C
  H336     1.0000 0.58690  0.43020  0.17290  Biso   1.000  H
  Cd29     1.0000 0.00294  0.64372  0.11871  Biso   1.000  Cd
  Cd30     1.0000 0.91089  0.74782  0.30317  Biso   1.000  Cd
  K15      1.0000 0.96093  0.69495  0.21299  Biso   1.000  K
  O225     1.0000 0.14712  0.54291  0.48880  Biso   1.000  O
  O226     1.0000 0.02400  0.68260  0.18440  Biso   1.000  O
  O227     1.0000 0.81080  0.44732  0.39270  Biso   1.000  O
  O228     1.0000 0.97090  0.75286  0.20780  Biso   1.000  O
  O229     1.0000 0.95600  0.60241  0.14890  Biso   1.000  O
  O230     1.0000 0.98470  0.69428  0.28260  Biso   1.000  O
  O231     1.0000 0.95890  0.71824  0.35190  Biso   1.000  O
  O232     1.0000 0.10900  0.55640  0.55380  Biso   1.000  O
  O233     1.0000 0.94990  0.63713  0.21770  Biso   1.000  O
  O234     1.0000 0.21550  0.86300  0.30450  Biso   1.000  O
  O235     1.0000 0.79170  0.42730  0.31890  Biso   1.000  O
  O236     1.0000 0.95970  0.78976  0.27360  Biso   1.000  O
  O237     1.0000 0.18680  0.84750  0.37520  Biso   1.000  O
  O238     1.0000 0.05600  0.69710  0.11500  Biso   1.000  O
  O239     1.0000 0.10100  0.95540  0.03940  Biso   1.000  O
  C673     1.0000 0.09800  0.59580  0.43310  Biso   1.000  C
  H337     1.0000 0.11740  0.57960  0.41680  Biso   1.000  H
  O240     1.0000 0.12760  0.96680  0.11160  Biso   1.000  O
  C674     1.0000 0.09410  0.59370  0.48340  Biso   1.000  C
  C675     1.0000 0.81280  0.45010  0.34840  Biso   1.000  C
  C676     1.0000 0.07230  0.62260  0.40760  Biso   1.000  C
  C677     1.0000 0.11780  0.56330  0.51130  Biso   1.000  C
  C678     1.0000 0.07240  0.62360  0.35590  Biso   1.000  C
  H338     1.0000 0.09060  0.60650  0.33940  Biso   1.000  H
  C679     1.0000 0.01590  0.67240  0.35600  Biso   1.000  C
  C680     1.0000 0.83760  0.48200  0.32620  Biso   1.000  C
  C681     1.0000 0.84220  0.48480  0.27630  Biso   1.000  C
  H339     1.0000 0.82910  0.46640  0.25640  Biso   1.000  H
  C682     1.0000 0.10360  0.76280  0.25780  Biso   1.000  C
  C683     1.0000 0.04800  0.64750  0.33050  Biso   1.000  C
  H340     1.0000 0.05090  0.64870  0.29700  Biso   1.000  H
  C684     1.0000 0.89610  0.54770  0.18490  Biso   1.000  C
  H341     1.0000 0.90090  0.54870  0.15170  Biso   1.000  H
  C685     1.0000 0.01670  0.67280  0.40390  Biso   1.000  C
  H342     1.0000 0.99890  0.69050  0.42010  Biso   1.000  H
  C686     1.0000 0.07720  0.73390  0.18500  Biso   1.000  C
  C687     1.0000 0.91480  0.57580  0.21460  Biso   1.000  C
  C688     1.0000 0.07700  0.73510  0.23320  Biso   1.000  C
  H343     1.0000 0.05960  0.71800  0.25080  Biso   1.000  H
  C689     1.0000 0.98390  0.69730  0.32740  Biso   1.000  C
  C690     1.0000 0.94220  0.60840  0.19240  Biso   1.000  C
  C691     1.0000 0.04340  0.64740  0.43190  Biso   1.000  C
  C692     1.0000 0.88680  0.54290  0.28550  Biso   1.000  C
  C693     1.0000 0.91170  0.57370  0.26220  Biso   1.000  C
  H344     1.0000 0.92560  0.59230  0.28120  Biso   1.000  H
  C694     1.0000 0.15610  0.81470  0.25630  Biso   1.000  C
  H345     1.0000 0.17400  0.83110  0.23830  Biso   1.000  H
  C695     1.0000 0.12860  0.78900  0.23150  Biso   1.000  C
  C696     1.0000 0.87100  0.51860  0.20360  Biso   1.000  C
  H346     1.0000 0.85700  0.50120  0.18300  Biso   1.000  H
  C697     1.0000 0.15770  0.81660  0.30510  Biso   1.000  C
  C698     1.0000 0.05070  0.70280  0.15950  Biso   1.000  C
  C699     1.0000 0.04160  0.64540  0.48310  Biso   1.000  C
  H347     1.0000 0.02380  0.66290  0.49960  Biso   1.000  H
  C700     1.0000 0.00100  0.81600  0.21090  Biso   1.000  C
  C701     1.0000 0.85910  0.51100  0.35670  Biso   1.000  C
  H348     1.0000 0.85680  0.50940  0.39020  Biso   1.000  H
  C702     1.0000 0.13060  0.79180  0.33240  Biso   1.000  C
  H349     1.0000 0.13120  0.79270  0.36610  Biso   1.000  H
  C703     1.0000 0.18820  0.84480  0.32920  Biso   1.000  C
  C704     1.0000 0.86630  0.51510  0.25530  Biso   1.000  C
  C705     1.0000 0.97550  0.78360  0.23130  Biso   1.000  C
  C706     1.0000 0.10160  0.75940  0.15780  Biso   1.000  C
  H350     1.0000 0.10070  0.75820  0.12410  Biso   1.000  H
  C707     1.0000 0.10330  0.76640  0.30900  Biso   1.000  C
  H351     1.0000 0.08420  0.75120  0.32710  Biso   1.000  H
  C708     1.0000 0.06440  0.61970  0.50890  Biso   1.000  C
  H352     1.0000 0.06130  0.61830  0.54240  Biso   1.000  H
  C709     1.0000 0.04680  0.87880  0.17580  Biso   1.000  C
  C710     1.0000 0.88170  0.53950  0.33670  Biso   1.000  C
  H353     1.0000 0.89480  0.55780  0.35660  Biso   1.000  H
  C711     1.0000 0.10290  0.94880  0.08090  Biso   1.000  C
  C712     1.0000 0.12660  0.78590  0.17990  Biso   1.000  C
  H354     1.0000 0.14320  0.80280  0.16110  Biso   1.000  H
  C713     1.0000 0.02330  0.84280  0.24210  Biso   1.000  C
  H355     1.0000 0.02370  0.83890  0.27540  Biso   1.000  H
  C714     1.0000 0.00580  0.81850  0.16190  Biso   1.000  C
  H356     1.0000 0.99390  0.80010  0.14120  Biso   1.000  H
  C715     1.0000 0.03010  0.85140  0.14380  Biso   1.000  C
  C716     1.0000 0.04470  0.87540  0.22170  Biso   1.000  C
  H357     1.0000 0.05720  0.89410  0.24160  Biso   1.000  H
  C717     1.0000 0.07370  0.91590  0.10640  Biso   1.000  C
  C718     1.0000 0.05730  0.88930  0.07440  Biso   1.000  C
  H358     1.0000 0.06190  0.89130  0.04110  Biso   1.000  H
  C719     1.0000 0.03170  0.85690  0.09570  Biso   1.000  C
  H359     1.0000 0.01650  0.84010  0.07540  Biso   1.000  H
  C720     1.0000 0.07240  0.91240  0.15320  Biso   1.000  C
  H360     1.0000 0.08690  0.93020  0.17290  Biso   1.000  H
  Cd31     1.0000 0.00294  0.14372  0.61871  Biso   1.000  Cd
  Cd32     1.0000 0.91089  0.24782  0.80317  Biso   1.000  Cd
  K16      1.0000 0.96093  0.19495  0.71299  Biso   1.000  K
  O241     1.0000 0.14712  0.04291  0.98880  Biso   1.000  O
  O242     1.0000 0.02400  0.18260  0.68440  Biso   1.000  O
  O243     1.0000 0.81080  0.94732  0.89270  Biso   1.000  O
  O244     1.0000 0.97090  0.25286  0.70780  Biso   1.000  O
  O245     1.0000 0.95600  0.10241  0.64890  Biso   1.000  O
  O246     1.0000 0.98470  0.19428  0.78260  Biso   1.000  O
  O247     1.0000 0.95890  0.21824  0.85190  Biso   1.000  O
  O248     1.0000 0.10900  0.05640  0.05380  Biso   1.000  O
  O249     1.0000 0.94990  0.13713  0.71770  Biso   1.000  O
  O250     1.0000 0.21550  0.36300  0.80450  Biso   1.000  O
  O251     1.0000 0.79170  0.92730  0.81890  Biso   1.000  O
  O252     1.0000 0.95970  0.28976  0.77360  Biso   1.000  O
  O253     1.0000 0.18680  0.34750  0.87520  Biso   1.000  O
  O254     1.0000 0.05600  0.19710  0.61500  Biso   1.000  O
  O255     1.0000 0.10100  0.45540  0.53940  Biso   1.000  O
  C721     1.0000 0.09800  0.09580  0.93310  Biso   1.000  C
  H361     1.0000 0.11740  0.07960  0.91680  Biso   1.000  H
  O256     1.0000 0.12760  0.46680  0.61160  Biso   1.000  O
  C722     1.0000 0.09410  0.09370  0.98340  Biso   1.000  C
  C723     1.0000 0.81280  0.95010  0.84840  Biso   1.000  C
  C724     1.0000 0.07230  0.12260  0.90760  Biso   1.000  C
  C725     1.0000 0.11780  0.06330  0.01130  Biso   1.000  C
  C726     1.0000 0.07240  0.12360  0.85590  Biso   1.000  C
  H362     1.0000 0.09060  0.10650  0.83940  Biso   1.000  H
  C727     1.0000 0.01590  0.17240  0.85600  Biso   1.000  C
  C728     1.0000 0.83760  0.98200  0.82620  Biso   1.000  C
  C729     1.0000 0.84220  0.98480  0.77630  Biso   1.000  C
  H363     1.0000 0.82910  0.96640  0.75640  Biso   1.000  H
  C730     1.0000 0.10360  0.26280  0.75780  Biso   1.000  C
  C731     1.0000 0.04800  0.14750  0.83050  Biso   1.000  C
  H364     1.0000 0.05090  0.14870  0.79700  Biso   1.000  H
  C732     1.0000 0.89610  0.04770  0.68490  Biso   1.000  C
  H365     1.0000 0.90090  0.04870  0.65170  Biso   1.000  H
  C733     1.0000 0.01670  0.17280  0.90390  Biso   1.000  C
  H366     1.0000 0.99890  0.19050  0.92010  Biso   1.000  H
  C734     1.0000 0.07720  0.23390  0.68500  Biso   1.000  C
  C735     1.0000 0.91480  0.07580  0.71460  Biso   1.000  C
  C736     1.0000 0.07700  0.23510  0.73320  Biso   1.000  C
  H367     1.0000 0.05960  0.21800  0.75080  Biso   1.000  H
  C737     1.0000 0.98390  0.19730  0.82740  Biso   1.000  C
  C738     1.0000 0.94220  0.10840  0.69240  Biso   1.000  C
  C739     1.0000 0.04340  0.14740  0.93190  Biso   1.000  C
  C740     1.0000 0.88680  0.04290  0.78550  Biso   1.000  C
  C741     1.0000 0.91170  0.07370  0.76220  Biso   1.000  C
  H368     1.0000 0.92560  0.09230  0.78120  Biso   1.000  H
  C742     1.0000 0.15610  0.31470  0.75630  Biso   1.000  C
  H369     1.0000 0.17400  0.33110  0.73830  Biso   1.000  H
  C743     1.0000 0.12860  0.28900  0.73150  Biso   1.000  C
  C744     1.0000 0.87100  0.01860  0.70360  Biso   1.000  C
  H370     1.0000 0.85700  0.00120  0.68300  Biso   1.000  H
  C745     1.0000 0.15770  0.31660  0.80510  Biso   1.000  C
  C746     1.0000 0.05070  0.20280  0.65950  Biso   1.000  C
  C747     1.0000 0.04160  0.14540  0.98310  Biso   1.000  C
  H371     1.0000 0.02380  0.16290  0.99960  Biso   1.000  H
  C748     1.0000 0.00100  0.31600  0.71090  Biso   1.000  C
  C749     1.0000 0.85910  0.01100  0.85670  Biso   1.000  C
  H372     1.0000 0.85680  0.00940  0.89020  Biso   1.000  H
  C750     1.0000 0.13060  0.29180  0.83240  Biso   1.000  C
  H373     1.0000 0.13120  0.29270  0.86610  Biso   1.000  H
  C751     1.0000 0.18820  0.34480  0.82920  Biso   1.000  C
  C752     1.0000 0.86630  0.01510  0.75530  Biso   1.000  C
  C753     1.0000 0.97550  0.28360  0.73130  Biso   1.000  C
  C754     1.0000 0.10160  0.25940  0.65780  Biso   1.000  C
  H374     1.0000 0.10070  0.25820  0.62410  Biso   1.000  H
  C755     1.0000 0.10330  0.26640  0.80900  Biso   1.000  C
  H375     1.0000 0.08420  0.25120  0.82710  Biso   1.000  H
  C756     1.0000 0.06440  0.11970  0.00890  Biso   1.000  C
  H376     1.0000 0.06130  0.11830  0.04240  Biso   1.000  H
  C757     1.0000 0.04680  0.37880  0.67580  Biso   1.000  C
  C758     1.0000 0.88170  0.03950  0.83670  Biso   1.000  C
  H377     1.0000 0.89480  0.05780  0.85660  Biso   1.000  H
  C759     1.0000 0.10290  0.44880  0.58090  Biso   1.000  C
  C760     1.0000 0.12660  0.28590  0.67990  Biso   1.000  C
  H378     1.0000 0.14320  0.30280  0.66110  Biso   1.000  H
  C761     1.0000 0.02330  0.34280  0.74210  Biso   1.000  C
  H379     1.0000 0.02370  0.33890  0.77540  Biso   1.000  H
  C762     1.0000 0.00580  0.31850  0.66190  Biso   1.000  C
  H380     1.0000 0.99390  0.30010  0.64120  Biso   1.000  H
  C763     1.0000 0.03010  0.35140  0.64380  Biso   1.000  C
  C764     1.0000 0.04470  0.37540  0.72170  Biso   1.000  C
  H381     1.0000 0.05720  0.39410  0.74160  Biso   1.000  H
  C765     1.0000 0.07370  0.41590  0.60640  Biso   1.000  C
  C766     1.0000 0.05730  0.38930  0.57440  Biso   1.000  C
  H382     1.0000 0.06190  0.39130  0.54110  Biso   1.000  H
  C767     1.0000 0.03170  0.35690  0.59570  Biso   1.000  C
  H383     1.0000 0.01650  0.34010  0.57540  Biso   1.000  H
  C768     1.0000 0.07240  0.41240  0.65320  Biso   1.000  C
  H384     1.0000 0.08690  0.43020  0.67290  Biso   1.000  H
