data_image0
_cell_length_a       20.373
_cell_length_b       23.7884
_cell_length_c       38.3447
_cell_angle_alpha    81.5391
_cell_angle_beta     74.594
_cell_angle_gamma    64.6457

_symmetry_space_group_name_H-M    P 1
_symmetry_int_tables_number       1

loop_
  _symmetry_equiv_pos_as_xyz
  'x, y, z'

loop_
  _atom_site_label
  _atom_site_occupancy
  _atom_site_fract_x
  _atom_site_fract_y
  _atom_site_fract_z
  _atom_site_thermal_displace_type
  _atom_site_B_iso_or_equiv
  _atom_site_type_symbol
  Zn1      1.0000 0.81134  0.84410  0.86028  Biso   1.000  Zn
  Zn2      1.0000 0.71880  0.75499  0.84265  Biso   1.000  Zn
  Zn3      1.0000 0.51905  0.84221  0.86623  Biso   1.000  Zn
  Zn4      1.0000 0.77003  0.72468  0.74778  Biso   1.000  Zn
  Zn5      1.0000 0.76983  0.60932  0.89696  Biso   1.000  Zn
  Zn6      1.0000 0.48428  0.34410  0.36028  Biso   1.000  Zn
  Zn7      1.0000 0.68356  0.25499  0.34265  Biso   1.000  Zn
  Zn8      1.0000 0.77251  0.34221  0.36623  Biso   1.000  Zn
  Zn9      1.0000 0.75751  0.22468  0.24778  Biso   1.000  Zn
  Zn10     1.0000 0.72389  0.10932  0.39696  Biso   1.000  Zn
  H1       1.0000 0.74260  0.21550  0.13830  Biso   1.000  H
  H2       1.0000 0.42090  0.87110  0.79790  Biso   1.000  H
  H3       1.0000 0.95230  0.42460  0.93040  Biso   1.000  H
  H4       1.0000 0.91510  0.98840  0.84800  Biso   1.000  H
  H5       1.0000 0.76360  0.41220  0.92620  Biso   1.000  H
  H6       1.0000 0.99740  0.79670  0.64990  Biso   1.000  H
  H7       1.0000 0.01040  0.85370  0.65750  Biso   1.000  H
  H8       1.0000 0.06540  0.78600  0.66580  Biso   1.000  H
  H9       1.0000 0.00360  0.32110  0.94730  Biso   1.000  H
  H10      1.0000 0.46120  0.99140  0.89060  Biso   1.000  H
  H11      1.0000 0.45410  0.13510  0.91430  Biso   1.000  H
  H12      1.0000 0.41890  0.11980  0.88720  Biso   1.000  H
  H13      1.0000 0.40720  0.09520  0.92760  Biso   1.000  H
  H14      1.0000 0.81470  0.30720  0.94180  Biso   1.000  H
  H15      1.0000 0.32430  0.73630  0.96750  Biso   1.000  H
  H16      1.0000 0.34960  0.66430  0.96610  Biso   1.000  H
  H17      1.0000 0.35680  0.69190  0.99890  Biso   1.000  H
  H18      1.0000 0.70020  0.99020  0.88720  Biso   1.000  H
  H19      1.0000 0.17310  0.09680  0.90840  Biso   1.000  H
  H20      1.0000 0.87420  0.10770  0.98130  Biso   1.000  H
  H21      1.0000 0.95240  0.05100  0.97900  Biso   1.000  H
  H22      1.0000 0.90720  0.77110  0.69590  Biso   1.000  H
  H23      1.0000 0.96020  0.14490  0.13450  Biso   1.000  H
  H24      1.0000 0.87180  0.01410  0.97150  Biso   1.000  H
  H25      1.0000 0.98850  0.12980  0.07420  Biso   1.000  H
  H26      1.0000 0.86420  0.21670  0.97270  Biso   1.000  H
  H27      1.0000 0.90780  0.20000  0.93240  Biso   1.000  H
  H28      1.0000 0.06570  0.14140  0.95040  Biso   1.000  H
  H29      1.0000 0.04190  0.11960  0.92080  Biso   1.000  H
  H30      1.0000 0.41920  0.77140  0.92620  Biso   1.000  H
  H31      1.0000 0.61370  0.58170  0.95070  Biso   1.000  H
  H32      1.0000 0.03820  0.88780  0.74460  Biso   1.000  H
  H33      1.0000 0.08380  0.84520  0.71140  Biso   1.000  H
  H34      1.0000 0.01970  0.91040  0.70640  Biso   1.000  H
  H35      1.0000 0.94660  0.05960  0.86760  Biso   1.000  H
  H36      1.0000 0.62440  0.77820  0.70100  Biso   1.000  H
  H37      1.0000 0.94480  0.86680  0.78420  Biso   1.000  H
  H38      1.0000 0.76860  0.20590  0.07410  Biso   1.000  H
  H39      1.0000 0.83860  0.94380  0.95180  Biso   1.000  H
  H40      1.0000 0.87900  0.37600  0.82780  Biso   1.000  H
  H41      1.0000 0.83080  0.38400  0.80020  Biso   1.000  H
  H42      1.0000 0.91650  0.36710  0.78650  Biso   1.000  H
  H43      1.0000 0.85830  0.47790  0.70430  Biso   1.000  H
  H44      1.0000 0.91610  0.41810  0.72010  Biso   1.000  H
  H45      1.0000 0.83120  0.43100  0.73060  Biso   1.000  H
  H46      1.0000 0.53520  0.54180  0.98340  Biso   1.000  H
  H47      1.0000 0.46080  0.58770  0.00710  Biso   1.000  H
  H48      1.0000 0.45930  0.56100  0.97240  Biso   1.000  H
  H49      1.0000 0.54760  0.14170  0.90490  Biso   1.000  H
  H50      1.0000 0.61740  0.10040  0.92100  Biso   1.000  H
  H51      1.0000 0.62750  0.11650  0.87930  Biso   1.000  H
  H52      1.0000 0.54460  0.80500  0.66100  Biso   1.000  H
  H53      1.0000 0.46850  0.80060  0.68000  Biso   1.000  H
  H54      1.0000 0.47180  0.86580  0.67000  Biso   1.000  H
  H55      1.0000 0.33590  0.89900  0.76180  Biso   1.000  H
  H56      1.0000 0.36560  0.91760  0.72180  Biso   1.000  H
  H57      1.0000 0.35830  0.85380  0.73060  Biso   1.000  H
  H58      1.0000 0.04410  0.59540  0.98260  Biso   1.000  H
  H59      1.0000 0.98590  0.56540  0.99400  Biso   1.000  H
  H60      1.0000 0.05010  0.54380  0.95920  Biso   1.000  H
  H61      1.0000 0.93380  0.77250  0.91570  Biso   1.000  H
  H62      1.0000 0.90480  0.58480  0.94180  Biso   1.000  H
  H63      1.0000 0.29570  0.03850  0.87590  Biso   1.000  H
  H64      1.0000 0.16020  0.93930  0.95690  Biso   1.000  H
  H65      1.0000 0.28350  0.88470  0.92710  Biso   1.000  H
  H66      1.0000 0.03110  0.73750  0.95150  Biso   1.000  H
  H67      1.0000 0.01940  0.69200  0.98420  Biso   1.000  H
  H68      1.0000 0.08090  0.66570  0.94910  Biso   1.000  H
  H69      1.0000 0.83280  0.57290  0.72610  Biso   1.000  H
  H70      1.0000 0.84150  0.48310  0.84830  Biso   1.000  H
  H71      1.0000 0.99610  0.09550  0.01770  Biso   1.000  H
  H72      1.0000 0.98970  0.16450  0.01130  Biso   1.000  H
  H73      1.0000 0.90360  0.71550  0.63830  Biso   1.000  H
  H74      1.0000 0.91010  0.37110  0.29790  Biso   1.000  H
  H75      1.0000 0.69270  0.92460  0.43040  Biso   1.000  H
  H76      1.0000 0.24850  0.48840  0.34800  Biso   1.000  H
  H77      1.0000 0.89800  0.91220  0.42620  Biso   1.000  H
  H78      1.0000 0.55600  0.29670  0.14990  Biso   1.000  H
  H79      1.0000 0.47840  0.35370  0.15750  Biso   1.000  H
  H80      1.0000 0.48280  0.28600  0.16580  Biso   1.000  H
  H81      1.0000 0.72800  0.82110  0.44730  Biso   1.000  H
  H82      1.0000 0.65680  0.49140  0.39060  Biso   1.000  H
  H83      1.0000 0.49650  0.63510  0.41430  Biso   1.000  H
  H84      1.0000 0.57410  0.61980  0.38720  Biso   1.000  H
  H85      1.0000 0.57000  0.59520  0.42760  Biso   1.000  H
  H86      1.0000 0.93630  0.80720  0.44180  Biso   1.000  H
  H87      1.0000 0.97190  0.23630  0.46750  Biso   1.000  H
  H88      1.0000 0.02000  0.16430  0.46610  Biso   1.000  H
  H89      1.0000 0.95240  0.19190  0.49890  Biso   1.000  H
  H90      1.0000 0.42240  0.49020  0.38720  Biso   1.000  H
  H91      1.0000 0.82170  0.59680  0.40840  Biso   1.000  H
  H92      1.0000 0.03680  0.60770  0.48130  Biso   1.000  H
  H93      1.0000 0.01760  0.55100  0.47900  Biso   1.000  H
  H94      1.0000 0.62580  0.27110  0.19590  Biso   1.000  H
  H95      1.0000 0.76040  0.64490  0.63450  Biso   1.000  H
  H96      1.0000 0.14260  0.51410  0.47150  Biso   1.000  H
  H97      1.0000 0.80750  0.62980  0.57420  Biso   1.000  H
  H98      1.0000 0.94640  0.71670  0.47270  Biso   1.000  H
  H99      1.0000 0.95980  0.70000  0.43240  Biso   1.000  H
  H100     1.0000 0.84250  0.64140  0.45040  Biso   1.000  H
  H101     1.0000 0.91770  0.61960  0.42080  Biso   1.000  H
  H102     1.0000 0.88320  0.27140  0.42620  Biso   1.000  H
  H103     1.0000 0.85390  0.08170  0.45070  Biso   1.000  H
  H104     1.0000 0.32940  0.38780  0.24460  Biso   1.000  H
  H105     1.0000 0.35960  0.34520  0.21140  Biso   1.000  H
  H106     1.0000 0.36350  0.41040  0.20640  Biso   1.000  H
  H107     1.0000 0.12620  0.55960  0.36760  Biso   1.000  H
  H108     1.0000 0.89640  0.27820  0.20100  Biso   1.000  H
  H109     1.0000 0.40420  0.36680  0.28420  Biso   1.000  H
  H110     1.0000 0.95140  0.70590  0.57410  Biso   1.000  H
  H111     1.0000 0.26580  0.44380  0.45180  Biso   1.000  H
  H112     1.0000 0.91720  0.87600  0.32780  Biso   1.000  H
  H113     1.0000 0.98500  0.88400  0.30020  Biso   1.000  H
  H114     1.0000 0.92990  0.86710  0.28650  Biso   1.000  H
  H115     1.0000 0.95950  0.97790  0.20430  Biso   1.000  H
  H116     1.0000 0.94570  0.91810  0.22010  Biso   1.000  H
  H117     1.0000 0.00720  0.93100  0.23060  Biso   1.000  H
  H118     1.0000 0.93960  0.04180  0.48340  Biso   1.000  H
  H119     1.0000 0.94440  0.08770  0.50710  Biso   1.000  H
  H120     1.0000 0.00730  0.06100  0.47240  Biso   1.000  H
  H121     1.0000 0.40580  0.64170  0.40490  Biso   1.000  H
  H122     1.0000 0.36120  0.60040  0.42100  Biso   1.000  H
  H123     1.0000 0.37670  0.61650  0.37930  Biso   1.000  H
  H124     1.0000 0.98940  0.30500  0.16100  Biso   1.000  H
  H125     1.0000 0.05090  0.30060  0.18000  Biso   1.000  H
  H126     1.0000 0.99240  0.36580  0.17000  Biso   1.000  H
  H127     1.0000 0.00330  0.39900  0.26180  Biso   1.000  H
  H128     1.0000 0.99500  0.41760  0.22180  Biso   1.000  H
  H129     1.0000 0.05730  0.35380  0.23060  Biso   1.000  H
  H130     1.0000 0.37790  0.09540  0.48260  Biso   1.000  H
  H131     1.0000 0.45470  0.06540  0.49400  Biso   1.000  H
  H132     1.0000 0.44690  0.04380  0.45920  Biso   1.000  H
  H133     1.0000 0.37800  0.27250  0.41570  Biso   1.000  H
  H134     1.0000 0.56860  0.08480  0.44180  Biso   1.000  H
  H135     1.0000 0.78990  0.53850  0.37590  Biso   1.000  H
  H136     1.0000 0.94360  0.43930  0.45690  Biso   1.000  H
  H137     1.0000 0.90470  0.38470  0.42710  Biso   1.000  H
  H138     1.0000 0.27990  0.23750  0.45150  Biso   1.000  H
  H139     1.0000 0.30440  0.19200  0.48420  Biso   1.000  H
  H140     1.0000 0.30430  0.16570  0.44910  Biso   1.000  H
  H141     1.0000 0.86820  0.07290  0.22610  Biso   1.000  H
  H142     1.0000 0.82710  0.98310  0.34830  Biso   1.000  H
  H143     1.0000 0.89070  0.59550  0.51770  Biso   1.000  H
  H144     1.0000 0.83450  0.66450  0.51130  Biso   1.000  H
  C1       1.0000 0.79176  0.19981  0.12507  Biso   1.000  C
  C2       1.0000 0.46086  0.85305  0.77863  Biso   1.000  C
  C3       1.0000 0.92519  0.40063  0.93279  Biso   1.000  C
  C4       1.0000 0.30238  0.95513  0.90031  Biso   1.000  C
  C5       1.0000 0.90562  0.99414  0.87262  Biso   1.000  C
  C6       1.0000 0.81170  0.39340  0.93000  Biso   1.000  C
  C7       1.0000 0.01432  0.81258  0.66578  Biso   1.000  C
  C8       1.0000 0.95612  0.33938  0.94278  Biso   1.000  C
  C9       1.0000 0.44020  0.68920  0.95280  Biso   1.000  C
  C10      1.0000 0.50680  0.99199  0.89001  Biso   1.000  C
  C11      1.0000 0.44154  0.10432  0.90760  Biso   1.000  C
  C12      1.0000 0.84143  0.33139  0.93955  Biso   1.000  C
  C13      1.0000 0.64502  0.93872  0.87964  Biso   1.000  C
  C14      1.0000 0.36000  0.69608  0.97332  Biso   1.000  C
  C15      1.0000 0.65403  0.99114  0.88720  Biso   1.000  C
  C16      1.0000 0.19559  0.05385  0.91217  Biso   1.000  C
  C17      1.0000 0.91057  0.04408  0.92198  Biso   1.000  C
  C18      1.0000 0.15631  0.02224  0.93714  Biso   1.000  C
  C19      1.0000 0.53394  0.72183  0.91389  Biso   1.000  C
  C20      1.0000 0.92611  0.09134  0.96830  Biso   1.000  C
  C21      1.0000 0.91405  0.79015  0.71335  Biso   1.000  C
  C22      1.0000 0.92165  0.15699  0.12271  Biso   1.000  C
  C23      1.0000 0.96220  0.13686  0.96954  Biso   1.000  C
  C24      1.0000 0.87208  0.96016  0.89808  Biso   1.000  C
  C25      1.0000 0.57721  0.93949  0.88129  Biso   1.000  C
  C26      1.0000 0.87963  0.00943  0.94691  Biso   1.000  C
  C27      1.0000 0.93874  0.14792  0.08640  Biso   1.000  C
  C28      1.0000 0.91334  0.20152  0.95660  Biso   1.000  C
  C29      1.0000 0.91417  0.30512  0.94594  Biso   1.000  C
  C30      1.0000 0.04245  0.11569  0.94625  Biso   1.000  C
  C31      1.0000 0.45718  0.73341  0.93063  Biso   1.000  C
  C32      1.0000 0.96544  0.81485  0.70487  Biso   1.000  C
  C33      1.0000 0.88316  0.16530  0.06758  Biso   1.000  C
  C34      1.0000 0.57636  0.61868  0.94460  Biso   1.000  C
  C35      1.0000 0.88406  0.82264  0.77504  Biso   1.000  C
  C36      1.0000 0.03542  0.87493  0.72263  Biso   1.000  C
  C37      1.0000 0.92472  0.03647  0.88429  Biso   1.000  C
  C38      1.0000 0.58454  0.79666  0.72026  Biso   1.000  C
  C39      1.0000 0.87118  0.79393  0.74911  Biso   1.000  C
  C40      1.0000 0.93753  0.84826  0.76668  Biso   1.000  C
  C41      1.0000 0.82628  0.19263  0.18281  Biso   1.000  C
  C42      1.0000 0.80697  0.19285  0.08621  Biso   1.000  C
  C43      1.0000 0.85985  0.96728  0.93502  Biso   1.000  C
  C44      1.0000 0.84843  0.18377  0.14257  Biso   1.000  C
  C45      1.0000 0.53427  0.82569  0.78297  Biso   1.000  C
  C46      1.0000 0.59594  0.79724  0.75488  Biso   1.000  C
  C47      1.0000 0.87213  0.39014  0.80380  Biso   1.000  C
  C48      1.0000 0.86620  0.44988  0.72512  Biso   1.000  C
  C49      1.0000 0.97849  0.84451  0.73151  Biso   1.000  C
  C50      1.0000 0.85409  0.48942  0.76040  Biso   1.000  C
  C51      1.0000 0.85520  0.46340  0.79840  Biso   1.000  C
  C52      1.0000 0.85378  0.42869  0.92595  Biso   1.000  C
  C53      1.0000 0.49840  0.63279  0.95901  Biso   1.000  C
  C54      1.0000 0.48740  0.57490  0.98290  Biso   1.000  C
  C55      1.0000 0.51490  0.04270  0.89730  Biso   1.000  C
  C56      1.0000 0.58630  0.04520  0.89480  Biso   1.000  C
  C57      1.0000 0.59569  0.10722  0.90060  Biso   1.000  C
  C58      1.0000 0.44993  0.85244  0.74470  Biso   1.000  C
  C59      1.0000 0.51335  0.82403  0.71607  Biso   1.000  C
  C60      1.0000 0.49803  0.82388  0.67806  Biso   1.000  C
  C61      1.0000 0.36997  0.88363  0.73923  Biso   1.000  C
  C62      1.0000 0.81715  0.56160  0.81610  Biso   1.000  C
  C63      1.0000 0.81486  0.58881  0.78187  Biso   1.000  C
  C64      1.0000 0.01631  0.57871  0.97387  Biso   1.000  C
  C65      1.0000 0.92948  0.73463  0.92061  Biso   1.000  C
  C66      1.0000 0.97308  0.68813  0.94191  Biso   1.000  C
  C67      1.0000 0.96387  0.63173  0.94993  Biso   1.000  C
  C68      1.0000 0.91150  0.62165  0.93615  Biso   1.000  C
  C69      1.0000 0.26959  0.01900  0.89302  Biso   1.000  C
  C70      1.0000 0.18702  0.96032  0.94184  Biso   1.000  C
  C71      1.0000 0.26155  0.92766  0.92324  Biso   1.000  C
  C72      1.0000 0.81849  0.49728  0.91594  Biso   1.000  C
  C73      1.0000 0.03188  0.69675  0.95829  Biso   1.000  C
  C74      1.0000 0.38439  0.91500  0.88302  Biso   1.000  C
  C75      1.0000 0.83357  0.55561  0.74945  Biso   1.000  C
  C76      1.0000 0.83876  0.49911  0.82477  Biso   1.000  C
  C77      1.0000 0.96666  0.13717  0.00939  Biso   1.000  C
  C78      1.0000 0.59278  0.66555  0.92009  Biso   1.000  C
  C79      1.0000 0.87009  0.66837  0.91385  Biso   1.000  C
  C80      1.0000 0.87987  0.72332  0.90694  Biso   1.000  C
  C81      1.0000 0.85176  0.91148  0.88560  Biso   1.000  C
  C82      1.0000 0.88336  0.69981  0.62507  Biso   1.000  C
  C83      1.0000 0.90746  0.35305  0.27863  Biso   1.000  C
  C84      1.0000 0.74139  0.90063  0.43279  Biso   1.000  C
  C85      1.0000 0.84218  0.45513  0.40031  Biso   1.000  C
  C86      1.0000 0.22762  0.49414  0.37262  Biso   1.000  C
  C87      1.0000 0.86490  0.89340  0.43000  Biso   1.000  C
  C88      1.0000 0.50732  0.31258  0.16578  Biso   1.000  C
  C89      1.0000 0.76172  0.83938  0.44278  Biso   1.000  C
  C90      1.0000 0.91780  0.18920  0.45280  Biso   1.000  C
  C91      1.0000 0.61120  0.49199  0.39001  Biso   1.000  C
  C92      1.0000 0.54654  0.60432  0.40760  Biso   1.000  C
  C93      1.0000 0.88763  0.83139  0.43955  Biso   1.000  C
  C94      1.0000 0.53662  0.43872  0.37964  Biso   1.000  C
  C95      1.0000 0.97060  0.19608  0.47332  Biso   1.000  C
  C96      1.0000 0.46763  0.49114  0.38720  Biso   1.000  C
  C97      1.0000 0.83839  0.55385  0.41217  Biso   1.000  C
  C98      1.0000 0.12337  0.54408  0.42198  Biso   1.000  C
  C99      1.0000 0.88431  0.52224  0.43714  Biso   1.000  C
  C100     1.0000 0.83034  0.22183  0.41389  Biso   1.000  C
  C101     1.0000 0.01425  0.59134  0.46830  Biso   1.000  C
  C102     1.0000 0.58245  0.29015  0.21335  Biso   1.000  C
  C103     1.0000 0.79865  0.65699  0.62271  Biso   1.000  C
  C104     1.0000 0.93140  0.63686  0.46954  Biso   1.000  C
  C105     1.0000 0.26968  0.46016  0.39808  Biso   1.000  C
  C106     1.0000 0.60201  0.43949  0.38129  Biso   1.000  C
  C107     1.0000 0.16403  0.50943  0.44691  Biso   1.000  C
  C108     1.0000 0.82694  0.64792  0.58640  Biso   1.000  C
  C109     1.0000 0.92854  0.70152  0.45660  Biso   1.000  C
  C110     1.0000 0.83477  0.80512  0.44594  Biso   1.000  C
  C111     1.0000 0.89561  0.61569  0.44625  Biso   1.000  C
  C112     1.0000 0.87878  0.23341  0.43063  Biso   1.000  C
  C113     1.0000 0.51484  0.31485  0.20487  Biso   1.000  C
  C114     1.0000 0.88396  0.66530  0.56758  Biso   1.000  C
  C115     1.0000 0.86036  0.11868  0.44460  Biso   1.000  C
  C116     1.0000 0.51826  0.32264  0.27504  Biso   1.000  C
  C117     1.0000 0.36702  0.37493  0.22263  Biso   1.000  C
  C118     1.0000 0.15452  0.53647  0.38429  Biso   1.000  C
  C119     1.0000 0.89854  0.29666  0.22026  Biso   1.000  C
  C120     1.0000 0.58578  0.29393  0.24911  Biso   1.000  C
  C121     1.0000 0.44753  0.34826  0.26668  Biso   1.000  C
  C122     1.0000 0.79828  0.69263  0.68281  Biso   1.000  C
  C123     1.0000 0.91397  0.69285  0.58621  Biso   1.000  C
  C124     1.0000 0.23785  0.46728  0.43502  Biso   1.000  C
  C125     1.0000 0.82523  0.68377  0.64257  Biso   1.000  C
  C126     1.0000 0.85707  0.32569  0.28297  Biso   1.000  C
  C127     1.0000 0.85194  0.29724  0.25488  Biso   1.000  C
  C128     1.0000 0.93393  0.89014  0.30380  Biso   1.000  C
  C129     1.0000 0.95880  0.94988  0.22512  Biso   1.000  C
  C130     1.0000 0.44549  0.34451  0.23151  Biso   1.000  C
  C131     1.0000 0.89609  0.98942  0.26040  Biso   1.000  C
  C132     1.0000 0.88300  0.96340  0.29840  Biso   1.000  C
  C133     1.0000 0.79158  0.92869  0.42595  Biso   1.000  C
  C134     1.0000 0.90980  0.13279  0.45901  Biso   1.000  C
  C135     1.0000 0.95480  0.07490  0.48290  Biso   1.000  C
  C136     1.0000 0.54510  0.54270  0.39730  Biso   1.000  C
  C137     1.0000 0.47370  0.54520  0.39480  Biso   1.000  C
  C138     1.0000 0.39649  0.60722  0.40060  Biso   1.000  C
  C139     1.0000 0.95293  0.35244  0.24470  Biso   1.000  C
  C140     1.0000 0.94655  0.32403  0.21607  Biso   1.000  C
  C141     1.0000 0.00003  0.32388  0.17806  Biso   1.000  C
  C142     1.0000 0.00717  0.38363  0.23923  Biso   1.000  C
  C143     1.0000 0.80515  0.06160  0.31610  Biso   1.000  C
  C144     1.0000 0.81446  0.08881  0.28187  Biso   1.000  C
  C145     1.0000 0.43111  0.07871  0.47387  Biso   1.000  C
  C146     1.0000 0.41528  0.23463  0.42061  Biso   1.000  C
  C147     1.0000 0.39688  0.18813  0.44191  Biso   1.000  C
  C148     1.0000 0.45447  0.13173  0.44993  Biso   1.000  C
  C149     1.0000 0.53070  0.12165  0.43615  Biso   1.000  C
  C150     1.0000 0.81839  0.51900  0.39302  Biso   1.000  C
  C151     1.0000 0.91082  0.46032  0.44184  Biso   1.000  C
  C152     1.0000 0.88755  0.42766  0.42324  Biso   1.000  C
  C153     1.0000 0.76829  0.99728  0.41594  Biso   1.000  C
  C154     1.0000 0.31308  0.19675  0.45829  Biso   1.000  C
  C155     1.0000 0.81759  0.41500  0.38302  Biso   1.000  C
  C156     1.0000 0.86137  0.05561  0.24945  Biso   1.000  C
  C157     1.0000 0.83736  0.99911  0.32477  Biso   1.000  C
  C158     1.0000 0.88678  0.63717  0.50939  Biso   1.000  C
  C159     1.0000 0.82158  0.16555  0.42009  Biso   1.000  C
  C160     1.0000 0.54769  0.16837  0.41385  Biso   1.000  C
  C161     1.0000 0.48987  0.22332  0.40694  Biso   1.000  C
  C162     1.0000 0.35116  0.41148  0.38560  Biso   1.000  C
  N1       1.0000 0.81747  0.77198  0.76596  Biso   1.000  N
  N2       1.0000 0.79558  0.78668  0.80146  Biso   1.000  N
  N3       1.0000 0.83547  0.81729  0.80733  Biso   1.000  N
  N4       1.0000 0.83291  0.75808  0.88490  Biso   1.000  N
  N5       1.0000 0.79672  0.72542  0.87910  Biso   1.000  N
  N6       1.0000 0.81821  0.67002  0.89696  Biso   1.000  N
  N7       1.0000 0.66021  0.66829  0.90049  Biso   1.000  N
  N8       1.0000 0.63999  0.72514  0.88248  Biso   1.000  N
  N9       1.0000 0.56403  0.75744  0.89030  Biso   1.000  N
  N10      1.0000 0.56294  0.81837  0.81335  Biso   1.000  N
  N11      1.0000 0.63899  0.78688  0.80396  Biso   1.000  N
  N12      1.0000 0.66071  0.77373  0.76795  Biso   1.000  N
  N13      1.0000 0.58641  0.88216  0.87240  Biso   1.000  N
  N14      1.0000 0.66150  0.84924  0.86496  Biso   1.000  N
  N15      1.0000 0.69843  0.88228  0.86958  Biso   1.000  N
  N16      1.0000 0.78918  0.65277  0.78309  Biso   1.000  N
  N17      1.0000 0.77617  0.66111  0.81957  Biso   1.000  N
  N18      1.0000 0.79071  0.60790  0.84036  Biso   1.000  N
  N19      1.0000 0.64459  0.27198  0.26596  Biso   1.000  N
  N20      1.0000 0.61628  0.28668  0.30146  Biso   1.000  N
  N21      1.0000 0.53991  0.31729  0.30733  Biso   1.000  N
  N22      1.0000 0.52411  0.25808  0.38490  Biso   1.000  N
  N23      1.0000 0.59876  0.22542  0.37910  Biso   1.000  N
  N24      1.0000 0.61481  0.17002  0.39696  Biso   1.000  N
  N25      1.0000 0.77101  0.16829  0.40049  Biso   1.000  N
  N26      1.0000 0.75239  0.22514  0.38248  Biso   1.000  N
  N27      1.0000 0.78823  0.25744  0.39030  Biso   1.000  N
  N28      1.0000 0.80534  0.31837  0.31335  Biso   1.000  N
  N29      1.0000 0.77017  0.28688  0.30396  Biso   1.000  N
  N30      1.0000 0.79761  0.27373  0.26795  Biso   1.000  N
  N31      1.0000 0.65903  0.38216  0.37240  Biso   1.000  N
  N32      1.0000 0.62430  0.34924  0.36496  Biso   1.000  N
  N33      1.0000 0.54971  0.38228  0.36958  Biso   1.000  N
  N34      1.0000 0.77496  0.15277  0.28309  Biso   1.000  N
  N35      1.0000 0.74315  0.16111  0.31957  Biso   1.000  N
  N36      1.0000 0.76103  0.10790  0.34036  Biso   1.000  N
  O1       1.0000 0.75906  0.21848  0.19750  Biso   1.000  O
  O2       1.0000 0.87882  0.17627  0.19889  Biso   1.000  O
  O3       1.0000 0.41250  0.86296  0.89164  Biso   1.000  O
  O4       1.0000 0.41418  0.94298  0.85586  Biso   1.000  O
  O5       1.0000 0.86050  0.90524  0.85378  Biso   1.000  O
  O6       1.0000 0.82127  0.88193  0.91013  Biso   1.000  O
  O7       1.0000 0.86044  0.52702  0.90930  Biso   1.000  O
  O8       1.0000 0.75345  0.52232  0.91138  Biso   1.000  O
  O9       1.0000 0.93233  0.08652  0.92984  Biso   1.000  O
  O10      1.0000 0.89207  0.15898  0.03070  Biso   1.000  O
  O11      1.0000 0.94920  0.24208  0.95644  Biso   1.000  O
  O12      1.0000 0.08307  0.05220  0.95622  Biso   1.000  O
  O13      1.0000 0.82496  0.71848  0.69750  Biso   1.000  O
  O14      1.0000 0.74602  0.67627  0.69889  Biso   1.000  O
  O15      1.0000 0.83290  0.36296  0.39164  Biso   1.000  O
  O16      1.0000 0.78698  0.44298  0.35586  Biso   1.000  O
  O17      1.0000 0.38048  0.40524  0.35378  Biso   1.000  O
  O18      1.0000 0.38667  0.38193  0.41013  Biso   1.000  O
  O19      1.0000 0.70324  0.02702  0.40930  Biso   1.000  O
  O20      1.0000 0.81285  0.02232  0.41138  Biso   1.000  O
  O21      1.0000 0.05131  0.58652  0.42984  Biso   1.000  O
  O22      1.0000 0.91825  0.65898  0.53070  Biso   1.000  O
  O23      1.0000 0.85228  0.74208  0.45644  Biso   1.000  O
  O24      1.0000 0.90851  0.55220  0.45622  Biso   1.000  O
  Zn11     1.0000 0.51572  0.65590  0.63972  Biso   1.000  Zn
  Zn12     1.0000 0.31644  0.74501  0.65735  Biso   1.000  Zn
  Zn13     1.0000 0.22749  0.65779  0.63377  Biso   1.000  Zn
  Zn14     1.0000 0.24249  0.77532  0.75222  Biso   1.000  Zn
  Zn15     1.0000 0.27611  0.89068  0.60304  Biso   1.000  Zn
  Zn16     1.0000 0.18866  0.15590  0.13972  Biso   1.000  Zn
  Zn17     1.0000 0.28120  0.24501  0.15735  Biso   1.000  Zn
  Zn18     1.0000 0.48095  0.15779  0.13377  Biso   1.000  Zn
  Zn19     1.0000 0.22997  0.27532  0.25222  Biso   1.000  Zn
  Zn20     1.0000 0.23017  0.39068  0.10304  Biso   1.000  Zn
  H145     1.0000 0.09640  0.28450  0.36170  Biso   1.000  H
  H146     1.0000 0.08990  0.62890  0.70210  Biso   1.000  H
  H147     1.0000 0.30730  0.07540  0.56960  Biso   1.000  H
  H148     1.0000 0.75150  0.51160  0.65200  Biso   1.000  H
  H149     1.0000 0.10200  0.08780  0.57380  Biso   1.000  H
  H150     1.0000 0.44400  0.70330  0.85010  Biso   1.000  H
  H151     1.0000 0.52160  0.64630  0.84250  Biso   1.000  H
  H152     1.0000 0.51720  0.71400  0.83420  Biso   1.000  H
  H153     1.0000 0.27200  0.17890  0.55270  Biso   1.000  H
  H154     1.0000 0.34320  0.50860  0.60940  Biso   1.000  H
  H155     1.0000 0.50350  0.36490  0.58570  Biso   1.000  H
  H156     1.0000 0.42590  0.38020  0.61280  Biso   1.000  H
  H157     1.0000 0.43000  0.40480  0.57240  Biso   1.000  H
  H158     1.0000 0.06370  0.19280  0.55820  Biso   1.000  H
  H159     1.0000 0.02810  0.76370  0.53250  Biso   1.000  H
  H160     1.0000 0.98000  0.83570  0.53390  Biso   1.000  H
  H161     1.0000 0.04760  0.80810  0.50110  Biso   1.000  H
  H162     1.0000 0.57760  0.50980  0.61280  Biso   1.000  H
  H163     1.0000 0.17830  0.40320  0.59160  Biso   1.000  H
  H164     1.0000 0.96320  0.39230  0.51870  Biso   1.000  H
  H165     1.0000 0.98240  0.44900  0.52100  Biso   1.000  H
  H166     1.0000 0.37420  0.72890  0.80410  Biso   1.000  H
  H167     1.0000 0.23960  0.35510  0.36550  Biso   1.000  H
  H168     1.0000 0.85740  0.48590  0.52850  Biso   1.000  H
  H169     1.0000 0.19250  0.37020  0.42580  Biso   1.000  H
  H170     1.0000 0.05360  0.28330  0.52730  Biso   1.000  H
  H171     1.0000 0.04020  0.30000  0.56760  Biso   1.000  H
  H172     1.0000 0.15750  0.35860  0.54960  Biso   1.000  H
  H173     1.0000 0.08230  0.38040  0.57920  Biso   1.000  H
  H174     1.0000 0.11680  0.72860  0.57380  Biso   1.000  H
  H175     1.0000 0.14610  0.91830  0.54930  Biso   1.000  H
  H176     1.0000 0.67060  0.61220  0.75540  Biso   1.000  H
  H177     1.0000 0.64040  0.65480  0.78860  Biso   1.000  H
  H178     1.0000 0.63650  0.58960  0.79360  Biso   1.000  H
  H179     1.0000 0.87380  0.44040  0.63240  Biso   1.000  H
  H180     1.0000 0.10360  0.72180  0.79900  Biso   1.000  H
  H181     1.0000 0.59580  0.63320  0.71580  Biso   1.000  H
  H182     1.0000 0.04860  0.29410  0.42590  Biso   1.000  H
  H183     1.0000 0.73420  0.55620  0.54820  Biso   1.000  H
  H184     1.0000 0.08280  0.12400  0.67220  Biso   1.000  H
  H185     1.0000 0.01500  0.11600  0.69980  Biso   1.000  H
  H186     1.0000 0.07010  0.13290  0.71350  Biso   1.000  H
  H187     1.0000 0.04050  0.02210  0.79570  Biso   1.000  H
  H188     1.0000 0.05430  0.08190  0.77990  Biso   1.000  H
  H189     1.0000 0.99280  0.06900  0.76940  Biso   1.000  H
  H190     1.0000 0.06040  0.95820  0.51660  Biso   1.000  H
  H191     1.0000 0.05560  0.91230  0.49290  Biso   1.000  H
  H192     1.0000 0.99270  0.93900  0.52760  Biso   1.000  H
  H193     1.0000 0.59420  0.35830  0.59510  Biso   1.000  H
  H194     1.0000 0.63880  0.39960  0.57900  Biso   1.000  H
  H195     1.0000 0.62330  0.38350  0.62070  Biso   1.000  H
  H196     1.0000 0.01060  0.69500  0.83900  Biso   1.000  H
  H197     1.0000 0.94910  0.69940  0.82000  Biso   1.000  H
  H198     1.0000 0.00760  0.63420  0.83000  Biso   1.000  H
  H199     1.0000 0.99670  0.60100  0.73820  Biso   1.000  H
  H200     1.0000 0.00500  0.58240  0.77820  Biso   1.000  H
  H201     1.0000 0.94270  0.64620  0.76940  Biso   1.000  H
  H202     1.0000 0.62210  0.90460  0.51740  Biso   1.000  H
  H203     1.0000 0.54530  0.93460  0.50600  Biso   1.000  H
  H204     1.0000 0.55310  0.95620  0.54080  Biso   1.000  H
  H205     1.0000 0.62200  0.72750  0.58430  Biso   1.000  H
  H206     1.0000 0.43140  0.91520  0.55820  Biso   1.000  H
  H207     1.0000 0.21010  0.46150  0.62410  Biso   1.000  H
  H208     1.0000 0.05640  0.56070  0.54310  Biso   1.000  H
  H209     1.0000 0.09530  0.61530  0.57290  Biso   1.000  H
  H210     1.0000 0.72010  0.76250  0.54850  Biso   1.000  H
  H211     1.0000 0.69560  0.80800  0.51580  Biso   1.000  H
  H212     1.0000 0.69570  0.83430  0.55090  Biso   1.000  H
  H213     1.0000 0.13180  0.92710  0.77390  Biso   1.000  H
  H214     1.0000 0.17290  0.01690  0.65170  Biso   1.000  H
  H215     1.0000 0.10930  0.40450  0.48230  Biso   1.000  H
  H216     1.0000 0.16550  0.33550  0.48870  Biso   1.000  H
  H217     1.0000 0.25740  0.78450  0.86170  Biso   1.000  H
  H218     1.0000 0.57910  0.12890  0.20210  Biso   1.000  H
  H219     1.0000 0.04770  0.57540  0.06960  Biso   1.000  H
  H220     1.0000 0.08490  0.01160  0.15200  Biso   1.000  H
  H221     1.0000 0.23640  0.58780  0.07380  Biso   1.000  H
  H222     1.0000 0.00260  0.20330  0.35010  Biso   1.000  H
  H223     1.0000 0.98960  0.14630  0.34250  Biso   1.000  H
  H224     1.0000 0.93460  0.21400  0.33420  Biso   1.000  H
  H225     1.0000 0.99640  0.67890  0.05270  Biso   1.000  H
  H226     1.0000 0.53880  0.00860  0.10940  Biso   1.000  H
  H227     1.0000 0.54590  0.86490  0.08570  Biso   1.000  H
  H228     1.0000 0.58110  0.88020  0.11280  Biso   1.000  H
  H229     1.0000 0.59280  0.90480  0.07240  Biso   1.000  H
  H230     1.0000 0.18530  0.69280  0.05820  Biso   1.000  H
  H231     1.0000 0.67570  0.26370  0.03250  Biso   1.000  H
  H232     1.0000 0.65040  0.33570  0.03390  Biso   1.000  H
  H233     1.0000 0.64320  0.30810  0.00110  Biso   1.000  H
  H234     1.0000 0.29980  0.00980  0.11280  Biso   1.000  H
  H235     1.0000 0.82690  0.90320  0.09160  Biso   1.000  H
  H236     1.0000 0.12580  0.89230  0.01870  Biso   1.000  H
  H237     1.0000 0.04760  0.94900  0.02100  Biso   1.000  H
  H238     1.0000 0.09280  0.22890  0.30410  Biso   1.000  H
  H239     1.0000 0.03980  0.85510  0.86550  Biso   1.000  H
  H240     1.0000 0.12820  0.98590  0.02850  Biso   1.000  H
  H241     1.0000 0.01150  0.87020  0.92580  Biso   1.000  H
  H242     1.0000 0.13580  0.78330  0.02730  Biso   1.000  H
  H243     1.0000 0.09220  0.80000  0.06760  Biso   1.000  H
  H244     1.0000 0.93430  0.85860  0.04960  Biso   1.000  H
  H245     1.0000 0.95810  0.88040  0.07920  Biso   1.000  H
  H246     1.0000 0.58080  0.22860  0.07380  Biso   1.000  H
  H247     1.0000 0.38630  0.41830  0.04930  Biso   1.000  H
  H248     1.0000 0.96180  0.11220  0.25540  Biso   1.000  H
  H249     1.0000 0.91620  0.15480  0.28860  Biso   1.000  H
  H250     1.0000 0.98030  0.08960  0.29360  Biso   1.000  H
  H251     1.0000 0.05340  0.94040  0.13240  Biso   1.000  H
  H252     1.0000 0.37560  0.22180  0.29900  Biso   1.000  H
  H253     1.0000 0.05520  0.13320  0.21580  Biso   1.000  H
  H254     1.0000 0.23140  0.79410  0.92590  Biso   1.000  H
  H255     1.0000 0.16140  0.05620  0.04820  Biso   1.000  H
  H256     1.0000 0.12100  0.62400  0.17220  Biso   1.000  H
  H257     1.0000 0.16920  0.61600  0.19980  Biso   1.000  H
  H258     1.0000 0.08350  0.63290  0.21350  Biso   1.000  H
  H259     1.0000 0.14170  0.52210  0.29570  Biso   1.000  H
  H260     1.0000 0.08390  0.58190  0.27990  Biso   1.000  H
  H261     1.0000 0.16880  0.56900  0.26940  Biso   1.000  H
  H262     1.0000 0.46480  0.45820  0.01660  Biso   1.000  H
  H263     1.0000 0.53920  0.41230  0.99290  Biso   1.000  H
  H264     1.0000 0.54070  0.43900  0.02760  Biso   1.000  H
  H265     1.0000 0.45240  0.85830  0.09510  Biso   1.000  H
  H266     1.0000 0.38260  0.89960  0.07900  Biso   1.000  H
  H267     1.0000 0.37250  0.88350  0.12070  Biso   1.000  H
  H268     1.0000 0.45540  0.19500  0.33900  Biso   1.000  H
  H269     1.0000 0.53150  0.19940  0.32000  Biso   1.000  H
  H270     1.0000 0.52820  0.13420  0.33000  Biso   1.000  H
  H271     1.0000 0.66410  0.10100  0.23820  Biso   1.000  H
  H272     1.0000 0.63440  0.08240  0.27820  Biso   1.000  H
  H273     1.0000 0.64170  0.14620  0.26940  Biso   1.000  H
  H274     1.0000 0.95590  0.40460  0.01740  Biso   1.000  H
  H275     1.0000 0.01410  0.43460  0.00600  Biso   1.000  H
  H276     1.0000 0.94990  0.45620  0.04080  Biso   1.000  H
  H277     1.0000 0.06620  0.22750  0.08430  Biso   1.000  H
  H278     1.0000 0.09520  0.41520  0.05820  Biso   1.000  H
  H279     1.0000 0.70430  0.96150  0.12410  Biso   1.000  H
  H280     1.0000 0.83980  0.06070  0.04310  Biso   1.000  H
  H281     1.0000 0.71650  0.11530  0.07290  Biso   1.000  H
  H282     1.0000 0.96890  0.26250  0.04850  Biso   1.000  H
  H283     1.0000 0.98060  0.30800  0.01580  Biso   1.000  H
  H284     1.0000 0.91910  0.33430  0.05090  Biso   1.000  H
  H285     1.0000 0.16720  0.42710  0.27390  Biso   1.000  H
  H286     1.0000 0.15850  0.51690  0.15170  Biso   1.000  H
  H287     1.0000 0.00390  0.90450  0.98230  Biso   1.000  H
  H288     1.0000 0.01030  0.83550  0.98870  Biso   1.000  H
  C163     1.0000 0.11664  0.30019  0.37493  Biso   1.000  C
  C164     1.0000 0.09254  0.64695  0.72137  Biso   1.000  C
  C165     1.0000 0.25861  0.09937  0.56721  Biso   1.000  C
  C166     1.0000 0.15782  0.54487  0.59969  Biso   1.000  C
  C167     1.0000 0.77238  0.50586  0.62738  Biso   1.000  C
  C168     1.0000 0.13510  0.10660  0.57000  Biso   1.000  C
  C169     1.0000 0.49268  0.68742  0.83422  Biso   1.000  C
  C170     1.0000 0.23828  0.16062  0.55722  Biso   1.000  C
  C171     1.0000 0.08220  0.81080  0.54720  Biso   1.000  C
  C172     1.0000 0.38880  0.50801  0.60999  Biso   1.000  C
  C173     1.0000 0.45346  0.39568  0.59240  Biso   1.000  C
  C174     1.0000 0.11237  0.16861  0.56045  Biso   1.000  C
  C175     1.0000 0.46338  0.56128  0.62036  Biso   1.000  C
  C176     1.0000 0.02940  0.80392  0.52668  Biso   1.000  C
  C177     1.0000 0.53237  0.50886  0.61280  Biso   1.000  C
  C178     1.0000 0.16161  0.44615  0.58783  Biso   1.000  C
  C179     1.0000 0.87663  0.45592  0.57802  Biso   1.000  C
  C180     1.0000 0.11569  0.47776  0.56286  Biso   1.000  C
  C181     1.0000 0.16966  0.77817  0.58611  Biso   1.000  C
  C182     1.0000 0.98575  0.40866  0.53170  Biso   1.000  C
  C183     1.0000 0.41755  0.70985  0.78665  Biso   1.000  C
  C184     1.0000 0.20135  0.34301  0.37729  Biso   1.000  C
  C185     1.0000 0.06860  0.36314  0.53046  Biso   1.000  C
  C186     1.0000 0.73032  0.53984  0.60192  Biso   1.000  C
  C187     1.0000 0.39799  0.56051  0.61871  Biso   1.000  C
  C188     1.0000 0.83597  0.49057  0.55309  Biso   1.000  C
  C189     1.0000 0.17306  0.35208  0.41360  Biso   1.000  C
  C190     1.0000 0.07146  0.29848  0.54340  Biso   1.000  C
  C191     1.0000 0.16523  0.19488  0.55406  Biso   1.000  C
  C192     1.0000 0.10439  0.38431  0.55375  Biso   1.000  C
  C193     1.0000 0.12122  0.76659  0.56937  Biso   1.000  C
  C194     1.0000 0.48516  0.68515  0.79513  Biso   1.000  C
  C195     1.0000 0.11604  0.33470  0.43242  Biso   1.000  C
  C196     1.0000 0.13964  0.88132  0.55540  Biso   1.000  C
  C197     1.0000 0.48174  0.67736  0.72496  Biso   1.000  C
  C198     1.0000 0.63298  0.62507  0.77737  Biso   1.000  C
  C199     1.0000 0.84548  0.46353  0.61571  Biso   1.000  C
  C200     1.0000 0.10146  0.70334  0.77974  Biso   1.000  C
  C201     1.0000 0.41422  0.70607  0.75089  Biso   1.000  C
  C202     1.0000 0.55247  0.65174  0.73332  Biso   1.000  C
  C203     1.0000 0.20172  0.30737  0.31719  Biso   1.000  C
  C204     1.0000 0.08603  0.30715  0.41379  Biso   1.000  C
  C205     1.0000 0.76215  0.53272  0.56498  Biso   1.000  C
  C206     1.0000 0.17477  0.31623  0.35743  Biso   1.000  C
  C207     1.0000 0.14293  0.67431  0.71703  Biso   1.000  C
  C208     1.0000 0.14806  0.70276  0.74512  Biso   1.000  C
  C209     1.0000 0.06607  0.10986  0.69620  Biso   1.000  C
  C210     1.0000 0.04120  0.05012  0.77488  Biso   1.000  C
  C211     1.0000 0.55451  0.65549  0.76849  Biso   1.000  C
  C212     1.0000 0.10391  0.01058  0.73960  Biso   1.000  C
  C213     1.0000 0.11700  0.03660  0.70160  Biso   1.000  C
  C214     1.0000 0.20842  0.07131  0.57405  Biso   1.000  C
  C215     1.0000 0.09020  0.86721  0.54099  Biso   1.000  C
  C216     1.0000 0.04520  0.92510  0.51710  Biso   1.000  C
  C217     1.0000 0.45490  0.45730  0.60270  Biso   1.000  C
  C218     1.0000 0.52630  0.45480  0.60520  Biso   1.000  C
  C219     1.0000 0.60351  0.39278  0.59940  Biso   1.000  C
  C220     1.0000 0.04707  0.64756  0.75530  Biso   1.000  C
  C221     1.0000 0.05345  0.67597  0.78393  Biso   1.000  C
  C222     1.0000 0.99997  0.67612  0.82194  Biso   1.000  C
  C223     1.0000 0.99283  0.61637  0.76077  Biso   1.000  C
  C224     1.0000 0.19485  0.93840  0.68390  Biso   1.000  C
  C225     1.0000 0.18554  0.91119  0.71813  Biso   1.000  C
  C226     1.0000 0.56889  0.92129  0.52613  Biso   1.000  C
  C227     1.0000 0.58472  0.76537  0.57939  Biso   1.000  C
  C228     1.0000 0.60312  0.81187  0.55809  Biso   1.000  C
  C229     1.0000 0.54553  0.86827  0.55007  Biso   1.000  C
  C230     1.0000 0.46930  0.87835  0.56385  Biso   1.000  C
  C231     1.0000 0.18161  0.48100  0.60698  Biso   1.000  C
  C232     1.0000 0.08918  0.53968  0.55816  Biso   1.000  C
  C233     1.0000 0.11245  0.57234  0.57676  Biso   1.000  C
  C234     1.0000 0.23171  0.00272  0.58406  Biso   1.000  C
  C235     1.0000 0.68692  0.80325  0.54171  Biso   1.000  C
  C236     1.0000 0.18241  0.58500  0.61698  Biso   1.000  C
  C237     1.0000 0.13863  0.94439  0.75055  Biso   1.000  C
  C238     1.0000 0.16264  0.00089  0.67523  Biso   1.000  C
  C239     1.0000 0.11322  0.36283  0.49061  Biso   1.000  C
  C240     1.0000 0.17842  0.83445  0.57991  Biso   1.000  C
  C241     1.0000 0.45231  0.83163  0.58615  Biso   1.000  C
  C242     1.0000 0.51013  0.77668  0.59306  Biso   1.000  C
  C243     1.0000 0.64884  0.58852  0.61440  Biso   1.000  C
  C244     1.0000 0.20824  0.80019  0.87493  Biso   1.000  C
  C245     1.0000 0.53914  0.14695  0.22137  Biso   1.000  C
  C246     1.0000 0.07481  0.59937  0.06721  Biso   1.000  C
  C247     1.0000 0.69762  0.04487  0.09969  Biso   1.000  C
  C248     1.0000 0.09438  0.00586  0.12738  Biso   1.000  C
  C249     1.0000 0.18830  0.60660  0.07000  Biso   1.000  C
  C250     1.0000 0.98568  0.18742  0.33422  Biso   1.000  C
  C251     1.0000 0.04388  0.66062  0.05722  Biso   1.000  C
  C252     1.0000 0.55980  0.31080  0.04720  Biso   1.000  C
  C253     1.0000 0.49320  0.00801  0.10999  Biso   1.000  C
  C254     1.0000 0.55846  0.89568  0.09240  Biso   1.000  C
  C255     1.0000 0.15857  0.66861  0.06045  Biso   1.000  C
  C256     1.0000 0.35498  0.06128  0.12036  Biso   1.000  C
  C257     1.0000 0.64000  0.30392  0.02668  Biso   1.000  C
  C258     1.0000 0.34597  0.00886  0.11280  Biso   1.000  C
  C259     1.0000 0.80441  0.94615  0.08783  Biso   1.000  C
  C260     1.0000 0.08943  0.95592  0.07802  Biso   1.000  C
  C261     1.0000 0.84369  0.97776  0.06286  Biso   1.000  C
  C262     1.0000 0.46606  0.27817  0.08611  Biso   1.000  C
  C263     1.0000 0.07389  0.90866  0.03170  Biso   1.000  C
  C264     1.0000 0.08595  0.20985  0.28665  Biso   1.000  C
  C265     1.0000 0.07835  0.84301  0.87729  Biso   1.000  C
  C266     1.0000 0.03780  0.86314  0.03046  Biso   1.000  C
  C267     1.0000 0.12792  0.03984  0.10192  Biso   1.000  C
  C268     1.0000 0.42279  0.06051  0.11871  Biso   1.000  C
  C269     1.0000 0.12037  0.99057  0.05309  Biso   1.000  C
  C270     1.0000 0.06126  0.85208  0.91360  Biso   1.000  C
  C271     1.0000 0.08666  0.79848  0.04340  Biso   1.000  C
  C272     1.0000 0.08583  0.69488  0.05406  Biso   1.000  C
  C273     1.0000 0.95755  0.88431  0.05375  Biso   1.000  C
  C274     1.0000 0.54282  0.26659  0.06937  Biso   1.000  C
  C275     1.0000 0.03456  0.18515  0.29513  Biso   1.000  C
  C276     1.0000 0.11684  0.83470  0.93242  Biso   1.000  C
  C277     1.0000 0.42364  0.38132  0.05540  Biso   1.000  C
  C278     1.0000 0.11594  0.17736  0.22496  Biso   1.000  C
  C279     1.0000 0.96458  0.12507  0.27737  Biso   1.000  C
  C280     1.0000 0.07528  0.96353  0.11571  Biso   1.000  C
  C281     1.0000 0.41546  0.20334  0.27974  Biso   1.000  C
  C282     1.0000 0.12882  0.20607  0.25089  Biso   1.000  C
  C283     1.0000 0.06247  0.15174  0.23332  Biso   1.000  C
  C284     1.0000 0.17372  0.80737  0.81719  Biso   1.000  C
  C285     1.0000 0.19303  0.80715  0.91379  Biso   1.000  C
  C286     1.0000 0.14015  0.03272  0.06498  Biso   1.000  C
  C287     1.0000 0.15157  0.81623  0.85743  Biso   1.000  C
  C288     1.0000 0.46573  0.17431  0.21703  Biso   1.000  C
  C289     1.0000 0.40406  0.20276  0.24512  Biso   1.000  C
  C290     1.0000 0.12787  0.60986  0.19620  Biso   1.000  C
  C291     1.0000 0.13380  0.55012  0.27488  Biso   1.000  C
  C292     1.0000 0.02151  0.15549  0.26849  Biso   1.000  C
  C293     1.0000 0.14591  0.51058  0.23960  Biso   1.000  C
  C294     1.0000 0.14480  0.53660  0.20160  Biso   1.000  C
  C295     1.0000 0.14622  0.57131  0.07405  Biso   1.000  C
  C296     1.0000 0.50160  0.36721  0.04099  Biso   1.000  C
  C297     1.0000 0.51260  0.42510  0.01710  Biso   1.000  C
  C298     1.0000 0.48510  0.95730  0.10270  Biso   1.000  C
  C299     1.0000 0.41370  0.95480  0.10520  Biso   1.000  C
  C300     1.0000 0.40431  0.89278  0.09940  Biso   1.000  C
  C301     1.0000 0.55007  0.14756  0.25530  Biso   1.000  C
  C302     1.0000 0.48665  0.17597  0.28393  Biso   1.000  C
  C303     1.0000 0.50197  0.17612  0.32194  Biso   1.000  C
  C304     1.0000 0.63003  0.11637  0.26077  Biso   1.000  C
  C305     1.0000 0.18285  0.43840  0.18390  Biso   1.000  C
  C306     1.0000 0.18514  0.41119  0.21813  Biso   1.000  C
  C307     1.0000 0.98369  0.42129  0.02613  Biso   1.000  C
  C308     1.0000 0.07052  0.26537  0.07939  Biso   1.000  C
  C309     1.0000 0.02692  0.31187  0.05809  Biso   1.000  C
  C310     1.0000 0.03613  0.36827  0.05007  Biso   1.000  C
  C311     1.0000 0.08850  0.37835  0.06385  Biso   1.000  C
  C312     1.0000 0.73041  0.98100  0.10698  Biso   1.000  C
  C313     1.0000 0.81298  0.03968  0.05816  Biso   1.000  C
  C314     1.0000 0.73845  0.07234  0.07676  Biso   1.000  C
  C315     1.0000 0.18151  0.50272  0.08406  Biso   1.000  C
  C316     1.0000 0.96812  0.30325  0.04171  Biso   1.000  C
  C317     1.0000 0.61561  0.08500  0.11698  Biso   1.000  C
  C318     1.0000 0.16643  0.44439  0.25055  Biso   1.000  C
  C319     1.0000 0.16124  0.50089  0.17523  Biso   1.000  C
  C320     1.0000 0.03334  0.86283  0.99061  Biso   1.000  C
  C321     1.0000 0.40722  0.33445  0.07991  Biso   1.000  C
  C322     1.0000 0.12991  0.33163  0.08615  Biso   1.000  C
  C323     1.0000 0.12013  0.27668  0.09306  Biso   1.000  C
  C324     1.0000 0.14824  0.08852  0.11440  Biso   1.000  C
  N37      1.0000 0.35541  0.72802  0.73404  Biso   1.000  N
  N38      1.0000 0.38372  0.71332  0.69854  Biso   1.000  N
  N39      1.0000 0.46009  0.68271  0.69267  Biso   1.000  N
  N40      1.0000 0.47589  0.74192  0.61510  Biso   1.000  N
  N41      1.0000 0.40124  0.77458  0.62090  Biso   1.000  N
  N42      1.0000 0.38519  0.82998  0.60304  Biso   1.000  N
  N43      1.0000 0.22899  0.83171  0.59951  Biso   1.000  N
  N44      1.0000 0.24761  0.77486  0.61752  Biso   1.000  N
  N45      1.0000 0.21177  0.74256  0.60970  Biso   1.000  N
  N46      1.0000 0.19466  0.68163  0.68665  Biso   1.000  N
  N47      1.0000 0.22983  0.71312  0.69604  Biso   1.000  N
  N48      1.0000 0.20239  0.72627  0.73205  Biso   1.000  N
  N49      1.0000 0.34097  0.61784  0.62760  Biso   1.000  N
  N50      1.0000 0.37570  0.65076  0.63504  Biso   1.000  N
  N51      1.0000 0.45029  0.61772  0.63042  Biso   1.000  N
  N52      1.0000 0.22504  0.84723  0.71691  Biso   1.000  N
  N53      1.0000 0.25685  0.83889  0.68043  Biso   1.000  N
  N54      1.0000 0.23897  0.89210  0.65964  Biso   1.000  N
  N55      1.0000 0.18253  0.22802  0.23404  Biso   1.000  N
  N56      1.0000 0.20442  0.21332  0.19854  Biso   1.000  N
  N57      1.0000 0.16453  0.18271  0.19267  Biso   1.000  N
  N58      1.0000 0.16709  0.24192  0.11510  Biso   1.000  N
  N59      1.0000 0.20328  0.27458  0.12090  Biso   1.000  N
  N60      1.0000 0.18179  0.32998  0.10304  Biso   1.000  N
  N61      1.0000 0.33979  0.33171  0.09951  Biso   1.000  N
  N62      1.0000 0.36001  0.27486  0.11752  Biso   1.000  N
  N63      1.0000 0.43597  0.24256  0.10970  Biso   1.000  N
  N64      1.0000 0.43706  0.18163  0.18665  Biso   1.000  N
  N65      1.0000 0.36101  0.21312  0.19604  Biso   1.000  N
  N66      1.0000 0.33929  0.22627  0.23205  Biso   1.000  N
  N67      1.0000 0.41359  0.11784  0.12760  Biso   1.000  N
  N68      1.0000 0.33850  0.15076  0.13504  Biso   1.000  N
  N69      1.0000 0.30157  0.11772  0.13042  Biso   1.000  N
  N70      1.0000 0.21082  0.34723  0.21691  Biso   1.000  N
  N71      1.0000 0.22383  0.33889  0.18043  Biso   1.000  N
  N72      1.0000 0.20929  0.39210  0.15964  Biso   1.000  N
  O25      1.0000 0.17504  0.28152  0.30250  Biso   1.000  O
  O26      1.0000 0.25398  0.32373  0.30111  Biso   1.000  O
  O27      1.0000 0.16710  0.63704  0.60836  Biso   1.000  O
  O28      1.0000 0.21302  0.55702  0.64414  Biso   1.000  O
  O29      1.0000 0.61952  0.59476  0.64622  Biso   1.000  O
  O30      1.0000 0.61333  0.61807  0.58987  Biso   1.000  O
  O31      1.0000 0.29676  0.97298  0.59070  Biso   1.000  O
  O32      1.0000 0.18715  0.97768  0.58862  Biso   1.000  O
  O33      1.0000 0.94869  0.41348  0.57016  Biso   1.000  O
  O34      1.0000 0.08175  0.34102  0.46930  Biso   1.000  O
  O35      1.0000 0.14772  0.25792  0.54356  Biso   1.000  O
  O36      1.0000 0.09149  0.44780  0.54378  Biso   1.000  O
  O37      1.0000 0.24094  0.78152  0.80250  Biso   1.000  O
  O38      1.0000 0.12118  0.82373  0.80111  Biso   1.000  O
  O39      1.0000 0.58750  0.13704  0.10836  Biso   1.000  O
  O40      1.0000 0.58582  0.05702  0.14414  Biso   1.000  O
  O41      1.0000 0.13950  0.09476  0.14622  Biso   1.000  O
  O42      1.0000 0.17873  0.11807  0.08987  Biso   1.000  O
  O43      1.0000 0.13956  0.47298  0.09070  Biso   1.000  O
  O44      1.0000 0.24655  0.47768  0.08862  Biso   1.000  O
  O45      1.0000 0.06767  0.91348  0.07016  Biso   1.000  O
  O46      1.0000 0.10793  0.84102  0.96930  Biso   1.000  O
  O47      1.0000 0.05080  0.75792  0.04356  Biso   1.000  O
  O48      1.0000 0.91693  0.94780  0.04378  Biso   1.000  O
