data_image0
_cell_length_a       24.4238
_cell_length_b       27.1242
_cell_length_c       30.9423
_cell_angle_alpha    115.306
_cell_angle_beta     113.245
_cell_angle_gamma    90

_symmetry_space_group_name_H-M    P 1
_symmetry_int_tables_number       1

loop_
  _symmetry_equiv_pos_as_xyz
  'x, y, z'

loop_
  _atom_site_label
  _atom_site_occupancy
  _atom_site_fract_x
  _atom_site_fract_y
  _atom_site_fract_z
  _atom_site_thermal_displace_type
  _atom_site_B_iso_or_equiv
  _atom_site_type_symbol
  Zn1      1.0000 0.85280  0.93090  0.55140  Biso   1.000  Zn
  Zn2      1.0000 0.81210  0.99820  0.46940  Biso   1.000  Zn
  Zn3      1.0000 0.01120  0.97710  0.63720  Biso   1.000  Zn
  Zn4      1.0000 0.82310  0.78350  0.47160  Biso   1.000  Zn
  Zn5      1.0000 0.76380  0.96400  0.62720  Biso   1.000  Zn
  H1       1.0000 0.68370  0.85350  0.61620  Biso   1.000  H
  H2       1.0000 0.65800  0.75830  0.58880  Biso   1.000  H
  H3       1.0000 0.67850  0.68820  0.52680  Biso   1.000  H
  H4       1.0000 0.74330  0.70850  0.49640  Biso   1.000  H
  H5       1.0000 0.09150  0.06690  0.62200  Biso   1.000  H
  H6       1.0000 0.10200  0.13030  0.58960  Biso   1.000  H
  H7       1.0000 0.02380  0.13380  0.52160  Biso   1.000  H
  H8       1.0000 0.92380  0.08850  0.48580  Biso   1.000  H
  H9       1.0000 0.72990  0.09830  0.49820  Biso   1.000  H
  H10      1.0000 0.67090  0.14470  0.53720  Biso   1.000  H
  H11      1.0000 0.64750  0.13010  0.59120  Biso   1.000  H
  H12      1.0000 0.68280  0.06820  0.61960  Biso   1.000  H
  H13      1.0000 0.10370  0.88160  0.62360  Biso   1.000  H
  H14      1.0000 0.94680  0.71850  0.48580  Biso   1.000  H
  H15      1.0000 0.05530  0.72060  0.51500  Biso   1.000  H
  H16      1.0000 0.12680  0.79890  0.58540  Biso   1.000  H
  H17      1.0000 0.75110  0.73660  0.33680  Biso   1.000  H
  H18      1.0000 0.72170  0.74720  0.26120  Biso   1.000  H
  H19      1.0000 0.72480  0.82470  0.25900  Biso   1.000  H
  H20      1.0000 0.74400  0.91220  0.33660  Biso   1.000  H
  H21      1.0000 0.85370  0.03090  0.75860  Biso   1.000  H
  H22      1.0000 0.93660  0.08290  0.84020  Biso   1.000  H
  H23      1.0000 0.03390  0.09000  0.84540  Biso   1.000  H
  H24      1.0000 0.04840  0.04510  0.76920  Biso   1.000  H
  H25      1.0000 0.72420  0.10100  0.75740  Biso   1.000  H
  H26      1.0000 0.67720  0.12700  0.81680  Biso   1.000  H
  H27      1.0000 0.71490  0.99050  0.83260  Biso   1.000  H
  H28      1.0000 0.71800  0.95610  0.74860  Biso   1.000  H
  H29      1.0000 0.69750  0.17460  0.90880  Biso   1.000  H
  H30      1.0000 0.67160  0.20550  0.97940  Biso   1.000  H
  H31      1.0000 0.63340  0.04770  0.95140  Biso   1.000  H
  H32      1.0000 0.65930  0.01680  0.88100  Biso   1.000  H
  H33      1.0000 0.65440  0.21920  0.03220  Biso   1.000  H
  H34      1.0000 0.68700  0.17990  0.05460  Biso   1.000  H
  H35      1.0000 0.16740  0.98480  0.78840  Biso   1.000  H
  H36      1.0000 0.26440  0.02430  0.86240  Biso   1.000  H
  H37      1.0000 0.29380  0.12520  0.80380  Biso   1.000  H
  H38      1.0000 0.19580  0.09430  0.74420  Biso   1.000  H
  H39      1.0000 0.36430  0.02560  0.89040  Biso   1.000  H
  H40      1.0000 0.46120  0.05500  0.95980  Biso   1.000  H
  H41      1.0000 0.46670  0.20820  0.97080  Biso   1.000  H
  H42      1.0000 0.36980  0.17880  0.90140  Biso   1.000  H
  H43      1.0000 0.53360  0.18650  0.06500  Biso   1.000  H
  H44      1.0000 0.53760  0.20740  0.02640  Biso   1.000  H
  H45      1.0000 0.59990  0.13620  0.08120  Biso   1.000  H
  H46      1.0000 0.66830  0.16480  0.11560  Biso   1.000  H
  H47      1.0000 0.78930  0.62940  0.32560  Biso   1.000  H
  H48      1.0000 0.71300  0.54280  0.25660  Biso   1.000  H
  H49      1.0000 0.76780  0.49590  0.36660  Biso   1.000  H
  H50      1.0000 0.79780  0.59180  0.42940  Biso   1.000  H
  H51      1.0000 0.79630  0.44520  0.25060  Biso   1.000  H
  H52      1.0000 0.76550  0.35260  0.18600  Biso   1.000  H
  H53      1.0000 0.60370  0.34740  0.19080  Biso   1.000  H
  H54      1.0000 0.63440  0.44000  0.25520  Biso   1.000  H
  H55      1.0000 0.59590  0.28460  0.10300  Biso   1.000  H
  H56      1.0000 0.60240  0.25910  0.14160  Biso   1.000  H
  H57      1.0000 0.78320  0.14530  0.42820  Biso   1.000  H
  H58      1.0000 0.74620  0.18220  0.36820  Biso   1.000  H
  H59      1.0000 0.71330  0.02770  0.25000  Biso   1.000  H
  H60      1.0000 0.73630  0.99470  0.31680  Biso   1.000  H
  H61      1.0000 0.64230  0.16360  0.28220  Biso   1.000  H
  H62      1.0000 0.59980  0.18390  0.21180  Biso   1.000  H
  H63      1.0000 0.72490  0.12030  0.16180  Biso   1.000  H
  H64      1.0000 0.76740  0.10000  0.23240  Biso   1.000  H
  C1       1.0000 0.75200  0.79300  0.53600  Biso   1.000  C
  C2       1.0000 0.73700  0.83500  0.57000  Biso   1.000  C
  C3       1.0000 0.69600  0.82600  0.59400  Biso   1.000  C
  C4       1.0000 0.68000  0.76900  0.57400  Biso   1.000  C
  C5       1.0000 0.69500  0.72500  0.53800  Biso   1.000  C
  C6       1.0000 0.73200  0.73700  0.52000  Biso   1.000  C
  C7       1.0000 0.95100  0.04700  0.53200  Biso   1.000  C
  C8       1.0000 0.99600  0.04100  0.57200  Biso   1.000  C
  C9       1.0000 0.05900  0.07100  0.59600  Biso   1.000  C
  C10      1.0000 0.06500  0.10800  0.57600  Biso   1.000  C
  C11      1.0000 0.01500  0.11100  0.53400  Biso   1.000  C
  C12      1.0000 0.95600  0.08400  0.51200  Biso   1.000  C
  C13      1.0000 0.74200  0.05100  0.53800  Biso   1.000  C
  C14      1.0000 0.72100  0.09100  0.52200  Biso   1.000  C
  C15      1.0000 0.68700  0.11700  0.54600  Biso   1.000  C
  C16      1.0000 0.67300  0.10900  0.57800  Biso   1.000  C
  C17      1.0000 0.69300  0.07300  0.59600  Biso   1.000  C
  C18      1.0000 0.73300  0.04000  0.57400  Biso   1.000  C
  C19      1.0000 0.07400  0.85100  0.59600  Biso   1.000  C
  C20      1.0000 0.00700  0.85500  0.57200  Biso   1.000  C
  C21      1.0000 0.96100  0.80400  0.53200  Biso   1.000  C
  C22      1.0000 0.97600  0.75100  0.51000  Biso   1.000  C
  C23      1.0000 0.04200  0.75300  0.53000  Biso   1.000  C
  C24      1.0000 0.08600  0.80200  0.57200  Biso   1.000  C
  C25      1.0000 0.77400  0.87100  0.38400  Biso   1.000  C
  C26      1.0000 0.77700  0.82400  0.38400  Biso   1.000  C
  C27      1.0000 0.75400  0.77100  0.33800  Biso   1.000  C
  C28      1.0000 0.73600  0.77900  0.29400  Biso   1.000  C
  C29      1.0000 0.73500  0.82600  0.29200  Biso   1.000  C
  C30      1.0000 0.75000  0.87900  0.33800  Biso   1.000  C
  C31      1.0000 0.96000  0.01100  0.71800  Biso   1.000  C
  C32      1.0000 0.90100  0.00700  0.71400  Biso   1.000  C
  C33      1.0000 0.89200  0.03400  0.76000  Biso   1.000  C
  C34      1.0000 0.94300  0.06500  0.81000  Biso   1.000  C
  C35      1.0000 0.00000  0.06900  0.81200  Biso   1.000  C
  C36      1.0000 0.01000  0.04200  0.76800  Biso   1.000  C
  C37      1.0000 0.74200  0.99500  0.69800  Biso   1.000  C
  C38      1.0000 0.72800  0.02400  0.74600  Biso   1.000  C
  C39      1.0000 0.71700  0.07600  0.76800  Biso   1.000  C
  C40      1.0000 0.69400  0.09500  0.81000  Biso   1.000  C
  C41      1.0000 0.69800  0.06800  0.84000  Biso   1.000  C
  C42      1.0000 0.71100  0.01400  0.81600  Biso   1.000  C
  C43      1.0000 0.71900  0.99400  0.76600  Biso   1.000  C
  C44      1.0000 0.68500  0.14900  0.91800  Biso   1.000  C
  C45      1.0000 0.66900  0.16800  0.96000  Biso   1.000  C
  C46      1.0000 0.65000  0.13000  0.97200  Biso   1.000  C
  C47      1.0000 0.64600  0.07300  0.94200  Biso   1.000  C
  C48      1.0000 0.66100  0.05500  0.90000  Biso   1.000  C
  C49      1.0000 0.68100  0.09300  0.88800  Biso   1.000  C
  C50      1.0000 0.64700  0.18800  0.03800  Biso   1.000  C
  C51      1.0000 0.10900  0.00300  0.70600  Biso   1.000  C
  C52      1.0000 0.17600  0.03200  0.75400  Biso   1.000  C
  C53      1.0000 0.19400  0.01300  0.79200  Biso   1.000  C
  C54      1.0000 0.25200  0.03600  0.83600  Biso   1.000  C
  C55      1.0000 0.29100  0.08000  0.84000  Biso   1.000  C
  C56      1.0000 0.26900  0.09800  0.80200  Biso   1.000  C
  C57      1.0000 0.21100  0.07600  0.76400  Biso   1.000  C
  C58      1.0000 0.35700  0.09900  0.88800  Biso   1.000  C
  C59      1.0000 0.38500  0.06200  0.90600  Biso   1.000  C
  C60      1.0000 0.44300  0.08000  0.94800  Biso   1.000  C
  C61      1.0000 0.47300  0.13500  0.97200  Biso   1.000  C
  C62      1.0000 0.44600  0.17200  0.95400  Biso   1.000  C
  C63      1.0000 0.38900  0.15400  0.91400  Biso   1.000  C
  C64      1.0000 0.55300  0.18300  0.04200  Biso   1.000  C
  C65      1.0000 0.62100  0.20600  0.07800  Biso   1.000  C
  C66      1.0000 0.62700  0.17200  0.10600  Biso   1.000  C
  C67      1.0000 0.80000  0.68200  0.42000  Biso   1.000  C
  C68      1.0000 0.77900  0.62000  0.38000  Biso   1.000  C
  C69      1.0000 0.77300  0.61000  0.33400  Biso   1.000  C
  C70      1.0000 0.73800  0.55000  0.29200  Biso   1.000  C
  C71      1.0000 0.74100  0.50900  0.30200  Biso   1.000  C
  C72      1.0000 0.76400  0.52300  0.35600  Biso   1.000  C
  C73      1.0000 0.78300  0.58200  0.39400  Biso   1.000  C
  C74      1.0000 0.71900  0.45200  0.26000  Biso   1.000  C
  C75      1.0000 0.75700  0.42600  0.23800  Biso   1.000  C
  C76      1.0000 0.73900  0.37000  0.20000  Biso   1.000  C
  C77      1.0000 0.68200  0.34100  0.18200  Biso   1.000  C
  C78      1.0000 0.64200  0.36700  0.20200  Biso   1.000  C
  C79      1.0000 0.66100  0.42200  0.24200  Biso   1.000  C
  C80      1.0000 0.62000  0.26400  0.12000  Biso   1.000  C
  C81      1.0000 0.78600  0.04700  0.41800  Biso   1.000  C
  C82      1.0000 0.76600  0.07200  0.38000  Biso   1.000  C
  C83      1.0000 0.76700  0.12100  0.39200  Biso   1.000  C
  C84      1.0000 0.74600  0.14400  0.35600  Biso   1.000  C
  C85      1.0000 0.72400  0.10800  0.30200  Biso   1.000  C
  C86      1.0000 0.72400  0.05200  0.28600  Biso   1.000  C
  C87      1.0000 0.74100  0.03300  0.32600  Biso   1.000  C
  C88      1.0000 0.70900  0.13000  0.26400  Biso   1.000  C
  C89      1.0000 0.65900  0.15500  0.25800  Biso   1.000  C
  C90      1.0000 0.63300  0.16700  0.21600  Biso   1.000  C
  C91      1.0000 0.65800  0.15400  0.18000  Biso   1.000  C
  C92      1.0000 0.70800  0.12900  0.18600  Biso   1.000  C
  C93      1.0000 0.73400  0.11700  0.22800  Biso   1.000  C
  N1       1.0000 0.97500  0.00700  0.58400  Biso   1.000  N
  N2       1.0000 0.91600  0.99100  0.55200  Biso   1.000  N
  N3       1.0000 0.89900  0.01500  0.52000  Biso   1.000  N
  N4       1.0000 0.77600  0.01500  0.52200  Biso   1.000  N
  N5       1.0000 0.78900  0.98600  0.55000  Biso   1.000  N
  N6       1.0000 0.80100  0.83200  0.43600  Biso   1.000  N
  N7       1.0000 0.81200  0.88700  0.46400  Biso   1.000  N
  N8       1.0000 0.79700  0.91700  0.43600  Biso   1.000  N
  N9       1.0000 0.78700  0.81400  0.52400  Biso   1.000  N
  N10      1.0000 0.79300  0.86700  0.55000  Biso   1.000  N
  N11      1.0000 0.95000  0.99100  0.66600  Biso   1.000  N
  N12      1.0000 0.89300  0.97600  0.64000  Biso   1.000  N
  N13      1.0000 0.85800  0.98600  0.66200  Biso   1.000  N
  N14      1.0000 0.92000  0.87700  0.55400  Biso   1.000  N
  N15      1.0000 0.98100  0.89700  0.58600  Biso   1.000  N
  N16      1.0000 0.76200  0.88300  0.58000  Biso   1.000  N
  N17      1.0000 0.91000  0.82300  0.52200  Biso   1.000  N
  N18      1.0000 0.76000  0.00100  0.58000  Biso   1.000  N
  O1       1.0000 0.09500  0.02900  0.68400  Biso   1.000  O
  O2       1.0000 0.08800  0.96400  0.70200  Biso   1.000  O
  O3       1.0000 0.79200  0.71300  0.41200  Biso   1.000  O
  O4       1.0000 0.82700  0.69300  0.46600  Biso   1.000  O
  O5       1.0000 0.80600  0.08000  0.46200  Biso   1.000  O
  O6       1.0000 0.78200  0.00500  0.40600  Biso   1.000  O
  O7       1.0000 0.74700  0.03500  0.68600  Biso   1.000  O
  O8       1.0000 0.75300  0.94900  0.69000  Biso   1.000  O
  O9       1.0000 0.53300  0.13400  0.00400  Biso   1.000  O
  O10      1.0000 0.62000  0.18900  0.15000  Biso   1.000  O
  O11      1.0000 0.62800  0.13500  0.00800  Biso   1.000  O
  O12      1.0000 0.66600  0.28500  0.14400  Biso   1.000  O
  Zn6      1.0000 0.30140  0.56910  0.44860  Biso   1.000  Zn
  Zn7      1.0000 0.34270  0.50180  0.53060  Biso   1.000  Zn
  Zn8      1.0000 0.37400  0.52290  0.36280  Biso   1.000  Zn
  Zn9      1.0000 0.35150  0.71650  0.52840  Biso   1.000  Zn
  Zn10     1.0000 0.13660  0.53600  0.37280  Biso   1.000  Zn
  H65      1.0000 0.06750  0.64650  0.38380  Biso   1.000  H
  H66      1.0000 0.06920  0.74170  0.41120  Biso   1.000  H
  H67      1.0000 0.15170  0.81180  0.47320  Biso   1.000  H
  H68      1.0000 0.24690  0.79150  0.50360  Biso   1.000  H
  H69      1.0000 0.46950  0.43310  0.37800  Biso   1.000  H
  H70      1.0000 0.51240  0.36970  0.41040  Biso   1.000  H
  H71      1.0000 0.50220  0.36620  0.47840  Biso   1.000  H
  H72      1.0000 0.43800  0.41150  0.51420  Biso   1.000  H
  H73      1.0000 0.23170  0.40170  0.50180  Biso   1.000  H
  H74      1.0000 0.13370  0.35530  0.46280  Biso   1.000  H
  H75      1.0000 0.05630  0.36990  0.40880  Biso   1.000  H
  H76      1.0000 0.06320  0.43180  0.38040  Biso   1.000  H
  H77      1.0000 0.48010  0.61840  0.37640  Biso   1.000  H
  H78      1.0000 0.46100  0.78150  0.51420  Biso   1.000  H
  H79      1.0000 0.54030  0.77940  0.48500  Biso   1.000  H
  H80      1.0000 0.54140  0.70110  0.41460  Biso   1.000  H
  H81      1.0000 0.41430  0.76340  0.66320  Biso   1.000  H
  H82      1.0000 0.46050  0.75280  0.73880  Biso   1.000  H
  H83      1.0000 0.46580  0.67530  0.74100  Biso   1.000  H
  H84      1.0000 0.40740  0.58780  0.66340  Biso   1.000  H
  H85      1.0000 0.09510  0.46910  0.24140  Biso   1.000  H
  H86      1.0000 0.09640  0.41710  0.15980  Biso   1.000  H
  H87      1.0000 0.18850  0.41000  0.15460  Biso   1.000  H
  H88      1.0000 0.27920  0.45490  0.23080  Biso   1.000  H
  H89      1.0000 0.96680  0.39900  0.24260  Biso   1.000  H
  H90      1.0000 0.86040  0.37300  0.18320  Biso   1.000  H
  H91      1.0000 0.88230  0.50950  0.16740  Biso   1.000  H
  H92      1.0000 0.96940  0.54390  0.25140  Biso   1.000  H
  H93      1.0000 0.78870  0.32540  0.09120  Biso   1.000  H
  H94      1.0000 0.69220  0.29450  0.02060  Biso   1.000  H
  H95      1.0000 0.68200  0.45230  0.04860  Biso   1.000  H
  H96      1.0000 0.77830  0.48320  0.11900  Biso   1.000  H
  H97      1.0000 0.62220  0.28080  0.96780  Biso   1.000  H
  H98      1.0000 0.63240  0.32010  0.94540  Biso   1.000  H
  H99      1.0000 0.37900  0.51520  0.21160  Biso   1.000  H
  H100     1.0000 0.40200  0.47570  0.13760  Biso   1.000  H
  H101     1.0000 0.49000  0.37480  0.19620  Biso   1.000  H
  H102     1.0000 0.45160  0.40570  0.25580  Biso   1.000  H
  H103     1.0000 0.47390  0.47440  0.10960  Biso   1.000  H
  H104     1.0000 0.50140  0.44500  0.04020  Biso   1.000  H
  H105     1.0000 0.49590  0.29180  0.02920  Biso   1.000  H
  H106     1.0000 0.46840  0.32120  0.09860  Biso   1.000  H
  H107     1.0000 0.46860  0.31350  0.93500  Biso   1.000  H
  H108     1.0000 0.51120  0.29260  0.97360  Biso   1.000  H
  H109     1.0000 0.51870  0.36380  0.91880  Biso   1.000  H
  H110     1.0000 0.55270  0.33520  0.88440  Biso   1.000  H
  H111     1.0000 0.46370  0.87060  0.67440  Biso   1.000  H
  H112     1.0000 0.45640  0.95720  0.74340  Biso   1.000  H
  H113     1.0000 0.40120  0.00410  0.63340  Biso   1.000  H
  H114     1.0000 0.36840  0.90820  0.57060  Biso   1.000  H
  H115     1.0000 0.54570  0.05480  0.74940  Biso   1.000  H
  H116     1.0000 0.57950  0.14740  0.81400  Biso   1.000  H
  H117     1.0000 0.41290  0.15260  0.80920  Biso   1.000  H
  H118     1.0000 0.37920  0.06000  0.74480  Biso   1.000  H
  H119     1.0000 0.49290  0.21540  0.89700  Biso   1.000  H
  H120     1.0000 0.46080  0.24090  0.85840  Biso   1.000  H
  H121     1.0000 0.35500  0.35470  0.57180  Biso   1.000  H
  H122     1.0000 0.37800  0.31780  0.63180  Biso   1.000  H
  H123     1.0000 0.46330  0.47230  0.75000  Biso   1.000  H
  H124     1.0000 0.41950  0.50530  0.68320  Biso   1.000  H
  H125     1.0000 0.36010  0.33640  0.71780  Biso   1.000  H
  H126     1.0000 0.38800  0.31610  0.78820  Biso   1.000  H
  H127     1.0000 0.56310  0.37970  0.83820  Biso   1.000  H
  H128     1.0000 0.53500  0.40000  0.76760  Biso   1.000  H
  C94      1.0000 0.21600  0.70700  0.46400  Biso   1.000  C
  C95      1.0000 0.16700  0.66500  0.43000  Biso   1.000  C
  C96      1.0000 0.10200  0.67400  0.40600  Biso   1.000  C
  C97      1.0000 0.10600  0.73100  0.42600  Biso   1.000  C
  C98      1.0000 0.15700  0.77500  0.46200  Biso   1.000  C
  C99      1.0000 0.21200  0.76300  0.48000  Biso   1.000  C
  C100     1.0000 0.41900  0.45300  0.46800  Biso   1.000  C
  C101     1.0000 0.42400  0.45900  0.42800  Biso   1.000  C
  C102     1.0000 0.46300  0.42900  0.40400  Biso   1.000  C
  C103     1.0000 0.48900  0.39200  0.42400  Biso   1.000  C
  C104     1.0000 0.48100  0.38900  0.46600  Biso   1.000  C
  C105     1.0000 0.44400  0.41600  0.48800  Biso   1.000  C
  C106     1.0000 0.20400  0.44900  0.46200  Biso   1.000  C
  C107     1.0000 0.19900  0.40900  0.47800  Biso   1.000  C
  C108     1.0000 0.14100  0.38300  0.45400  Biso   1.000  C
  C109     1.0000 0.09500  0.39100  0.42200  Biso   1.000  C
  C110     1.0000 0.09700  0.42700  0.40400  Biso   1.000  C
  C111     1.0000 0.15900  0.46000  0.42600  Biso   1.000  C
  C112     1.0000 0.47800  0.64900  0.40400  Biso   1.000  C
  C113     1.0000 0.43500  0.64500  0.42800  Biso   1.000  C
  C114     1.0000 0.42900  0.69600  0.46800  Biso   1.000  C
  C115     1.0000 0.46600  0.74900  0.49000  Biso   1.000  C
  C116     1.0000 0.51200  0.74700  0.47000  Biso   1.000  C
  C117     1.0000 0.51400  0.69800  0.42800  Biso   1.000  C
  C118     1.0000 0.39000  0.62900  0.61600  Biso   1.000  C
  C119     1.0000 0.39300  0.67600  0.61600  Biso   1.000  C
  C120     1.0000 0.41600  0.72900  0.66200  Biso   1.000  C
  C121     1.0000 0.44200  0.72100  0.70600  Biso   1.000  C
  C122     1.0000 0.44300  0.67400  0.70800  Biso   1.000  C
  C123     1.0000 0.41200  0.62100  0.66200  Biso   1.000  C
  C124     1.0000 0.24200  0.48900  0.28200  Biso   1.000  C
  C125     1.0000 0.18700  0.49300  0.28600  Biso   1.000  C
  C126     1.0000 0.13200  0.46600  0.24000  Biso   1.000  C
  C127     1.0000 0.13300  0.43500  0.19000  Biso   1.000  C
  C128     1.0000 0.18800  0.43100  0.18800  Biso   1.000  C
  C129     1.0000 0.24200  0.45800  0.23200  Biso   1.000  C
  C130     1.0000 0.04400  0.50500  0.30200  Biso   1.000  C
  C131     1.0000 0.98200  0.47600  0.25400  Biso   1.000  C
  C132     1.0000 0.94900  0.42400  0.23200  Biso   1.000  C
  C133     1.0000 0.88400  0.40500  0.19000  Biso   1.000  C
  C134     1.0000 0.85800  0.43200  0.16000  Biso   1.000  C
  C135     1.0000 0.89500  0.48600  0.18400  Biso   1.000  C
  C136     1.0000 0.95300  0.50600  0.23400  Biso   1.000  C
  C137     1.0000 0.76700  0.35100  0.08200  Biso   1.000  C
  C138     1.0000 0.70900  0.33200  0.04000  Biso   1.000  C
  C139     1.0000 0.67800  0.37000  0.02800  Biso   1.000  C
  C140     1.0000 0.70400  0.42700  0.05800  Biso   1.000  C
  C141     1.0000 0.76100  0.44500  0.10000  Biso   1.000  C
  C142     1.0000 0.79300  0.40700  0.11200  Biso   1.000  C
  C143     1.0000 0.60900  0.31200  0.96200  Biso   1.000  C
  C144     1.0000 0.40300  0.49700  0.29400  Biso   1.000  C
  C145     1.0000 0.42200  0.46800  0.24600  Biso   1.000  C
  C146     1.0000 0.40200  0.48700  0.20800  Biso   1.000  C
  C147     1.0000 0.41600  0.46400  0.16400  Biso   1.000  C
  C148     1.0000 0.45100  0.42000  0.16000  Biso   1.000  C
  C149     1.0000 0.46700  0.40200  0.19800  Biso   1.000  C
  C150     1.0000 0.44700  0.42400  0.23600  Biso   1.000  C
  C151     1.0000 0.46900  0.40100  0.11200  Biso   1.000  C
  C152     1.0000 0.47900  0.43800  0.09400  Biso   1.000  C
  C153     1.0000 0.49500  0.42000  0.05200  Biso   1.000  C
  C154     1.0000 0.50100  0.36500  0.02800  Biso   1.000  C
  C155     1.0000 0.49200  0.32800  0.04600  Biso   1.000  C
  C156     1.0000 0.47500  0.34600  0.08600  Biso   1.000  C
  C157     1.0000 0.51100  0.31700  0.95800  Biso   1.000  C
  C158     1.0000 0.54300  0.29400  0.92200  Biso   1.000  C
  C159     1.0000 0.52100  0.32800  0.89400  Biso   1.000  C
  C160     1.0000 0.38000  0.81800  0.58000  Biso   1.000  C
  C161     1.0000 0.39900  0.88000  0.62000  Biso   1.000  C
  C162     1.0000 0.43900  0.89000  0.66600  Biso   1.000  C
  C163     1.0000 0.44600  0.95000  0.70800  Biso   1.000  C
  C164     1.0000 0.43900  0.99100  0.69800  Biso   1.000  C
  C165     1.0000 0.40800  0.97700  0.64400  Biso   1.000  C
  C166     1.0000 0.38900  0.91800  0.60600  Biso   1.000  C
  C167     1.0000 0.45900  0.04800  0.74000  Biso   1.000  C
  C168     1.0000 0.51900  0.07400  0.76200  Biso   1.000  C
  C169     1.0000 0.53900  0.13000  0.80000  Biso   1.000  C
  C170     1.0000 0.50000  0.15900  0.81800  Biso   1.000  C
  C171     1.0000 0.44000  0.13300  0.79800  Biso   1.000  C
  C172     1.0000 0.41900  0.07800  0.75800  Biso   1.000  C
  C173     1.0000 0.50000  0.23600  0.88000  Biso   1.000  C
  C174     1.0000 0.36800  0.45300  0.58200  Biso   1.000  C
  C175     1.0000 0.38600  0.42800  0.62000  Biso   1.000  C
  C176     1.0000 0.37500  0.37900  0.60800  Biso   1.000  C
  C177     1.0000 0.39000  0.35600  0.64400  Biso   1.000  C
  C178     1.0000 0.42200  0.39200  0.69800  Biso   1.000  C
  C179     1.0000 0.43800  0.44800  0.71400  Biso   1.000  C
  C180     1.0000 0.41500  0.46700  0.67400  Biso   1.000  C
  C181     1.0000 0.44500  0.37000  0.73600  Biso   1.000  C
  C182     1.0000 0.40100  0.34500  0.74200  Biso   1.000  C
  C183     1.0000 0.41700  0.33300  0.78400  Biso   1.000  C
  C184     1.0000 0.47800  0.34600  0.82000  Biso   1.000  C
  C185     1.0000 0.52200  0.37100  0.81400  Biso   1.000  C
  C186     1.0000 0.50600  0.38300  0.77200  Biso   1.000  C
  N19      1.0000 0.39100  0.49300  0.41600  Biso   1.000  N
  N20      1.0000 0.36400  0.50900  0.44800  Biso   1.000  N
  N21      1.0000 0.37900  0.48500  0.48000  Biso   1.000  N
  N22      1.0000 0.25400  0.48500  0.47800  Biso   1.000  N
  N23      1.0000 0.23900  0.51400  0.45000  Biso   1.000  N
  N24      1.0000 0.36500  0.66800  0.56400  Biso   1.000  N
  N25      1.0000 0.34800  0.61300  0.53600  Biso   1.000  N
  N26      1.0000 0.36100  0.58300  0.56400  Biso   1.000  N
  N27      1.0000 0.26300  0.68600  0.47600  Biso   1.000  N
  N28      1.0000 0.24300  0.63300  0.45000  Biso   1.000  N
  N29      1.0000 0.28400  0.50900  0.33400  Biso   1.000  N
  N30      1.0000 0.25300  0.52400  0.36000  Biso   1.000  N
  N31      1.0000 0.19600  0.51400  0.33800  Biso   1.000  N
  N32      1.0000 0.36600  0.62300  0.44600  Biso   1.000  N
  N33      1.0000 0.39500  0.60300  0.41400  Biso   1.000  N
  N34      1.0000 0.18200  0.61700  0.42000  Biso   1.000  N
  N35      1.0000 0.38800  0.67700  0.47800  Biso   1.000  N
  N36      1.0000 0.18000  0.49900  0.42000  Biso   1.000  N
  O13      1.0000 0.41100  0.47100  0.31600  Biso   1.000  O
  O14      1.0000 0.38600  0.53600  0.29800  Biso   1.000  O
  O15      1.0000 0.38000  0.78700  0.58800  Biso   1.000  O
  O16      1.0000 0.36100  0.80700  0.53400  Biso   1.000  O
  O17      1.0000 0.34400  0.42000  0.53800  Biso   1.000  O
  O18      1.0000 0.37600  0.49500  0.59400  Biso   1.000  O
  O19      1.0000 0.06100  0.46500  0.31400  Biso   1.000  O
  O20      1.0000 0.06300  0.55100  0.31000  Biso   1.000  O
  O21      1.0000 0.52900  0.36600  0.99600  Biso   1.000  O
  O22      1.0000 0.47000  0.31100  0.85000  Biso   1.000  O
  O23      1.0000 0.62000  0.36500  0.99200  Biso   1.000  O
  O24      1.0000 0.52200  0.21500  0.85600  Biso   1.000  O
  Zn11     1.0000 0.14720  0.06910  0.44860  Biso   1.000  Zn
  Zn12     1.0000 0.18790  0.00180  0.53060  Biso   1.000  Zn
  Zn13     1.0000 0.98880  0.02290  0.36280  Biso   1.000  Zn
  Zn14     1.0000 0.17690  0.21650  0.52840  Biso   1.000  Zn
  Zn15     1.0000 0.23620  0.03600  0.37280  Biso   1.000  Zn
  H129     1.0000 0.31630  0.14650  0.38380  Biso   1.000  H
  H130     1.0000 0.34200  0.24170  0.41120  Biso   1.000  H
  H131     1.0000 0.32150  0.31180  0.47320  Biso   1.000  H
  H132     1.0000 0.25670  0.29150  0.50360  Biso   1.000  H
  H133     1.0000 0.90850  0.93310  0.37800  Biso   1.000  H
  H134     1.0000 0.89800  0.86970  0.41040  Biso   1.000  H
  H135     1.0000 0.97620  0.86620  0.47840  Biso   1.000  H
  H136     1.0000 0.07620  0.91150  0.51420  Biso   1.000  H
  H137     1.0000 0.27010  0.90170  0.50180  Biso   1.000  H
  H138     1.0000 0.32910  0.85530  0.46280  Biso   1.000  H
  H139     1.0000 0.35250  0.86990  0.40880  Biso   1.000  H
  H140     1.0000 0.31720  0.93180  0.38040  Biso   1.000  H
  H141     1.0000 0.89630  0.11840  0.37640  Biso   1.000  H
  H142     1.0000 0.05320  0.28150  0.51420  Biso   1.000  H
  H143     1.0000 0.94470  0.27940  0.48500  Biso   1.000  H
  H144     1.0000 0.87320  0.20110  0.41460  Biso   1.000  H
  H145     1.0000 0.24890  0.26340  0.66320  Biso   1.000  H
  H146     1.0000 0.27830  0.25280  0.73880  Biso   1.000  H
  H147     1.0000 0.27520  0.17530  0.74100  Biso   1.000  H
  H148     1.0000 0.25600  0.08780  0.66340  Biso   1.000  H
  H149     1.0000 0.14630  0.96910  0.24140  Biso   1.000  H
  H150     1.0000 0.06340  0.91710  0.15980  Biso   1.000  H
  H151     1.0000 0.96610  0.91000  0.15460  Biso   1.000  H
  H152     1.0000 0.95160  0.95490  0.23080  Biso   1.000  H
  H153     1.0000 0.27580  0.89900  0.24260  Biso   1.000  H
  H154     1.0000 0.32280  0.87300  0.18320  Biso   1.000  H
  H155     1.0000 0.28510  0.00950  0.16740  Biso   1.000  H
  H156     1.0000 0.28200  0.04390  0.25140  Biso   1.000  H
  H157     1.0000 0.30250  0.82540  0.09120  Biso   1.000  H
  H158     1.0000 0.32840  0.79450  0.02060  Biso   1.000  H
  H159     1.0000 0.36660  0.95230  0.04860  Biso   1.000  H
  H160     1.0000 0.34070  0.98320  0.11900  Biso   1.000  H
  H161     1.0000 0.34560  0.78080  0.96780  Biso   1.000  H
  H162     1.0000 0.31300  0.82010  0.94540  Biso   1.000  H
  H163     1.0000 0.83260  0.01520  0.21160  Biso   1.000  H
  H164     1.0000 0.73560  0.97570  0.13760  Biso   1.000  H
  H165     1.0000 0.70620  0.87480  0.19620  Biso   1.000  H
  H166     1.0000 0.80420  0.90570  0.25580  Biso   1.000  H
  H167     1.0000 0.63570  0.97440  0.10960  Biso   1.000  H
  H168     1.0000 0.53880  0.94500  0.04020  Biso   1.000  H
  H169     1.0000 0.53330  0.79180  0.02920  Biso   1.000  H
  H170     1.0000 0.63020  0.82120  0.09860  Biso   1.000  H
  H171     1.0000 0.46640  0.81350  0.93500  Biso   1.000  H
  H172     1.0000 0.46240  0.79260  0.97360  Biso   1.000  H
  H173     1.0000 0.40010  0.86380  0.91880  Biso   1.000  H
  H174     1.0000 0.33170  0.83520  0.88440  Biso   1.000  H
  H175     1.0000 0.21070  0.37060  0.67440  Biso   1.000  H
  H176     1.0000 0.28700  0.45720  0.74340  Biso   1.000  H
  H177     1.0000 0.23220  0.50410  0.63340  Biso   1.000  H
  H178     1.0000 0.20220  0.40820  0.57060  Biso   1.000  H
  H179     1.0000 0.20370  0.55480  0.74940  Biso   1.000  H
  H180     1.0000 0.23450  0.64740  0.81400  Biso   1.000  H
  H181     1.0000 0.39630  0.65260  0.80920  Biso   1.000  H
  H182     1.0000 0.36560  0.56000  0.74480  Biso   1.000  H
  H183     1.0000 0.40410  0.71540  0.89700  Biso   1.000  H
  H184     1.0000 0.39760  0.74090  0.85840  Biso   1.000  H
  H185     1.0000 0.21680  0.85470  0.57180  Biso   1.000  H
  H186     1.0000 0.25380  0.81780  0.63180  Biso   1.000  H
  H187     1.0000 0.28670  0.97230  0.75000  Biso   1.000  H
  H188     1.0000 0.26370  0.00530  0.68320  Biso   1.000  H
  H189     1.0000 0.35770  0.83640  0.71780  Biso   1.000  H
  H190     1.0000 0.40020  0.81610  0.78820  Biso   1.000  H
  H191     1.0000 0.27510  0.87970  0.83820  Biso   1.000  H
  H192     1.0000 0.23260  0.90000  0.76760  Biso   1.000  H
  C187     1.0000 0.24800  0.20700  0.46400  Biso   1.000  C
  C188     1.0000 0.26300  0.16500  0.43000  Biso   1.000  C
  C189     1.0000 0.30400  0.17400  0.40600  Biso   1.000  C
  C190     1.0000 0.32000  0.23100  0.42600  Biso   1.000  C
  C191     1.0000 0.30500  0.27500  0.46200  Biso   1.000  C
  C192     1.0000 0.26800  0.26300  0.48000  Biso   1.000  C
  C193     1.0000 0.04900  0.95300  0.46800  Biso   1.000  C
  C194     1.0000 0.00400  0.95900  0.42800  Biso   1.000  C
  C195     1.0000 0.94100  0.92900  0.40400  Biso   1.000  C
  C196     1.0000 0.93500  0.89200  0.42400  Biso   1.000  C
  C197     1.0000 0.98500  0.88900  0.46600  Biso   1.000  C
  C198     1.0000 0.04400  0.91600  0.48800  Biso   1.000  C
  C199     1.0000 0.25800  0.94900  0.46200  Biso   1.000  C
  C200     1.0000 0.27900  0.90900  0.47800  Biso   1.000  C
  C201     1.0000 0.31300  0.88300  0.45400  Biso   1.000  C
  C202     1.0000 0.32700  0.89100  0.42200  Biso   1.000  C
  C203     1.0000 0.30700  0.92700  0.40400  Biso   1.000  C
  C204     1.0000 0.26700  0.96000  0.42600  Biso   1.000  C
  C205     1.0000 0.92600  0.14900  0.40400  Biso   1.000  C
  C206     1.0000 0.99300  0.14500  0.42800  Biso   1.000  C
  C207     1.0000 0.03900  0.19600  0.46800  Biso   1.000  C
  C208     1.0000 0.02400  0.24900  0.49000  Biso   1.000  C
  C209     1.0000 0.95800  0.24700  0.47000  Biso   1.000  C
  C210     1.0000 0.91400  0.19800  0.42800  Biso   1.000  C
  C211     1.0000 0.22600  0.12900  0.61600  Biso   1.000  C
  C212     1.0000 0.22300  0.17600  0.61600  Biso   1.000  C
  C213     1.0000 0.24600  0.22900  0.66200  Biso   1.000  C
  C214     1.0000 0.26400  0.22100  0.70600  Biso   1.000  C
  C215     1.0000 0.26500  0.17400  0.70800  Biso   1.000  C
  C216     1.0000 0.25000  0.12100  0.66200  Biso   1.000  C
  C217     1.0000 0.04000  0.98900  0.28200  Biso   1.000  C
  C218     1.0000 0.09900  0.99300  0.28600  Biso   1.000  C
  C219     1.0000 0.10800  0.96600  0.24000  Biso   1.000  C
  C220     1.0000 0.05700  0.93500  0.19000  Biso   1.000  C
  C221     1.0000 1.00000  0.93100  0.18800  Biso   1.000  C
  C222     1.0000 0.99000  0.95800  0.23200  Biso   1.000  C
  C223     1.0000 0.25800  0.00500  0.30200  Biso   1.000  C
  C224     1.0000 0.27200  0.97600  0.25400  Biso   1.000  C
  C225     1.0000 0.28300  0.92400  0.23200  Biso   1.000  C
  C226     1.0000 0.30600  0.90500  0.19000  Biso   1.000  C
  C227     1.0000 0.30200  0.93200  0.16000  Biso   1.000  C
  C228     1.0000 0.28900  0.98600  0.18400  Biso   1.000  C
  C229     1.0000 0.28100  0.00600  0.23400  Biso   1.000  C
  C230     1.0000 0.31500  0.85100  0.08200  Biso   1.000  C
  C231     1.0000 0.33100  0.83200  0.04000  Biso   1.000  C
  C232     1.0000 0.35000  0.87000  0.02800  Biso   1.000  C
  C233     1.0000 0.35400  0.92700  0.05800  Biso   1.000  C
  C234     1.0000 0.33900  0.94500  0.10000  Biso   1.000  C
  C235     1.0000 0.31900  0.90700  0.11200  Biso   1.000  C
  C236     1.0000 0.35300  0.81200  0.96200  Biso   1.000  C
  C237     1.0000 0.89100  0.99700  0.29400  Biso   1.000  C
  C238     1.0000 0.82400  0.96800  0.24600  Biso   1.000  C
  C239     1.0000 0.80600  0.98700  0.20800  Biso   1.000  C
  C240     1.0000 0.74800  0.96400  0.16400  Biso   1.000  C
  C241     1.0000 0.70900  0.92000  0.16000  Biso   1.000  C
  C242     1.0000 0.73100  0.90200  0.19800  Biso   1.000  C
  C243     1.0000 0.78900  0.92400  0.23600  Biso   1.000  C
  C244     1.0000 0.64300  0.90100  0.11200  Biso   1.000  C
  C245     1.0000 0.61500  0.93800  0.09400  Biso   1.000  C
  C246     1.0000 0.55700  0.92000  0.05200  Biso   1.000  C
  C247     1.0000 0.52700  0.86500  0.02800  Biso   1.000  C
  C248     1.0000 0.55400  0.82800  0.04600  Biso   1.000  C
  C249     1.0000 0.61100  0.84600  0.08600  Biso   1.000  C
  C250     1.0000 0.44700  0.81700  0.95800  Biso   1.000  C
  C251     1.0000 0.37900  0.79400  0.92200  Biso   1.000  C
  C252     1.0000 0.37300  0.82800  0.89400  Biso   1.000  C
  C253     1.0000 0.20000  0.31800  0.58000  Biso   1.000  C
  C254     1.0000 0.22100  0.38000  0.62000  Biso   1.000  C
  C255     1.0000 0.22700  0.39000  0.66600  Biso   1.000  C
  C256     1.0000 0.26200  0.45000  0.70800  Biso   1.000  C
  C257     1.0000 0.25900  0.49100  0.69800  Biso   1.000  C
  C258     1.0000 0.23600  0.47700  0.64400  Biso   1.000  C
  C259     1.0000 0.21700  0.41800  0.60600  Biso   1.000  C
  C260     1.0000 0.28100  0.54800  0.74000  Biso   1.000  C
  C261     1.0000 0.24300  0.57400  0.76200  Biso   1.000  C
  C262     1.0000 0.26100  0.63000  0.80000  Biso   1.000  C
  C263     1.0000 0.31800  0.65900  0.81800  Biso   1.000  C
  C264     1.0000 0.35800  0.63300  0.79800  Biso   1.000  C
  C265     1.0000 0.33900  0.57800  0.75800  Biso   1.000  C
  C266     1.0000 0.38000  0.73600  0.88000  Biso   1.000  C
  C267     1.0000 0.21400  0.95300  0.58200  Biso   1.000  C
  C268     1.0000 0.23400  0.92800  0.62000  Biso   1.000  C
  C269     1.0000 0.23300  0.87900  0.60800  Biso   1.000  C
  C270     1.0000 0.25400  0.85600  0.64400  Biso   1.000  C
  C271     1.0000 0.27600  0.89200  0.69800  Biso   1.000  C
  C272     1.0000 0.27600  0.94800  0.71400  Biso   1.000  C
  C273     1.0000 0.25900  0.96700  0.67400  Biso   1.000  C
  C274     1.0000 0.29100  0.87000  0.73600  Biso   1.000  C
  C275     1.0000 0.34100  0.84500  0.74200  Biso   1.000  C
  C276     1.0000 0.36700  0.83300  0.78400  Biso   1.000  C
  C277     1.0000 0.34200  0.84600  0.82000  Biso   1.000  C
  C278     1.0000 0.29200  0.87100  0.81400  Biso   1.000  C
  C279     1.0000 0.26600  0.88300  0.77200  Biso   1.000  C
  N37      1.0000 0.02500  0.99300  0.41600  Biso   1.000  N
  N38      1.0000 0.08400  0.00900  0.44800  Biso   1.000  N
  N39      1.0000 0.10100  0.98500  0.48000  Biso   1.000  N
  N40      1.0000 0.22400  0.98500  0.47800  Biso   1.000  N
  N41      1.0000 0.21100  0.01400  0.45000  Biso   1.000  N
  N42      1.0000 0.19900  0.16800  0.56400  Biso   1.000  N
  N43      1.0000 0.18800  0.11300  0.53600  Biso   1.000  N
  N44      1.0000 0.20300  0.08300  0.56400  Biso   1.000  N
  N45      1.0000 0.21300  0.18600  0.47600  Biso   1.000  N
  N46      1.0000 0.20700  0.13300  0.45000  Biso   1.000  N
  N47      1.0000 0.05000  0.00900  0.33400  Biso   1.000  N
  N48      1.0000 0.10700  0.02400  0.36000  Biso   1.000  N
  N49      1.0000 0.14200  0.01400  0.33800  Biso   1.000  N
  N50      1.0000 0.08000  0.12300  0.44600  Biso   1.000  N
  N51      1.0000 0.01900  0.10300  0.41400  Biso   1.000  N
  N52      1.0000 0.23800  0.11700  0.42000  Biso   1.000  N
  N53      1.0000 0.09000  0.17700  0.47800  Biso   1.000  N
  N54      1.0000 0.24000  0.99900  0.42000  Biso   1.000  N
  O25      1.0000 0.90500  0.97100  0.31600  Biso   1.000  O
  O26      1.0000 0.91200  0.03600  0.29800  Biso   1.000  O
  O27      1.0000 0.20800  0.28700  0.58800  Biso   1.000  O
  O28      1.0000 0.17300  0.30700  0.53400  Biso   1.000  O
  O29      1.0000 0.19400  0.92000  0.53800  Biso   1.000  O
  O30      1.0000 0.21800  0.99500  0.59400  Biso   1.000  O
  O31      1.0000 0.25300  0.96500  0.31400  Biso   1.000  O
  O32      1.0000 0.24700  0.05100  0.31000  Biso   1.000  O
  O33      1.0000 0.46700  0.86600  0.99600  Biso   1.000  O
  O34      1.0000 0.38000  0.81100  0.85000  Biso   1.000  O
  O35      1.0000 0.37200  0.86500  0.99200  Biso   1.000  O
  O36      1.0000 0.33400  0.71500  0.85600  Biso   1.000  O
  Zn16     1.0000 0.69860  0.43090  0.55140  Biso   1.000  Zn
  Zn17     1.0000 0.65730  0.49820  0.46940  Biso   1.000  Zn
  Zn18     1.0000 0.62600  0.47710  0.63720  Biso   1.000  Zn
  Zn19     1.0000 0.64850  0.28350  0.47160  Biso   1.000  Zn
  Zn20     1.0000 0.86340  0.46400  0.62720  Biso   1.000  Zn
  H193     1.0000 0.93250  0.35350  0.61620  Biso   1.000  H
  H194     1.0000 0.93080  0.25830  0.58880  Biso   1.000  H
  H195     1.0000 0.84830  0.18820  0.52680  Biso   1.000  H
  H196     1.0000 0.75310  0.20850  0.49640  Biso   1.000  H
  H197     1.0000 0.53050  0.56690  0.62200  Biso   1.000  H
  H198     1.0000 0.48760  0.63030  0.58960  Biso   1.000  H
  H199     1.0000 0.49780  0.63380  0.52160  Biso   1.000  H
  H200     1.0000 0.56200  0.58850  0.48580  Biso   1.000  H
  H201     1.0000 0.76830  0.59830  0.49820  Biso   1.000  H
  H202     1.0000 0.86630  0.64470  0.53720  Biso   1.000  H
  H203     1.0000 0.94370  0.63010  0.59120  Biso   1.000  H
  H204     1.0000 0.93680  0.56820  0.61960  Biso   1.000  H
  H205     1.0000 0.51990  0.38160  0.62360  Biso   1.000  H
  H206     1.0000 0.53900  0.21850  0.48580  Biso   1.000  H
  H207     1.0000 0.45970  0.22060  0.51500  Biso   1.000  H
  H208     1.0000 0.45860  0.29890  0.58540  Biso   1.000  H
  H209     1.0000 0.58570  0.23660  0.33680  Biso   1.000  H
  H210     1.0000 0.53950  0.24720  0.26120  Biso   1.000  H
  H211     1.0000 0.53420  0.32470  0.25900  Biso   1.000  H
  H212     1.0000 0.59260  0.41220  0.33660  Biso   1.000  H
  H213     1.0000 0.90490  0.53090  0.75860  Biso   1.000  H
  H214     1.0000 0.90360  0.58290  0.84020  Biso   1.000  H
  H215     1.0000 0.81150  0.59000  0.84540  Biso   1.000  H
  H216     1.0000 0.72080  0.54510  0.76920  Biso   1.000  H
  H217     1.0000 0.03320  0.60100  0.75740  Biso   1.000  H
  H218     1.0000 0.13960  0.62700  0.81680  Biso   1.000  H
  H219     1.0000 0.11770  0.49050  0.83260  Biso   1.000  H
  H220     1.0000 0.03060  0.45610  0.74860  Biso   1.000  H
  H221     1.0000 0.21130  0.67460  0.90880  Biso   1.000  H
  H222     1.0000 0.30780  0.70550  0.97940  Biso   1.000  H
  H223     1.0000 0.31800  0.54770  0.95140  Biso   1.000  H
  H224     1.0000 0.22170  0.51680  0.88100  Biso   1.000  H
  H225     1.0000 0.37780  0.71920  0.03220  Biso   1.000  H
  H226     1.0000 0.36760  0.67990  0.05460  Biso   1.000  H
  H227     1.0000 0.62100  0.48480  0.78840  Biso   1.000  H
  H228     1.0000 0.59800  0.52430  0.86240  Biso   1.000  H
  H229     1.0000 0.51000  0.62520  0.80380  Biso   1.000  H
  H230     1.0000 0.54840  0.59430  0.74420  Biso   1.000  H
  H231     1.0000 0.52610  0.52560  0.89040  Biso   1.000  H
  H232     1.0000 0.49860  0.55500  0.95980  Biso   1.000  H
  H233     1.0000 0.50410  0.70820  0.97080  Biso   1.000  H
  H234     1.0000 0.53160  0.67880  0.90140  Biso   1.000  H
  H235     1.0000 0.53140  0.68650  0.06500  Biso   1.000  H
  H236     1.0000 0.48880  0.70740  0.02640  Biso   1.000  H
  H237     1.0000 0.48130  0.63620  0.08120  Biso   1.000  H
  H238     1.0000 0.44730  0.66480  0.11560  Biso   1.000  H
  H239     1.0000 0.53630  0.12940  0.32560  Biso   1.000  H
  H240     1.0000 0.54360  0.04280  0.25660  Biso   1.000  H
  H241     1.0000 0.59880  0.99590  0.36660  Biso   1.000  H
  H242     1.0000 0.63160  0.09180  0.42940  Biso   1.000  H
  H243     1.0000 0.45430  0.94520  0.25060  Biso   1.000  H
  H244     1.0000 0.42050  0.85260  0.18600  Biso   1.000  H
  H245     1.0000 0.58710  0.84740  0.19080  Biso   1.000  H
  H246     1.0000 0.62080  0.94000  0.25520  Biso   1.000  H
  H247     1.0000 0.50710  0.78460  0.10300  Biso   1.000  H
  H248     1.0000 0.53920  0.75910  0.14160  Biso   1.000  H
  H249     1.0000 0.64500  0.64530  0.42820  Biso   1.000  H
  H250     1.0000 0.62200  0.68220  0.36820  Biso   1.000  H
  H251     1.0000 0.53670  0.52770  0.25000  Biso   1.000  H
  H252     1.0000 0.58050  0.49470  0.31680  Biso   1.000  H
  H253     1.0000 0.63990  0.66360  0.28220  Biso   1.000  H
  H254     1.0000 0.61200  0.68390  0.21180  Biso   1.000  H
  H255     1.0000 0.43690  0.62030  0.16180  Biso   1.000  H
  H256     1.0000 0.46500  0.60000  0.23240  Biso   1.000  H
  C280     1.0000 0.78400  0.29300  0.53600  Biso   1.000  C
  C281     1.0000 0.83300  0.33500  0.57000  Biso   1.000  C
  C282     1.0000 0.89800  0.32600  0.59400  Biso   1.000  C
  C283     1.0000 0.89400  0.26900  0.57400  Biso   1.000  C
  C284     1.0000 0.84300  0.22500  0.53800  Biso   1.000  C
  C285     1.0000 0.78800  0.23700  0.52000  Biso   1.000  C
  C286     1.0000 0.58100  0.54700  0.53200  Biso   1.000  C
  C287     1.0000 0.57600  0.54100  0.57200  Biso   1.000  C
  C288     1.0000 0.53700  0.57100  0.59600  Biso   1.000  C
  C289     1.0000 0.51100  0.60800  0.57600  Biso   1.000  C
  C290     1.0000 0.51900  0.61100  0.53400  Biso   1.000  C
  C291     1.0000 0.55600  0.58400  0.51200  Biso   1.000  C
  C292     1.0000 0.79600  0.55100  0.53800  Biso   1.000  C
  C293     1.0000 0.80100  0.59100  0.52200  Biso   1.000  C
  C294     1.0000 0.85900  0.61700  0.54600  Biso   1.000  C
  C295     1.0000 0.90500  0.60900  0.57800  Biso   1.000  C
  C296     1.0000 0.90300  0.57300  0.59600  Biso   1.000  C
  C297     1.0000 0.84100  0.54000  0.57400  Biso   1.000  C
  C298     1.0000 0.52200  0.35100  0.59600  Biso   1.000  C
  C299     1.0000 0.56500  0.35500  0.57200  Biso   1.000  C
  C300     1.0000 0.57100  0.30400  0.53200  Biso   1.000  C
  C301     1.0000 0.53400  0.25100  0.51000  Biso   1.000  C
  C302     1.0000 0.48800  0.25300  0.53000  Biso   1.000  C
  C303     1.0000 0.48600  0.30200  0.57200  Biso   1.000  C
  C304     1.0000 0.61000  0.37100  0.38400  Biso   1.000  C
  C305     1.0000 0.60700  0.32400  0.38400  Biso   1.000  C
  C306     1.0000 0.58400  0.27100  0.33800  Biso   1.000  C
  C307     1.0000 0.55800  0.27900  0.29400  Biso   1.000  C
  C308     1.0000 0.55700  0.32600  0.29200  Biso   1.000  C
  C309     1.0000 0.58800  0.37900  0.33800  Biso   1.000  C
  C310     1.0000 0.75800  0.51100  0.71800  Biso   1.000  C
  C311     1.0000 0.81300  0.50700  0.71400  Biso   1.000  C
  C312     1.0000 0.86800  0.53400  0.76000  Biso   1.000  C
  C313     1.0000 0.86700  0.56500  0.81000  Biso   1.000  C
  C314     1.0000 0.81200  0.56900  0.81200  Biso   1.000  C
  C315     1.0000 0.75800  0.54200  0.76800  Biso   1.000  C
  C316     1.0000 0.95600  0.49500  0.69800  Biso   1.000  C
  C317     1.0000 0.01800  0.52400  0.74600  Biso   1.000  C
  C318     1.0000 0.05100  0.57600  0.76800  Biso   1.000  C
  C319     1.0000 0.11600  0.59500  0.81000  Biso   1.000  C
  C320     1.0000 0.14200  0.56800  0.84000  Biso   1.000  C
  C321     1.0000 0.10500  0.51400  0.81600  Biso   1.000  C
  C322     1.0000 0.04700  0.49400  0.76600  Biso   1.000  C
  C323     1.0000 0.23300  0.64900  0.91800  Biso   1.000  C
  C324     1.0000 0.29100  0.66800  0.96000  Biso   1.000  C
  C325     1.0000 0.32200  0.63000  0.97200  Biso   1.000  C
  C326     1.0000 0.29600  0.57300  0.94200  Biso   1.000  C
  C327     1.0000 0.23900  0.55500  0.90000  Biso   1.000  C
  C328     1.0000 0.20700  0.59300  0.88800  Biso   1.000  C
  C329     1.0000 0.39100  0.68800  0.03800  Biso   1.000  C
  C330     1.0000 0.59700  0.50300  0.70600  Biso   1.000  C
  C331     1.0000 0.57800  0.53200  0.75400  Biso   1.000  C
  C332     1.0000 0.59800  0.51300  0.79200  Biso   1.000  C
  C333     1.0000 0.58400  0.53600  0.83600  Biso   1.000  C
  C334     1.0000 0.54900  0.58000  0.84000  Biso   1.000  C
  C335     1.0000 0.53300  0.59800  0.80200  Biso   1.000  C
  C336     1.0000 0.55300  0.57600  0.76400  Biso   1.000  C
  C337     1.0000 0.53100  0.59900  0.88800  Biso   1.000  C
  C338     1.0000 0.52100  0.56200  0.90600  Biso   1.000  C
  C339     1.0000 0.50500  0.58000  0.94800  Biso   1.000  C
  C340     1.0000 0.49900  0.63500  0.97200  Biso   1.000  C
  C341     1.0000 0.50800  0.67200  0.95400  Biso   1.000  C
  C342     1.0000 0.52500  0.65400  0.91400  Biso   1.000  C
  C343     1.0000 0.48900  0.68300  0.04200  Biso   1.000  C
  C344     1.0000 0.45700  0.70600  0.07800  Biso   1.000  C
  C345     1.0000 0.47900  0.67200  0.10600  Biso   1.000  C
  C346     1.0000 0.62000  0.18200  0.42000  Biso   1.000  C
  C347     1.0000 0.60100  0.12000  0.38000  Biso   1.000  C
  C348     1.0000 0.56100  0.11000  0.33400  Biso   1.000  C
  C349     1.0000 0.55400  0.05000  0.29200  Biso   1.000  C
  C350     1.0000 0.56100  0.00900  0.30200  Biso   1.000  C
  C351     1.0000 0.59200  0.02300  0.35600  Biso   1.000  C
  C352     1.0000 0.61100  0.08200  0.39400  Biso   1.000  C
  C353     1.0000 0.54100  0.95200  0.26000  Biso   1.000  C
  C354     1.0000 0.48100  0.92600  0.23800  Biso   1.000  C
  C355     1.0000 0.46100  0.87000  0.20000  Biso   1.000  C
  C356     1.0000 0.50000  0.84100  0.18200  Biso   1.000  C
  C357     1.0000 0.56000  0.86700  0.20200  Biso   1.000  C
  C358     1.0000 0.58100  0.92200  0.24200  Biso   1.000  C
  C359     1.0000 0.50000  0.76400  0.12000  Biso   1.000  C
  C360     1.0000 0.63200  0.54700  0.41800  Biso   1.000  C
  C361     1.0000 0.61400  0.57200  0.38000  Biso   1.000  C
  C362     1.0000 0.62500  0.62100  0.39200  Biso   1.000  C
  C363     1.0000 0.61000  0.64400  0.35600  Biso   1.000  C
  C364     1.0000 0.57800  0.60800  0.30200  Biso   1.000  C
  C365     1.0000 0.56200  0.55200  0.28600  Biso   1.000  C
  C366     1.0000 0.58500  0.53300  0.32600  Biso   1.000  C
  C367     1.0000 0.55500  0.63000  0.26400  Biso   1.000  C
  C368     1.0000 0.59900  0.65500  0.25800  Biso   1.000  C
  C369     1.0000 0.58300  0.66700  0.21600  Biso   1.000  C
  C370     1.0000 0.52200  0.65400  0.18000  Biso   1.000  C
  C371     1.0000 0.47800  0.62900  0.18600  Biso   1.000  C
  C372     1.0000 0.49400  0.61700  0.22800  Biso   1.000  C
  N55      1.0000 0.60900  0.50700  0.58400  Biso   1.000  N
  N56      1.0000 0.63600  0.49100  0.55200  Biso   1.000  N
  N57      1.0000 0.62100  0.51500  0.52000  Biso   1.000  N
  N58      1.0000 0.74600  0.51500  0.52200  Biso   1.000  N
  N59      1.0000 0.76100  0.48600  0.55000  Biso   1.000  N
  N60      1.0000 0.63500  0.33200  0.43600  Biso   1.000  N
  N61      1.0000 0.65200  0.38700  0.46400  Biso   1.000  N
  N62      1.0000 0.63900  0.41700  0.43600  Biso   1.000  N
  N63      1.0000 0.73700  0.31400  0.52400  Biso   1.000  N
  N64      1.0000 0.75700  0.36700  0.55000  Biso   1.000  N
  N65      1.0000 0.71600  0.49100  0.66600  Biso   1.000  N
  N66      1.0000 0.74700  0.47600  0.64000  Biso   1.000  N
  N67      1.0000 0.80400  0.48600  0.66200  Biso   1.000  N
  N68      1.0000 0.63400  0.37700  0.55400  Biso   1.000  N
  N69      1.0000 0.60500  0.39700  0.58600  Biso   1.000  N
  N70      1.0000 0.81800  0.38300  0.58000  Biso   1.000  N
  N71      1.0000 0.61200  0.32300  0.52200  Biso   1.000  N
  N72      1.0000 0.82000  0.50100  0.58000  Biso   1.000  N
  O37      1.0000 0.58900  0.52900  0.68400  Biso   1.000  O
  O38      1.0000 0.61400  0.46400  0.70200  Biso   1.000  O
  O39      1.0000 0.62000  0.21300  0.41200  Biso   1.000  O
  O40      1.0000 0.63900  0.19300  0.46600  Biso   1.000  O
  O41      1.0000 0.65600  0.58000  0.46200  Biso   1.000  O
  O42      1.0000 0.62400  0.50500  0.40600  Biso   1.000  O
  O43      1.0000 0.93900  0.53500  0.68600  Biso   1.000  O
  O44      1.0000 0.93700  0.44900  0.69000  Biso   1.000  O
  O45      1.0000 0.47100  0.63400  0.00400  Biso   1.000  O
  O46      1.0000 0.53000  0.68900  0.15000  Biso   1.000  O
  O47      1.0000 0.38000  0.63500  0.00800  Biso   1.000  O
  O48      1.0000 0.47800  0.78500  0.14400  Biso   1.000  O
