data_image0
_cell_length_a       27.9608
_cell_length_b       27.9608
_cell_length_c       27.9608
_cell_angle_alpha    66.3453
_cell_angle_beta     78.6061
_cell_angle_gamma    113.655

_symmetry_space_group_name_H-M    P 1
_symmetry_int_tables_number       1

loop_
  _symmetry_equiv_pos_as_xyz
  'x, y, z'

loop_
  _atom_site_label
  _atom_site_occupancy
  _atom_site_fract_x
  _atom_site_fract_y
  _atom_site_fract_z
  _atom_site_thermal_displace_type
  _atom_site_B_iso_or_equiv
  _atom_site_type_symbol
  V1       1.0000 0.35230  0.60519  0.34507  Biso   1.000  V
  V2       1.0000 0.34935  0.69854  0.24305  Biso   1.000  V
  V3       1.0000 0.42671  0.82913  0.15852  Biso   1.000  V
  V4       1.0000 0.52548  0.92995  0.15293  Biso   1.000  V
  V5       1.0000 0.60039  0.93830  0.20679  Biso   1.000  V
  V6       1.0000 0.59988  0.84728  0.31268  Biso   1.000  V
  V7       1.0000 0.52949  0.70647  0.39446  Biso   1.000  V
  V8       1.0000 0.42557  0.60878  0.41383  Biso   1.000  V
  V9       1.0000 0.45499  0.70272  0.18967  Biso   1.000  V
  V10      1.0000 0.57480  0.74923  0.17799  Biso   1.000  V
  V11      1.0000 0.57585  0.86692  0.11685  Biso   1.000  V
  V12      1.0000 0.50266  0.64094  0.30260  Biso   1.000  V
  V13      1.0000 0.37455  0.83077  0.26200  Biso   1.000  V
  V14      1.0000 0.37696  0.78852  0.38068  Biso   1.000  V
  V15      1.0000 0.45099  0.74457  0.42668  Biso   1.000  V
  V16      1.0000 0.49334  0.89539  0.30265  Biso   1.000  V
  V17      1.0000 0.04974  0.39481  0.25289  Biso   1.000  V
  V18      1.0000 0.05841  0.30146  0.34919  Biso   1.000  V
  V19      1.0000 0.01235  0.17087  0.40242  Biso   1.000  V
  V20      1.0000 0.91712  0.07005  0.40447  Biso   1.000  V
  V21      1.0000 0.85491  0.06170  0.33791  Biso   1.000  V
  V22      1.0000 0.84004  0.15272  0.24740  Biso   1.000  V
  V23      1.0000 0.89907  0.29353  0.17698  Biso   1.000  V
  V24      1.0000 0.97739  0.39122  0.18321  Biso   1.000  V
  V25      1.0000 0.10761  0.29728  0.24773  Biso   1.000  V
  V26      1.0000 0.07278  0.25077  0.17443  Biso   1.000  V
  V27      1.0000 0.01623  0.13308  0.29107  Biso   1.000  V
  V28      1.0000 0.05646  0.35906  0.13828  Biso   1.000  V
  V29      1.0000 0.90723  0.16923  0.45622  Biso   1.000  V
  V30      1.0000 0.83080  0.21148  0.41156  Biso   1.000  V
  V31      1.0000 0.82875  0.25543  0.29358  Biso   1.000  V
  V32      1.0000 0.80196  0.10461  0.40205  Biso   1.000  V
  V33      1.0000 0.99711  0.19737  0.89770  Biso   1.000  V
  V34      1.0000 0.90081  0.09240  0.90065  Biso   1.000  V
  V35      1.0000 0.84758  0.08523  0.82329  Biso   1.000  V
  V36      1.0000 0.84553  0.17841  0.72452  Biso   1.000  V
  V37      1.0000 0.91209  0.30718  0.64961  Biso   1.000  V
  V38      1.0000 0.00260  0.41256  0.65012  Biso   1.000  V
  V39      1.0000 0.07302  0.42395  0.72051  Biso   1.000  V
  V40      1.0000 0.06679  0.33940  0.82443  Biso   1.000  V
  V41      1.0000 0.00227  0.14466  0.79501  Biso   1.000  V
  V42      1.0000 0.07557  0.25279  0.67520  Biso   1.000  V
  V43      1.0000 0.95893  0.19270  0.67415  Biso   1.000  V
  V44      1.0000 0.11172  0.30526  0.74734  Biso   1.000  V
  V45      1.0000 0.79378  0.13655  0.87545  Biso   1.000  V
  V46      1.0000 0.83844  0.25764  0.87304  Biso   1.000  V
  V47      1.0000 0.95642  0.37767  0.79901  Biso   1.000  V
  V48      1.0000 0.84795  0.29599  0.75666  Biso   1.000  V
  V49      1.0000 0.90493  0.80263  0.20026  Biso   1.000  V
  V50      1.0000 0.00695  0.90760  0.19159  Biso   1.000  V
  V51      1.0000 0.09148  0.91477  0.23765  Biso   1.000  V
  V52      1.0000 0.09707  0.82159  0.33288  Biso   1.000  V
  V53      1.0000 0.04321  0.69282  0.39509  Biso   1.000  V
  V54      1.0000 0.93732  0.58744  0.40996  Biso   1.000  V
  V55      1.0000 0.85554  0.57605  0.35093  Biso   1.000  V
  V56      1.0000 0.83617  0.66060  0.27261  Biso   1.000  V
  V57      1.0000 0.06033  0.85534  0.14239  Biso   1.000  V
  V58      1.0000 0.07201  0.74721  0.17722  Biso   1.000  V
  V59      1.0000 0.13315  0.80730  0.23377  Biso   1.000  V
  V60      1.0000 0.94740  0.69474  0.19354  Biso   1.000  V
  V61      1.0000 0.98800  0.86345  0.34277  Biso   1.000  V
  V62      1.0000 0.86932  0.74236  0.41920  Biso   1.000  V
  V63      1.0000 0.82332  0.62233  0.42125  Biso   1.000  V
  V64      1.0000 0.94735  0.70401  0.44804  Biso   1.000  V
  V65      1.0000 0.54974  0.30263  0.84507  Biso   1.000  V
  V66      1.0000 0.55841  0.40760  0.74305  Biso   1.000  V
  V67      1.0000 0.51235  0.41477  0.65852  Biso   1.000  V
  V68      1.0000 0.41712  0.32159  0.65293  Biso   1.000  V
  V69      1.0000 0.35491  0.19282  0.70679  Biso   1.000  V
  V70      1.0000 0.34004  0.08744  0.81268  Biso   1.000  V
  V71      1.0000 0.39907  0.07605  0.89446  Biso   1.000  V
  V72      1.0000 0.47739  0.16060  0.91383  Biso   1.000  V
  V73      1.0000 0.60761  0.35534  0.68967  Biso   1.000  V
  V74      1.0000 0.57278  0.24721  0.67799  Biso   1.000  V
  V75      1.0000 0.51623  0.30730  0.61685  Biso   1.000  V
  V76      1.0000 0.55646  0.19474  0.80260  Biso   1.000  V
  V77      1.0000 0.40723  0.36345  0.76200  Biso   1.000  V
  V78      1.0000 0.33080  0.24236  0.88068  Biso   1.000  V
  V79      1.0000 0.32875  0.12233  0.92668  Biso   1.000  V
  V80      1.0000 0.30196  0.20401  0.80265  Biso   1.000  V
  V81      1.0000 0.85230  0.69737  0.75289  Biso   1.000  V
  V82      1.0000 0.84935  0.59240  0.84919  Biso   1.000  V
  V83      1.0000 0.92671  0.58523  0.90242  Biso   1.000  V
  V84      1.0000 0.02548  0.67841  0.90447  Biso   1.000  V
  V85      1.0000 0.10039  0.80718  0.83791  Biso   1.000  V
  V86      1.0000 0.09988  0.91256  0.74740  Biso   1.000  V
  V87      1.0000 0.02949  0.92395  0.67698  Biso   1.000  V
  V88      1.0000 0.92557  0.83940  0.68321  Biso   1.000  V
  V89      1.0000 0.95499  0.64466  0.74773  Biso   1.000  V
  V90      1.0000 0.07480  0.75279  0.67443  Biso   1.000  V
  V91      1.0000 0.07585  0.69270  0.79107  Biso   1.000  V
  V92      1.0000 0.00266  0.80526  0.63828  Biso   1.000  V
  V93      1.0000 0.87455  0.63655  0.95622  Biso   1.000  V
  V94      1.0000 0.87696  0.75764  0.91156  Biso   1.000  V
  V95      1.0000 0.95099  0.87767  0.79358  Biso   1.000  V
  V96      1.0000 0.99334  0.79599  0.90205  Biso   1.000  V
  V97      1.0000 0.40493  0.10519  0.39770  Biso   1.000  V
  V98      1.0000 0.50695  0.19854  0.40065  Biso   1.000  V
  V99      1.0000 0.59148  0.32913  0.32329  Biso   1.000  V
  V100     1.0000 0.59707  0.42995  0.22452  Biso   1.000  V
  V101     1.0000 0.54321  0.43830  0.14961  Biso   1.000  V
  V102     1.0000 0.43732  0.34728  0.15012  Biso   1.000  V
  V103     1.0000 0.35554  0.20647  0.22051  Biso   1.000  V
  V104     1.0000 0.33617  0.10878  0.32443  Biso   1.000  V
  V105     1.0000 0.56033  0.20272  0.29501  Biso   1.000  V
  V106     1.0000 0.57201  0.24923  0.17520  Biso   1.000  V
  V107     1.0000 0.63315  0.36692  0.17415  Biso   1.000  V
  V108     1.0000 0.44740  0.14094  0.24734  Biso   1.000  V
  V109     1.0000 0.48800  0.33077  0.37545  Biso   1.000  V
  V110     1.0000 0.36932  0.28852  0.37304  Biso   1.000  V
  V111     1.0000 0.32332  0.24457  0.29901  Biso   1.000  V
  V112     1.0000 0.44735  0.39539  0.25666  Biso   1.000  V
  V113     1.0000 0.49711  0.89481  0.70026  Biso   1.000  V
  V114     1.0000 0.40081  0.80146  0.69159  Biso   1.000  V
  V115     1.0000 0.34758  0.67087  0.73765  Biso   1.000  V
  V116     1.0000 0.34553  0.57005  0.83288  Biso   1.000  V
  V117     1.0000 0.41209  0.56170  0.89509  Biso   1.000  V
  V118     1.0000 0.50260  0.65272  0.90996  Biso   1.000  V
  V119     1.0000 0.57302  0.79353  0.85093  Biso   1.000  V
  V120     1.0000 0.56679  0.89122  0.77261  Biso   1.000  V
  V121     1.0000 0.50227  0.79728  0.64239  Biso   1.000  V
  V122     1.0000 0.57557  0.75077  0.67722  Biso   1.000  V
  V123     1.0000 0.45893  0.63308  0.73377  Biso   1.000  V
  V124     1.0000 0.61172  0.85906  0.69354  Biso   1.000  V
  V125     1.0000 0.29378  0.66923  0.84277  Biso   1.000  V
  V126     1.0000 0.33844  0.71148  0.91920  Biso   1.000  V
  V127     1.0000 0.45642  0.75543  0.92125  Biso   1.000  V
  V128     1.0000 0.34795  0.60461  0.94804  Biso   1.000  V
  Co1      1.0000 0.20581  0.66239  0.27964  Biso   1.000  Co
  Co2      1.0000 0.73379  0.04386  0.09661  Biso   1.000  Co
  Co3      1.0000 0.44768  0.70899  0.06431  Biso   1.000  Co
  Co4      1.0000 0.44991  0.93800  0.02187  Biso   1.000  Co
  Co5      1.0000 0.05797  0.33761  0.45658  Biso   1.000  Co
  Co6      1.0000 0.85953  0.95614  0.31007  Biso   1.000  Co
  Co7      1.0000 0.22670  0.29101  0.26131  Biso   1.000  Co
  Co8      1.0000 0.04013  0.06200  0.48809  Biso   1.000  Co
  Co9      1.0000 0.79342  0.98545  0.04419  Biso   1.000  Co
  Co10     1.0000 0.93993  0.33040  0.51621  Biso   1.000  Co
  Co11     1.0000 0.98869  0.01199  0.80232  Biso   1.000  Co
  Co12     1.0000 0.76191  0.97178  0.80009  Biso   1.000  Co
  Co13     1.0000 0.97036  0.01455  0.19203  Biso   1.000  Co
  Co14     1.0000 0.15339  0.66960  0.39047  Biso   1.000  Co
  Co15     1.0000 0.18569  0.98801  0.02330  Biso   1.000  Co
  Co16     1.0000 0.22813  0.02822  0.20987  Biso   1.000  Co
  Co17     1.0000 0.55797  0.51455  0.77964  Biso   1.000  Co
  Co18     1.0000 0.35953  0.16960  0.59661  Biso   1.000  Co
  Co19     1.0000 0.72670  0.48801  0.56431  Biso   1.000  Co
  Co20     1.0000 0.54013  0.52822  0.52187  Biso   1.000  Co
  Co21     1.0000 0.70581  0.48545  0.95658  Biso   1.000  Co
  Co22     1.0000 0.23379  0.83040  0.81007  Biso   1.000  Co
  Co23     1.0000 0.94768  0.51199  0.76131  Biso   1.000  Co
  Co24     1.0000 0.94991  0.47178  0.98809  Biso   1.000  Co
  Co25     1.0000 0.47036  0.16239  0.54419  Biso   1.000  Co
  Co26     1.0000 0.65339  0.54386  0.01621  Biso   1.000  Co
  Co27     1.0000 0.68569  0.20899  0.30232  Biso   1.000  Co
  Co28     1.0000 0.72813  0.43800  0.30009  Biso   1.000  Co
  Co29     1.0000 0.29342  0.83761  0.69203  Biso   1.000  Co
  Co30     1.0000 0.43993  0.45614  0.89047  Biso   1.000  Co
  Co31     1.0000 0.48869  0.79101  0.52330  Biso   1.000  Co
  Co32     1.0000 0.26191  0.56200  0.70987  Biso   1.000  Co
  Ge1      1.0000 0.28138  0.67955  0.36271  Biso   1.000  Ge
  Ge2      1.0000 0.32184  0.63322  0.45328  Biso   1.000  Ge
  Ge3      1.0000 0.66977  0.88126  0.17267  Biso   1.000  Ge
  Ge4      1.0000 0.63320  0.75765  0.27199  Biso   1.000  Ge
  Ge5      1.0000 0.95774  0.32045  0.39817  Biso   1.000  Ge
  Ge6      1.0000 0.91350  0.36678  0.31138  Biso   1.000  Ge
  Ge7      1.0000 0.94607  0.11874  0.21149  Biso   1.000  Ge
  Ge8      1.0000 0.97036  0.24235  0.12445  Biso   1.000  Ge
  Ge9      1.0000 0.85183  0.14409  0.96862  Biso   1.000  Ge
  Ge10     1.0000 0.93862  0.27512  0.92816  Biso   1.000  Ge
  Ge11     1.0000 0.03851  0.34244  0.58023  Biso   1.000  Ge
  Ge12     1.0000 0.12555  0.40519  0.61680  Biso   1.000  Ge
  Ge13     1.0000 0.88729  0.85591  0.29226  Biso   1.000  Ge
  Ge14     1.0000 0.79672  0.72488  0.33650  Biso   1.000  Ge
  Ge15     1.0000 0.07733  0.65756  0.30393  Biso   1.000  Ge
  Ge16     1.0000 0.97801  0.59481  0.27964  Biso   1.000  Ge
  Ge17     1.0000 0.45774  0.35591  0.86271  Biso   1.000  Ge
  Ge18     1.0000 0.41350  0.22488  0.95328  Biso   1.000  Ge
  Ge19     1.0000 0.44607  0.15756  0.67267  Biso   1.000  Ge
  Ge20     1.0000 0.47036  0.09481  0.77199  Biso   1.000  Ge
  Ge21     1.0000 0.78138  0.64409  0.89817  Biso   1.000  Ge
  Ge22     1.0000 0.82184  0.77512  0.81138  Biso   1.000  Ge
  Ge23     1.0000 0.16977  0.84244  0.71149  Biso   1.000  Ge
  Ge24     1.0000 0.13320  0.90519  0.62445  Biso   1.000  Ge
  Ge25     1.0000 0.38729  0.17955  0.46862  Biso   1.000  Ge
  Ge26     1.0000 0.29672  0.13322  0.42816  Biso   1.000  Ge
  Ge27     1.0000 0.57733  0.38126  0.08023  Biso   1.000  Ge
  Ge28     1.0000 0.47801  0.25765  0.11680  Biso   1.000  Ge
  Ge29     1.0000 0.35183  0.82045  0.79226  Biso   1.000  Ge
  Ge30     1.0000 0.43862  0.86678  0.83650  Biso   1.000  Ge
  Ge31     1.0000 0.53851  0.61874  0.80393  Biso   1.000  Ge
  Ge32     1.0000 0.62555  0.74235  0.77964  Biso   1.000  Ge
  H1       1.0000 0.23330  0.77460  0.22550  Biso   1.000  H
  H2       1.0000 0.28720  0.77620  0.21620  Biso   1.000  H
  H3       1.0000 0.21030  0.64670  0.19380  Biso   1.000  H
  H4       1.0000 0.15150  0.63000  0.22210  Biso   1.000  H
  H5       1.0000 0.19520  0.56540  0.35040  Biso   1.000  H
  H6       1.0000 0.14070  0.54860  0.34710  Biso   1.000  H
  H7       1.0000 0.69790  0.04130  0.01940  Biso   1.000  H
  H8       1.0000 0.64740  0.01470  0.07090  Biso   1.000  H
  H9       1.0000 0.74150  0.13890  0.10200  Biso   1.000  H
  H10      1.0000 0.77740  0.16430  0.04190  Biso   1.000  H
  H11      1.0000 0.81620  0.07510  0.12810  Biso   1.000  H
  H12      1.0000 0.76970  0.07250  0.16500  Biso   1.000  H
  H13      1.0000 0.38670  0.73430  0.11720  Biso   1.000  H
  H14      1.0000 0.40410  0.77410  0.05580  Biso   1.000  H
  H15      1.0000 0.36980  0.63150  0.05290  Biso   1.000  H
  H16      1.0000 0.37170  0.59550  0.10660  Biso   1.000  H
  H17      1.0000 0.53000  0.82470  0.00930  Biso   1.000  H
  H18      1.0000 0.52890  0.79530  0.06640  Biso   1.000  H
  H19      1.0000 0.48930  0.64280  0.06310  Biso   1.000  H
  H20      1.0000 0.50990  0.69000  0.00290  Biso   1.000  H
  H21      1.0000 0.47720  0.01000  0.91160  Biso   1.000  H
  H22      1.0000 0.49850  0.05130  0.93220  Biso   1.000  H
  H23      1.0000 0.54110  0.94960  0.03370  Biso   1.000  H
  H24      1.0000 0.53490  0.92560  0.99610  Biso   1.000  H
  H25      1.0000 0.35860  0.93480  0.01840  Biso   1.000  H
  H26      1.0000 0.34150  0.88480  0.07570  Biso   1.000  H
  H27      1.0000 0.48600  0.99380  0.07340  Biso   1.000  H
  H28      1.0000 0.48050  0.03570  0.02620  Biso   1.000  H
  H29      1.0000 0.39110  0.85790  0.99900  Biso   1.000  H
  H30      1.0000 0.44320  0.89210  0.95170  Biso   1.000  H
  H31      1.0000 0.29310  0.76870  0.14460  Biso   1.000  H
  H32      1.0000 0.26650  0.80970  0.13760  Biso   1.000  H
  H33      1.0000 0.17110  0.72280  0.17530  Biso   1.000  H
  H34      1.0000 0.21050  0.72050  0.12860  Biso   1.000  H
  H35      1.0000 0.22630  0.55500  0.28210  Biso   1.000  H
  H36      1.0000 0.16720  0.53700  0.27820  Biso   1.000  H
  H37      1.0000 0.64900  0.09600  0.01940  Biso   1.000  H
  H38      1.0000 0.71610  0.13310  0.98300  Biso   1.000  H
  H39      1.0000 0.65940  0.10650  0.09250  Biso   1.000  H
  H40      1.0000 0.70210  0.17240  0.03650  Biso   1.000  H
  H41      1.0000 0.76910  0.96960  0.18470  Biso   1.000  H
  H42      1.0000 0.72640  0.97290  0.22690  Biso   1.000  H
  H43      1.0000 0.33280  0.70650  0.05290  Biso   1.000  H
  H44      1.0000 0.30380  0.69370  0.11450  Biso   1.000  H
  H45      1.0000 0.31730  0.61250  0.15780  Biso   1.000  H
  H46      1.0000 0.28740  0.60070  0.11830  Biso   1.000  H
  H47      1.0000 0.60710  0.80790  0.01940  Biso   1.000  H
  H48      1.0000 0.58770  0.80570  0.97100  Biso   1.000  H
  H49      1.0000 0.58950  0.71870  0.01500  Biso   1.000  H
  H50      1.0000 0.55660  0.70290  0.07690  Biso   1.000  H
  H51      1.0000 0.57940  0.07290  0.87810  Biso   1.000  H
  H52      1.0000 0.55230  0.00500  0.89230  Biso   1.000  H
  H53      1.0000 0.61140  0.01740  0.93700  Biso   1.000  H
  H54      1.0000 0.58470  0.04540  0.96410  Biso   1.000  H
  H55      1.0000 0.32560  0.93990  0.10310  Biso   1.000  H
  H56      1.0000 0.37010  0.00040  0.04230  Biso   1.000  H
  H57      1.0000 0.41290  0.01210  0.10100  Biso   1.000  H
  H58      1.0000 0.39580  0.94290  0.13330  Biso   1.000  H
  H59      1.0000 0.99990  0.22540  0.54130  Biso   1.000  H
  H60      1.0000 0.00760  0.22380  0.48900  Biso   1.000  H
  H61      1.0000 0.15950  0.35330  0.43640  Biso   1.000  H
  H62      1.0000 0.14790  0.37000  0.47850  Biso   1.000  H
  H63      1.0000 0.08420  0.43460  0.37020  Biso   1.000  H
  H64      1.0000 0.10430  0.45140  0.40790  Biso   1.000  H
  H65      1.0000 0.93930  0.95870  0.34340  Biso   1.000  H
  H66      1.0000 0.91440  0.98530  0.36730  Biso   1.000  H
  H67      1.0000 0.75910  0.86110  0.39740  Biso   1.000  H
  H68      1.0000 0.79380  0.83570  0.38690  Biso   1.000  H
  H69      1.0000 0.79680  0.92490  0.25890  Biso   1.000  H
  H70      1.0000 0.76250  0.92750  0.30280  Biso   1.000  H
  H71      1.0000 0.14850  0.26570  0.34760  Biso   1.000  H
  H72      1.0000 0.17010  0.22590  0.37000  Biso   1.000  H
  H73      1.0000 0.31560  0.36850  0.26170  Biso   1.000  H
  H74      1.0000 0.29790  0.40450  0.22380  Biso   1.000  H
  H75      1.0000 0.16600  0.17530  0.29470  Biso   1.000  H
  H76      1.0000 0.13830  0.20470  0.26640  Biso   1.000  H
  H77      1.0000 0.29410  0.35720  0.15350  Biso   1.000  H
  H78      1.0000 0.30710  0.31000  0.18010  Biso   1.000  H
  H79      1.0000 0.07840  0.99000  0.53280  Biso   1.000  H
  H80      1.0000 0.01650  0.94870  0.55280  Biso   1.000  H
  H81      1.0000 0.01670  0.05040  0.40850  Biso   1.000  H
  H82      1.0000 0.07830  0.07440  0.39070  Biso   1.000  H
  H83      1.0000 0.04680  0.06520  0.57620  Biso   1.000  H
  H84      1.0000 0.03950  0.11520  0.54330  Biso   1.000  H
  H85      1.0000 0.93280  0.00620  0.50780  Biso   1.000  H
  H86      1.0000 0.93810  0.96430  0.55520  Biso   1.000  H
  H87      1.0000 0.14310  0.14210  0.46680  Biso   1.000  H
  H88      1.0000 0.15620  0.10790  0.44890  Biso   1.000  H
  H89      1.0000 0.08670  0.23130  0.47560  Biso   1.000  H
  H90      1.0000 0.05270  0.19030  0.54320  Biso   1.000  H
  H91      1.0000 0.10190  0.27720  0.55170  Biso   1.000  H
  H92      1.0000 0.15090  0.27950  0.51000  Biso   1.000  H
  H93      1.0000 0.16290  0.44500  0.32870  Biso   1.000  H
  H94      1.0000 0.18480  0.46300  0.36980  Biso   1.000  H
  H95      1.0000 0.88460  0.90400  0.44700  Biso   1.000  H
  H96      1.0000 0.88390  0.86690  0.41700  Biso   1.000  H
  H97      1.0000 0.80100  0.89350  0.44710  Biso   1.000  H
  H98      1.0000 0.79110  0.82760  0.47030  Biso   1.000  H
  H99      1.0000 0.84570  0.03040  0.20050  Biso   1.000  H
  H100     1.0000 0.80020  0.02710  0.24650  Biso   1.000  H
  H101     1.0000 0.24060  0.29350  0.37370  Biso   1.000  H
  H102     1.0000 0.19180  0.30630  0.38990  Biso   1.000  H
  H103     1.0000 0.22970  0.38750  0.29520  Biso   1.000  H
  H104     1.0000 0.28100  0.39930  0.31330  Biso   1.000  H
  H105     1.0000 0.17270  0.19210  0.20080  Biso   1.000  H
  H106     1.0000 0.22330  0.19430  0.21800  Biso   1.000  H
  H107     1.0000 0.26630  0.28130  0.12920  Biso   1.000  H
  H108     1.0000 0.22020  0.29710  0.14630  Biso   1.000  H
  H109     1.0000 0.04900  0.92710  0.49350  Biso   1.000  H
  H110     1.0000 0.10270  0.99500  0.45270  Biso   1.000  H
  H111     1.0000 0.04560  0.98260  0.40600  Biso   1.000  H
  H112     1.0000 0.99050  0.95460  0.46070  Biso   1.000  H
  H113     1.0000 0.95700  0.06010  0.61430  Biso   1.000  H
  H114     1.0000 0.95730  0.99960  0.63030  Biso   1.000  H
  H115     1.0000 0.88690  0.98790  0.59920  Biso   1.000  H
  H116     1.0000 0.92380  0.05710  0.54710  Biso   1.000  H
  H117     1.0000 0.70870  0.95880  0.01670  Biso   1.000  H
  H118     1.0000 0.76100  0.00340  0.96280  Biso   1.000  H
  H119     1.0000 0.81360  0.90410  0.03970  Biso   1.000  H
  H120     1.0000 0.77150  0.87360  0.09850  Biso   1.000  H
  H121     1.0000 0.87980  0.04560  0.05480  Biso   1.000  H
  H122     1.0000 0.84210  0.98780  0.10930  Biso   1.000  H
  H123     1.0000 0.90660  0.21730  0.55210  Biso   1.000  H
  H124     1.0000 0.88270  0.21830  0.60260  Biso   1.000  H
  H125     1.0000 0.85260  0.34350  0.50850  Biso   1.000  H
  H126     1.0000 0.86310  0.31930  0.47260  Biso   1.000  H
  H127     1.0000 0.99110  0.44430  0.43380  Biso   1.000  H
  H128     1.0000 0.94720  0.43470  0.48030  Biso   1.000  H
  H129     1.0000 0.90240  0.00390  0.86330  Biso   1.000  H
  H130     1.0000 0.88000  0.95990  0.84590  Biso   1.000  H
  H131     1.0000 0.98830  0.92270  0.88020  Biso   1.000  H
  H132     1.0000 0.02620  0.97830  0.87830  Biso   1.000  H
  H133     1.0000 0.95530  0.03930  0.72000  Biso   1.000  H
  H134     1.0000 0.98360  0.09530  0.72110  Biso   1.000  H
  H135     1.0000 0.09650  0.05240  0.76070  Biso   1.000  H
  H136     1.0000 0.06990  0.01280  0.74010  Biso   1.000  H
  H137     1.0000 0.71720  0.88880  0.77280  Biso   1.000  H
  H138     1.0000 0.69720  0.93070  0.75150  Biso   1.000  H
  H139     1.0000 0.84150  0.07480  0.70890  Biso   1.000  H
  H140     1.0000 0.85930  0.03100  0.71510  Biso   1.000  H
  H141     1.0000 0.67380  0.87700  0.89140  Biso   1.000  H
  H142     1.0000 0.70670  0.91720  0.90850  Biso   1.000  H
  H143     1.0000 0.74220  0.05940  0.76400  Biso   1.000  H
  H144     1.0000 0.69480  0.00670  0.76950  Biso   1.000  H
  H145     1.0000 0.78320  0.89010  0.85890  Biso   1.000  H
  H146     1.0000 0.80110  0.89490  0.80680  Biso   1.000  H
  H147     1.0000 0.77440  0.93770  0.95690  Biso   1.000  H
  H148     1.0000 0.70680  0.90410  0.98350  Biso   1.000  H
  H149     1.0000 0.69830  0.84640  0.07890  Biso   1.000  H
  H150     1.0000 0.74000  0.83910  0.03950  Biso   1.000  H
  H151     1.0000 0.92130  0.00840  0.02370  Biso   1.000  H
  H152     1.0000 0.88020  0.94540  0.08280  Biso   1.000  H
  H153     1.0000 0.80300  0.16840  0.60100  Biso   1.000  H
  H154     1.0000 0.83300  0.19910  0.53390  Biso   1.000  H
  H155     1.0000 0.80290  0.25190  0.59060  Biso   1.000  H
  H156     1.0000 0.77970  0.23860  0.54790  Biso   1.000  H
  H157     1.0000 0.04950  0.45380  0.48090  Biso   1.000  H
  H158     1.0000 0.00350  0.45330  0.52360  Biso   1.000  H
  H159     1.0000 0.87630  0.88570  0.91720  Biso   1.000  H
  H160     1.0000 0.86010  0.91830  0.94620  Biso   1.000  H
  H161     1.0000 0.95480  0.97510  0.93270  Biso   1.000  H
  H162     1.0000 0.93670  0.90570  0.96260  Biso   1.000  H
  H163     1.0000 0.04920  0.12650  0.64290  Biso   1.000  H
  H164     1.0000 0.03200  0.05870  0.66230  Biso   1.000  H
  H165     1.0000 0.12080  0.10450  0.66050  Biso   1.000  H
  H166     1.0000 0.10370  0.13350  0.69340  Biso   1.000  H
  H167     1.0000 0.75650  0.95750  0.67060  Biso   1.000  H
  H168     1.0000 0.79730  0.94460  0.69770  Biso   1.000  H
  H169     1.0000 0.84400  0.04840  0.63860  Biso   1.000  H
  H170     1.0000 0.78930  0.04880  0.66530  Biso   1.000  H
  H171     1.0000 0.63570  0.92870  0.92440  Biso   1.000  H
  H172     1.0000 0.61970  0.91240  0.87990  Biso   1.000  H
  H173     1.0000 0.65080  0.01390  0.83710  Biso   1.000  H
  H174     1.0000 0.70290  0.02910  0.85420  Biso   1.000  H
  H175     1.0000 0.02450  0.04120  0.25010  Biso   1.000  H
  H176     1.0000 0.03380  0.99660  0.24240  Biso   1.000  H
  H177     1.0000 0.05620  0.09590  0.09050  Biso   1.000  H
  H178     1.0000 0.02790  0.12640  0.10210  Biso   1.000  H
  H179     1.0000 0.89960  0.95440  0.16580  Biso   1.000  H
  H180     1.0000 0.90290  0.01220  0.14570  Biso   1.000  H
  H181     1.0000 0.23060  0.78270  0.31070  Biso   1.000  H
  H182     1.0000 0.17910  0.78170  0.33560  Biso   1.000  H
  H183     1.0000 0.14800  0.65650  0.49090  Biso   1.000  H
  H184     1.0000 0.20810  0.68070  0.45620  Biso   1.000  H
  H185     1.0000 0.12190  0.55570  0.45320  Biso   1.000  H
  H186     1.0000 0.08500  0.56530  0.48750  Biso   1.000  H
  H187     1.0000 0.13280  0.99610  0.10150  Biso   1.000  H
  H188     1.0000 0.19420  0.04010  0.07990  Biso   1.000  H
  H189     1.0000 0.19710  0.07730  0.93440  Biso   1.000  H
  H190     1.0000 0.14340  0.02170  0.95210  Biso   1.000  H
  H191     1.0000 0.24070  0.96070  0.08400  Biso   1.000  H
  H192     1.0000 0.18360  0.90470  0.11170  Biso   1.000  H
  H193     1.0000 0.18690  0.94760  0.95590  Biso   1.000  H
  H194     1.0000 0.24710  0.98720  0.94290  Biso   1.000  H
  H195     1.0000 0.33840  0.11120  0.17160  Biso   1.000  H
  H196     1.0000 0.31780  0.06930  0.23350  Biso   1.000  H
  H197     1.0000 0.21630  0.92520  0.23330  Biso   1.000  H
  H198     1.0000 0.25390  0.96900  0.17170  Biso   1.000  H
  H199     1.0000 0.23160  0.12300  0.20320  Biso   1.000  H
  H200     1.0000 0.17430  0.08280  0.21050  Biso   1.000  H
  H201     1.0000 0.17660  0.94060  0.31720  Biso   1.000  H
  H202     1.0000 0.22380  0.99330  0.31190  Biso   1.000  H
  H203     1.0000 0.25100  0.10990  0.10690  Biso   1.000  H
  H204     1.0000 0.29830  0.10510  0.09380  Biso   1.000  H
  H205     1.0000 0.10540  0.06230  0.16330  Biso   1.000  H
  H206     1.0000 0.11240  0.09590  0.19730  Biso   1.000  H
  H207     1.0000 0.07470  0.15360  0.14810  Biso   1.000  H
  H208     1.0000 0.12140  0.16090  0.09910  Biso   1.000  H
  H209     1.0000 0.96790  0.99160  0.08710  Biso   1.000  H
  H210     1.0000 0.97180  0.05460  0.06520  Biso   1.000  H
  H211     1.0000 0.23060  0.83160  0.36540  Biso   1.000  H
  H212     1.0000 0.26700  0.80090  0.36610  Biso   1.000  H
  H213     1.0000 0.15750  0.74810  0.44900  Biso   1.000  H
  H214     1.0000 0.21350  0.76140  0.45890  Biso   1.000  H
  H215     1.0000 0.06530  0.54620  0.40430  Biso   1.000  H
  H216     1.0000 0.02310  0.54670  0.44980  Biso   1.000  H
  H217     1.0000 0.19710  0.11430  0.00940  Biso   1.000  H
  H218     1.0000 0.13550  0.08170  0.05820  Biso   1.000  H
  H219     1.0000 0.09220  0.02490  0.02030  Biso   1.000  H
  H220     1.0000 0.13170  0.09430  0.96900  Biso   1.000  H
  H221     1.0000 0.23060  0.87350  0.07730  Biso   1.000  H
  H222     1.0000 0.27900  0.94130  0.02670  Biso   1.000  H
  H223     1.0000 0.23500  0.89550  0.98370  Biso   1.000  H
  H224     1.0000 0.17310  0.86650  0.02980  Biso   1.000  H
  H225     1.0000 0.37190  0.04250  0.20100  Biso   1.000  H
  H226     1.0000 0.35770  0.05540  0.14730  Biso   1.000  H
  H227     1.0000 0.31300  0.95160  0.20440  Biso   1.000  H
  H228     1.0000 0.28590  0.95120  0.25950  Biso   1.000  H
  H229     1.0000 0.14690  0.07130  0.29300  Biso   1.000  H
  H230     1.0000 0.20770  0.08760  0.29270  Biso   1.000  H
  H231     1.0000 0.14900  0.98610  0.36310  Biso   1.000  H
  H232     1.0000 0.11670  0.97090  0.32620  Biso   1.000  H
  H233     1.0000 0.49990  0.54120  0.72550  Biso   1.000  H
  H234     1.0000 0.50760  0.49660  0.71620  Biso   1.000  H
  H235     1.0000 0.65950  0.59590  0.69380  Biso   1.000  H
  H236     1.0000 0.64790  0.62640  0.72210  Biso   1.000  H
  H237     1.0000 0.58420  0.45440  0.85040  Biso   1.000  H
  H238     1.0000 0.60430  0.51220  0.84710  Biso   1.000  H
  H239     1.0000 0.43930  0.28270  0.51940  Biso   1.000  H
  H240     1.0000 0.41440  0.28170  0.57090  Biso   1.000  H
  H241     1.0000 0.25910  0.15650  0.60200  Biso   1.000  H
  H242     1.0000 0.29380  0.18070  0.54190  Biso   1.000  H
  H243     1.0000 0.29680  0.05570  0.62810  Biso   1.000  H
  H244     1.0000 0.26250  0.06530  0.66500  Biso   1.000  H
  H245     1.0000 0.64850  0.49610  0.61720  Biso   1.000  H
  H246     1.0000 0.67010  0.54010  0.55580  Biso   1.000  H
  H247     1.0000 0.81560  0.57730  0.55290  Biso   1.000  H
  H248     1.0000 0.79790  0.52170  0.60660  Biso   1.000  H
  H249     1.0000 0.66600  0.46070  0.50930  Biso   1.000  H
  H250     1.0000 0.63830  0.40470  0.56640  Biso   1.000  H
  H251     1.0000 0.79410  0.44760  0.56310  Biso   1.000  H
  H252     1.0000 0.80710  0.48720  0.50290  Biso   1.000  H
  H253     1.0000 0.57840  0.61120  0.41160  Biso   1.000  H
  H254     1.0000 0.51650  0.56930  0.43220  Biso   1.000  H
  H255     1.0000 0.51670  0.42520  0.53370  Biso   1.000  H
  H256     1.0000 0.57830  0.46900  0.49610  Biso   1.000  H
  H257     1.0000 0.54680  0.62300  0.51840  Biso   1.000  H
  H258     1.0000 0.53950  0.58280  0.57570  Biso   1.000  H
  H259     1.0000 0.43280  0.44060  0.57340  Biso   1.000  H
  H260     1.0000 0.43810  0.49330  0.52620  Biso   1.000  H
  H261     1.0000 0.64310  0.60990  0.49900  Biso   1.000  H
  H262     1.0000 0.65620  0.60510  0.45170  Biso   1.000  H
  H263     1.0000 0.58670  0.56230  0.64460  Biso   1.000  H
  H264     1.0000 0.55270  0.59590  0.63760  Biso   1.000  H
  H265     1.0000 0.60190  0.65360  0.67530  Biso   1.000  H
  H266     1.0000 0.65090  0.66090  0.62860  Biso   1.000  H
  H267     1.0000 0.66290  0.49160  0.78210  Biso   1.000  H
  H268     1.0000 0.68480  0.55460  0.77820  Biso   1.000  H
  H269     1.0000 0.38460  0.33160  0.51940  Biso   1.000  H
  H270     1.0000 0.38390  0.30090  0.48300  Biso   1.000  H
  H271     1.0000 0.30100  0.24810  0.59250  Biso   1.000  H
  H272     1.0000 0.29110  0.26140  0.53650  Biso   1.000  H
  H273     1.0000 0.34570  0.04620  0.68470  Biso   1.000  H
  H274     1.0000 0.30020  0.04670  0.72690  Biso   1.000  H
  H275     1.0000 0.74060  0.61430  0.55290  Biso   1.000  H
  H276     1.0000 0.69180  0.58170  0.61450  Biso   1.000  H
  H277     1.0000 0.72970  0.52490  0.65780  Biso   1.000  H
  H278     1.0000 0.78100  0.59430  0.61830  Biso   1.000  H
  H279     1.0000 0.67270  0.37350  0.51940  Biso   1.000  H
  H280     1.0000 0.72330  0.44130  0.47100  Biso   1.000  H
  H281     1.0000 0.76630  0.39550  0.51500  Biso   1.000  H
  H282     1.0000 0.72020  0.36650  0.57690  Biso   1.000  H
  H283     1.0000 0.54900  0.54250  0.37810  Biso   1.000  H
  H284     1.0000 0.60270  0.55540  0.39230  Biso   1.000  H
  H285     1.0000 0.54560  0.45160  0.43700  Biso   1.000  H
  H286     1.0000 0.49050  0.45120  0.46410  Biso   1.000  H
  H287     1.0000 0.45700  0.57130  0.60310  Biso   1.000  H
  H288     1.0000 0.45730  0.58760  0.54230  Biso   1.000  H
  H289     1.0000 0.38690  0.48610  0.60100  Biso   1.000  H
  H290     1.0000 0.42380  0.47090  0.63330  Biso   1.000  H
  H291     1.0000 0.73330  0.45880  0.04130  Biso   1.000  H
  H292     1.0000 0.78720  0.50340  0.98900  Biso   1.000  H
  H293     1.0000 0.71030  0.40410  0.93640  Biso   1.000  H
  H294     1.0000 0.65150  0.37360  0.97850  Biso   1.000  H
  H295     1.0000 0.69520  0.54560  0.87020  Biso   1.000  H
  H296     1.0000 0.64070  0.48780  0.90790  Biso   1.000  H
  H297     1.0000 0.19790  0.71730  0.84340  Biso   1.000  H
  H298     1.0000 0.14740  0.71830  0.86730  Biso   1.000  H
  H299     1.0000 0.24150  0.84350  0.89740  Biso   1.000  H
  H300     1.0000 0.27740  0.81930  0.88690  Biso   1.000  H
  H301     1.0000 0.31620  0.94430  0.75890  Biso   1.000  H
  H302     1.0000 0.26970  0.93470  0.80280  Biso   1.000  H
  H303     1.0000 0.88670  0.50390  0.84760  Biso   1.000  H
  H304     1.0000 0.90410  0.45990  0.87000  Biso   1.000  H
  H305     1.0000 0.86980  0.42270  0.76170  Biso   1.000  H
  H306     1.0000 0.87170  0.47830  0.72380  Biso   1.000  H
  H307     1.0000 0.03000  0.53930  0.79470  Biso   1.000  H
  H308     1.0000 0.02890  0.59530  0.76640  Biso   1.000  H
  H309     1.0000 0.98930  0.55240  0.65350  Biso   1.000  H
  H310     1.0000 0.00990  0.51280  0.68010  Biso   1.000  H
  H311     1.0000 0.97720  0.38880  0.03280  Biso   1.000  H
  H312     1.0000 0.99850  0.43070  0.05280  Biso   1.000  H
  H313     1.0000 0.04110  0.57480  0.90850  Biso   1.000  H
  H314     1.0000 0.03490  0.53100  0.89070  Biso   1.000  H
  H315     1.0000 0.85860  0.37700  0.07620  Biso   1.000  H
  H316     1.0000 0.84150  0.41720  0.04330  Biso   1.000  H
  H317     1.0000 0.98600  0.55940  0.00780  Biso   1.000  H
  H318     1.0000 0.98050  0.50670  0.05520  Biso   1.000  H
  H319     1.0000 0.89110  0.39010  0.96680  Biso   1.000  H
  H320     1.0000 0.94320  0.39490  0.94890  Biso   1.000  H
  H321     1.0000 0.79310  0.43770  0.97560  Biso   1.000  H
  H322     1.0000 0.76650  0.40410  0.04320  Biso   1.000  H
  H323     1.0000 0.67110  0.34640  0.05170  Biso   1.000  H
  H324     1.0000 0.71050  0.33910  0.01000  Biso   1.000  H
  H325     1.0000 0.72630  0.50840  0.82870  Biso   1.000  H
  H326     1.0000 0.66720  0.44540  0.86980  Biso   1.000  H
  H327     1.0000 0.14900  0.66840  0.94700  Biso   1.000  H
  H328     1.0000 0.21610  0.69910  0.91700  Biso   1.000  H
  H329     1.0000 0.15940  0.75190  0.94710  Biso   1.000  H
  H330     1.0000 0.20210  0.73860  0.97030  Biso   1.000  H
  H331     1.0000 0.26910  0.95380  0.70050  Biso   1.000  H
  H332     1.0000 0.22640  0.95330  0.74650  Biso   1.000  H
  H333     1.0000 0.83280  0.38570  0.87370  Biso   1.000  H
  H334     1.0000 0.80380  0.41830  0.88990  Biso   1.000  H
  H335     1.0000 0.81730  0.47510  0.79520  Biso   1.000  H
  H336     1.0000 0.78740  0.40570  0.81330  Biso   1.000  H
  H337     1.0000 0.10710  0.62650  0.70080  Biso   1.000  H
  H338     1.0000 0.08770  0.55870  0.71800  Biso   1.000  H
  H339     1.0000 0.08950  0.60450  0.62920  Biso   1.000  H
  H340     1.0000 0.05660  0.63350  0.64630  Biso   1.000  H
  H341     1.0000 0.07940  0.45750  0.99350  Biso   1.000  H
  H342     1.0000 0.05230  0.44460  0.95270  Biso   1.000  H
  H343     1.0000 0.11140  0.54840  0.90600  Biso   1.000  H
  H344     1.0000 0.08470  0.54880  0.96070  Biso   1.000  H
  H345     1.0000 0.82560  0.42870  0.11430  Biso   1.000  H
  H346     1.0000 0.87010  0.41240  0.13030  Biso   1.000  H
  H347     1.0000 0.91290  0.51390  0.09920  Biso   1.000  H
  H348     1.0000 0.89580  0.52910  0.04710  Biso   1.000  H
  H349     1.0000 0.52450  0.27460  0.51670  Biso   1.000  H
  H350     1.0000 0.53380  0.27620  0.46280  Biso   1.000  H
  H351     1.0000 0.55620  0.14670  0.53970  Biso   1.000  H
  H352     1.0000 0.52790  0.13000  0.59850  Biso   1.000  H
  H353     1.0000 0.39960  0.06540  0.55480  Biso   1.000  H
  H354     1.0000 0.40290  0.04860  0.60930  Biso   1.000  H
  H355     1.0000 0.73060  0.54130  0.05210  Biso   1.000  H
  H356     1.0000 0.67910  0.51470  0.10260  Biso   1.000  H
  H357     1.0000 0.64800  0.63890  0.00850  Biso   1.000  H
  H358     1.0000 0.70810  0.66430  0.97260  Biso   1.000  H
  H359     1.0000 0.62190  0.57510  0.93380  Biso   1.000  H
  H360     1.0000 0.58500  0.57250  0.98030  Biso   1.000  H
  H361     1.0000 0.63280  0.23430  0.36330  Biso   1.000  H
  H362     1.0000 0.69420  0.27410  0.34590  Biso   1.000  H
  H363     1.0000 0.69710  0.13150  0.38020  Biso   1.000  H
  H364     1.0000 0.64340  0.09550  0.37830  Biso   1.000  H
  H365     1.0000 0.74070  0.32470  0.22000  Biso   1.000  H
  H366     1.0000 0.68360  0.29530  0.22110  Biso   1.000  H
  H367     1.0000 0.68690  0.14280  0.26070  Biso   1.000  H
  H368     1.0000 0.74710  0.19000  0.24010  Biso   1.000  H
  H369     1.0000 0.83840  0.51000  0.27280  Biso   1.000  H
  H370     1.0000 0.81780  0.55130  0.25150  Biso   1.000  H
  H371     1.0000 0.71630  0.44960  0.20890  Biso   1.000  H
  H372     1.0000 0.75390  0.42560  0.21510  Biso   1.000  H
  H373     1.0000 0.73160  0.43480  0.39140  Biso   1.000  H
  H374     1.0000 0.67430  0.38480  0.40850  Biso   1.000  H
  H375     1.0000 0.67660  0.49380  0.26400  Biso   1.000  H
  H376     1.0000 0.72380  0.53570  0.26950  Biso   1.000  H
  H377     1.0000 0.75100  0.35790  0.35890  Biso   1.000  H
  H378     1.0000 0.79830  0.39210  0.30680  Biso   1.000  H
  H379     1.0000 0.60540  0.26870  0.45690  Biso   1.000  H
  H380     1.0000 0.61240  0.30970  0.48350  Biso   1.000  H
  H381     1.0000 0.57470  0.22280  0.57890  Biso   1.000  H
  H382     1.0000 0.62140  0.22050  0.53950  Biso   1.000  H
  H383     1.0000 0.46790  0.05500  0.52370  Biso   1.000  H
  H384     1.0000 0.47180  0.03700  0.58280  Biso   1.000  H
  H385     1.0000 0.73060  0.59600  0.10100  Biso   1.000  H
  H386     1.0000 0.76700  0.63310  0.03390  Biso   1.000  H
  H387     1.0000 0.65750  0.60650  0.09060  Biso   1.000  H
  H388     1.0000 0.71350  0.67240  0.04790  Biso   1.000  H
  H389     1.0000 0.56530  0.46960  0.98090  Biso   1.000  H
  H390     1.0000 0.52310  0.47290  0.02360  Biso   1.000  H
  H391     1.0000 0.69710  0.20650  0.41720  Biso   1.000  H
  H392     1.0000 0.63550  0.19370  0.44620  Biso   1.000  H
  H393     1.0000 0.59220  0.11250  0.43270  Biso   1.000  H
  H394     1.0000 0.63170  0.10070  0.46260  Biso   1.000  H
  H395     1.0000 0.73060  0.30790  0.14290  Biso   1.000  H
  H396     1.0000 0.77900  0.30570  0.16230  Biso   1.000  H
  H397     1.0000 0.73500  0.21870  0.16050  Biso   1.000  H
  H398     1.0000 0.67310  0.20290  0.19340  Biso   1.000  H
  H399     1.0000 0.87190  0.57290  0.17060  Biso   1.000  H
  H400     1.0000 0.85770  0.50500  0.19770  Biso   1.000  H
  H401     1.0000 0.81300  0.51740  0.13860  Biso   1.000  H
  H402     1.0000 0.78590  0.54540  0.16530  Biso   1.000  H
  H403     1.0000 0.64690  0.43990  0.42440  Biso   1.000  H
  H404     1.0000 0.70770  0.50040  0.37990  Biso   1.000  H
  H405     1.0000 0.64900  0.51210  0.33710  Biso   1.000  H
  H406     1.0000 0.61670  0.44290  0.35420  Biso   1.000  H
  H407     1.0000 0.20870  0.72540  0.75010  Biso   1.000  H
  H408     1.0000 0.26100  0.72380  0.74240  Biso   1.000  H
  H409     1.0000 0.31360  0.85330  0.59050  Biso   1.000  H
  H410     1.0000 0.27150  0.87000  0.60210  Biso   1.000  H
  H411     1.0000 0.37980  0.93460  0.66580  Biso   1.000  H
  H412     1.0000 0.34210  0.95140  0.64570  Biso   1.000  H
  H413     1.0000 0.40660  0.45870  0.81070  Biso   1.000  H
  H414     1.0000 0.38270  0.48530  0.83560  Biso   1.000  H
  H415     1.0000 0.35260  0.36110  0.99090  Biso   1.000  H
  H416     1.0000 0.36310  0.33570  0.95620  Biso   1.000  H
  H417     1.0000 0.49110  0.42490  0.95320  Biso   1.000  H
  H418     1.0000 0.44720  0.42750  0.98750  Biso   1.000  H
  H419     1.0000 0.40240  0.76570  0.60150  Biso   1.000  H
  H420     1.0000 0.38000  0.72590  0.57990  Biso   1.000  H
  H421     1.0000 0.48830  0.86850  0.43440  Biso   1.000  H
  H422     1.0000 0.52620  0.90450  0.45210  Biso   1.000  H
  H423     1.0000 0.45530  0.67530  0.58400  Biso   1.000  H
  H424     1.0000 0.48360  0.70470  0.61170  Biso   1.000  H
  H425     1.0000 0.59650  0.85720  0.45590  Biso   1.000  H
  H426     1.0000 0.56990  0.81000  0.44290  Biso   1.000  H
  H427     1.0000 0.21720  0.49000  0.67160  Biso   1.000  H
  H428     1.0000 0.19720  0.44870  0.73350  Biso   1.000  H
  H429     1.0000 0.34150  0.55040  0.73330  Biso   1.000  H
  H430     1.0000 0.35930  0.57440  0.67170  Biso   1.000  H
  H431     1.0000 0.17380  0.56520  0.70320  Biso   1.000  H
  H432     1.0000 0.20670  0.61520  0.71050  Biso   1.000  H
  H433     1.0000 0.24220  0.50620  0.81720  Biso   1.000  H
  H434     1.0000 0.19480  0.46430  0.81190  Biso   1.000  H
  H435     1.0000 0.28320  0.64210  0.60690  Biso   1.000  H
  H436     1.0000 0.30110  0.60790  0.59380  Biso   1.000  H
  H437     1.0000 0.27440  0.73130  0.66330  Biso   1.000  H
  H438     1.0000 0.20680  0.69030  0.69730  Biso   1.000  H
  H439     1.0000 0.19830  0.77720  0.64810  Biso   1.000  H
  H440     1.0000 0.24000  0.77950  0.59910  Biso   1.000  H
  H441     1.0000 0.42130  0.94500  0.58710  Biso   1.000  H
  H442     1.0000 0.38020  0.96300  0.56520  Biso   1.000  H
  H443     1.0000 0.30300  0.40400  0.86540  Biso   1.000  H
  H444     1.0000 0.33300  0.36690  0.86610  Biso   1.000  H
  H445     1.0000 0.30290  0.39350  0.94900  Biso   1.000  H
  H446     1.0000 0.27970  0.32760  0.95890  Biso   1.000  H
  H447     1.0000 0.54950  0.53040  0.90430  Biso   1.000  H
  H448     1.0000 0.50350  0.52710  0.94980  Biso   1.000  H
  H449     1.0000 0.37630  0.79350  0.50940  Biso   1.000  H
  H450     1.0000 0.36010  0.80630  0.55820  Biso   1.000  H
  H451     1.0000 0.45480  0.88750  0.52030  Biso   1.000  H
  H452     1.0000 0.43670  0.89930  0.46900  Biso   1.000  H
  H453     1.0000 0.54920  0.69210  0.57730  Biso   1.000  H
  H454     1.0000 0.53200  0.69430  0.52670  Biso   1.000  H
  H455     1.0000 0.62080  0.78130  0.48370  Biso   1.000  H
  H456     1.0000 0.60370  0.79710  0.52980  Biso   1.000  H
  H457     1.0000 0.25650  0.42710  0.70100  Biso   1.000  H
  H458     1.0000 0.29730  0.49500  0.64730  Biso   1.000  H
  H459     1.0000 0.34400  0.48260  0.70440  Biso   1.000  H
  H460     1.0000 0.28930  0.45460  0.75950  Biso   1.000  H
  H461     1.0000 0.13570  0.56010  0.79300  Biso   1.000  H
  H462     1.0000 0.11970  0.49960  0.79270  Biso   1.000  H
  H463     1.0000 0.15080  0.48790  0.86310  Biso   1.000  H
  H464     1.0000 0.20290  0.55710  0.82620  Biso   1.000  H
  C1       1.0000 0.25960  0.76910  0.16190  Biso   1.000  C
  C2       1.0000 0.20290  0.71720  0.16550  Biso   1.000  C
  C3       1.0000 0.18530  0.53530  0.30460  Biso   1.000  C
  C4       1.0000 0.68520  0.10410  0.02190  Biso   1.000  C
  C5       1.0000 0.69440  0.13090  0.05730  Biso   1.000  C
  C6       1.0000 0.76600  0.99530  0.19870  Biso   1.000  C
  C7       1.0000 0.33350  0.69320  0.09050  Biso   1.000  C
  C8       1.0000 0.32240  0.62810  0.11810  Biso   1.000  C
  C9       1.0000 0.57500  0.78590  0.01250  Biso   1.000  C
  C10      1.0000 0.55960  0.71990  0.03790  Biso   1.000  C
  C11      1.0000 0.55340  0.02980  0.90880  Biso   1.000  C
  C12      1.0000 0.57610  0.01540  0.95290  Biso   1.000  C
  C13      1.0000 0.36400  0.96260  0.07240  Biso   1.000  C
  C14      1.0000 0.40840  0.97840  0.09600  Biso   1.000  C
  C15      1.0000 0.06900  0.23090  0.50950  Biso   1.000  C
  C16      1.0000 0.11730  0.28280  0.51430  Biso   1.000  C
  C17      1.0000 0.16010  0.46470  0.35000  Biso   1.000  C
  C18      1.0000 0.87400  0.89590  0.41890  Biso   1.000  C
  C19      1.0000 0.81180  0.86910  0.43650  Biso   1.000  C
  C20      1.0000 0.80600  0.00470  0.22930  Biso   1.000  C
  C21      1.0000 0.21630  0.30680  0.35970  Biso   1.000  C
  C22      1.0000 0.25380  0.37190  0.30570  Biso   1.000  C
  C23      1.0000 0.20160  0.21410  0.21090  Biso   1.000  C
  C24      1.0000 0.24220  0.28010  0.16030  Biso   1.000  C
  C25      1.0000 0.06140  0.97020  0.47640  Biso   1.000  C
  C26      1.0000 0.03170  0.98460  0.43930  Biso   1.000  C
  C27      1.0000 0.96500  0.03740  0.59860  Biso   1.000  C
  C28      1.0000 0.92560  0.02160  0.57000  Biso   1.000  C
  C29      1.0000 0.74050  0.92150  0.99040  Biso   1.000  C
  C30      1.0000 0.73570  0.86840  0.04710  Biso   1.000  C
  C31      1.0000 0.90000  0.98990  0.06470  Biso   1.000  C
  C32      1.0000 0.83110  0.20710  0.56480  Biso   1.000  C
  C33      1.0000 0.81350  0.25170  0.55560  Biso   1.000  C
  C34      1.0000 0.02070  0.46470  0.48400  Biso   1.000  C
  C35      1.0000 0.89030  0.92400  0.91650  Biso   1.000  C
  C36      1.0000 0.94430  0.94050  0.92760  Biso   1.000  C
  C37      1.0000 0.03910  0.08750  0.67500  Biso   1.000  C
  C38      1.0000 0.08970  0.09750  0.69040  Biso   1.000  C
  C39      1.0000 0.77360  0.96220  0.69660  Biso   1.000  C
  C40      1.0000 0.81070  0.02900  0.67390  Biso   1.000  C
  C41      1.0000 0.65140  0.93640  0.88600  Biso   1.000  C
  C42      1.0000 0.68000  0.00440  0.84160  Biso   1.000  C
  C43      1.0000 0.08810  0.07850  0.18100  Biso   1.000  C
  C44      1.0000 0.08450  0.13160  0.13270  Biso   1.000  C
  C45      1.0000 0.94540  0.01010  0.08990  Biso   1.000  C
  C46      1.0000 0.22810  0.79290  0.37600  Biso   1.000  C
  C47      1.0000 0.19270  0.74830  0.43820  Biso   1.000  C
  C48      1.0000 0.05130  0.53530  0.44400  Biso   1.000  C
  C49      1.0000 0.15950  0.07600  0.03370  Biso   1.000  C
  C50      1.0000 0.13190  0.05950  0.99620  Biso   1.000  C
  C51      1.0000 0.23750  0.91250  0.04840  Biso   1.000  C
  C52      1.0000 0.21210  0.90250  0.00780  Biso   1.000  C
  C53      1.0000 0.34120  0.03780  0.18860  Biso   1.000  C
  C54      1.0000 0.29710  0.97100  0.21830  Biso   1.000  C
  C55      1.0000 0.17760  0.06360  0.28500  Biso   1.000  C
  C56      1.0000 0.15400  0.99560  0.32440  Biso   1.000  C
  C57      1.0000 0.56900  0.57850  0.66190  Biso   1.000  C
  C58      1.0000 0.61730  0.63160  0.66550  Biso   1.000  C
  C59      1.0000 0.66010  0.51010  0.80460  Biso   1.000  C
  C60      1.0000 0.37400  0.29290  0.52190  Biso   1.000  C
  C61      1.0000 0.31180  0.24830  0.55730  Biso   1.000  C
  C62      1.0000 0.30600  0.03530  0.69870  Biso   1.000  C
  C63      1.0000 0.71630  0.57600  0.59050  Biso   1.000  C
  C64      1.0000 0.75380  0.55950  0.61810  Biso   1.000  C
  C65      1.0000 0.70160  0.41250  0.51250  Biso   1.000  C
  C66      1.0000 0.74220  0.40250  0.53790  Biso   1.000  C
  C67      1.0000 0.56140  0.53780  0.40880  Biso   1.000  C
  C68      1.0000 0.53170  0.47100  0.45290  Biso   1.000  C
  C69      1.0000 0.46500  0.56360  0.57240  Biso   1.000  C
  C70      1.0000 0.42560  0.49560  0.59600  Biso   1.000  C
  C71      1.0000 0.75960  0.42150  0.00950  Biso   1.000  C
  C72      1.0000 0.70290  0.36840  0.01430  Biso   1.000  C
  C73      1.0000 0.68530  0.48990  0.85000  Biso   1.000  C
  C74      1.0000 0.18520  0.70710  0.91890  Biso   1.000  C
  C75      1.0000 0.19440  0.75170  0.93650  Biso   1.000  C
  C76      1.0000 0.26600  0.96470  0.72930  Biso   1.000  C
  C77      1.0000 0.83350  0.42400  0.85970  Biso   1.000  C
  C78      1.0000 0.82240  0.44050  0.80570  Biso   1.000  C
  C79      1.0000 0.07500  0.58750  0.71090  Biso   1.000  C
  C80      1.0000 0.05960  0.59750  0.66030  Biso   1.000  C
  C81      1.0000 0.05340  0.46220  0.97640  Biso   1.000  C
  C82      1.0000 0.07610  0.52900  0.93930  Biso   1.000  C
  C83      1.0000 0.86400  0.43640  0.09860  Biso   1.000  C
  C84      1.0000 0.90840  0.50440  0.07000  Biso   1.000  C
  C85      1.0000 0.58810  0.26910  0.49040  Biso   1.000  C
  C86      1.0000 0.58450  0.21720  0.54710  Biso   1.000  C
  C87      1.0000 0.44540  0.03530  0.56470  Biso   1.000  C
  C88      1.0000 0.72810  0.60410  0.06480  Biso   1.000  C
  C89      1.0000 0.69270  0.63090  0.05560  Biso   1.000  C
  C90      1.0000 0.55130  0.49530  0.98400  Biso   1.000  C
  C91      1.0000 0.65950  0.19320  0.41650  Biso   1.000  C
  C92      1.0000 0.63190  0.12810  0.42760  Biso   1.000  C
  C93      1.0000 0.73750  0.28590  0.17500  Biso   1.000  C
  C94      1.0000 0.71210  0.21990  0.19040  Biso   1.000  C
  C95      1.0000 0.84120  0.52980  0.19660  Biso   1.000  C
  C96      1.0000 0.79710  0.51540  0.17390  Biso   1.000  C
  C97      1.0000 0.67760  0.46260  0.38600  Biso   1.000  C
  C98      1.0000 0.65400  0.47840  0.34160  Biso   1.000  C
  C99      1.0000 0.24050  0.73090  0.68100  Biso   1.000  C
  C100     1.0000 0.23570  0.78280  0.63270  Biso   1.000  C
  C101     1.0000 0.40000  0.96470  0.58990  Biso   1.000  C
  C102     1.0000 0.33110  0.39590  0.87600  Biso   1.000  C
  C103     1.0000 0.31350  0.36910  0.93820  Biso   1.000  C
  C104     1.0000 0.52070  0.50470  0.94400  Biso   1.000  C
  C105     1.0000 0.39030  0.80680  0.53370  Biso   1.000  C
  C106     1.0000 0.44430  0.87190  0.49620  Biso   1.000  C
  C107     1.0000 0.53910  0.71410  0.54840  Biso   1.000  C
  C108     1.0000 0.58970  0.78010  0.50780  Biso   1.000  C
  C109     1.0000 0.27360  0.47020  0.68860  Biso   1.000  C
  C110     1.0000 0.31070  0.48460  0.71830  Biso   1.000  C
  C111     1.0000 0.15140  0.53740  0.78500  Biso   1.000  C
  C112     1.0000 0.18000  0.52160  0.82440  Biso   1.000  C
  N1       1.0000 0.25230  0.75780  0.21630  Biso   1.000  N
  N2       1.0000 0.18900  0.65840  0.20900  Biso   1.000  N
  N3       1.0000 0.17890  0.56910  0.32540  Biso   1.000  N
  N4       1.0000 0.68420  0.04650  0.04770  Biso   1.000  N
  N5       1.0000 0.74340  0.13330  0.07230  Biso   1.000  N
  N6       1.0000 0.77800  0.05170  0.15070  Biso   1.000  N
  N7       1.0000 0.39030  0.73520  0.08410  Biso   1.000  N
  N8       1.0000 0.37180  0.62970  0.08530  Biso   1.000  N
  N9       1.0000 0.52740  0.79120  0.03640  Biso   1.000  N
  N10      1.0000 0.50450  0.68330  0.03840  Biso   1.000  N
  N11      1.0000 0.49610  0.01800  0.93270  Biso   1.000  N
  N12      1.0000 0.53320  0.95380  0.00300  Biso   1.000  N
  N13      1.0000 0.36770  0.92500  0.04870  Biso   1.000  N
  N14      1.0000 0.46290  0.99630  0.05540  Biso   1.000  N
  N15      1.0000 0.02590  0.24220  0.50550  Biso   1.000  N
  N16      1.0000 0.13260  0.34160  0.46940  Biso   1.000  N
  N17      1.0000 0.10550  0.43090  0.39020  Biso   1.000  N
  N18      1.0000 0.90580  0.95350  0.36230  Biso   1.000  N
  N19      1.0000 0.79440  0.86670  0.38990  Biso   1.000  N
  N20      1.0000 0.79760  0.94830  0.27370  Biso   1.000  N
  N21      1.0000 0.18070  0.26480  0.34490  Biso   1.000  N
  N22      1.0000 0.28500  0.37030  0.25790  Biso   1.000  N
  N23      1.0000 0.17240  0.20880  0.26380  Biso   1.000  N
  N24      1.0000 0.27830  0.31670  0.17880  Biso   1.000  N
  N25      1.0000 0.04930  0.98200  0.52190  Biso   1.000  N
  N26      1.0000 0.04320  0.04620  0.42060  Biso   1.000  N
  N27      1.0000 0.02630  0.07500  0.55730  Biso   1.000  N
  N28      1.0000 0.94830  0.00370  0.53340  Biso   1.000  N
  N29      1.0000 0.74450  0.96860  0.99770  Biso   1.000  N
  N30      1.0000 0.78060  0.89800  0.06100  Biso   1.000  N
  N31      1.0000 0.85980  0.00430  0.07110  Biso   1.000  N
  N32      1.0000 0.88770  0.23190  0.56580  Biso   1.000  N
  N33      1.0000 0.86010  0.31570  0.50660  Biso   1.000  N
  N34      1.0000 0.97630  0.42870  0.47200  Biso   1.000  N
  N35      1.0000 0.90510  0.97440  0.85970  Biso   1.000  N
  N36      1.0000 0.99210  0.95710  0.87820  Biso   1.000  N
  N37      1.0000 0.98620  0.06380  0.72260  Biso   1.000  N
  N38      1.0000 0.07120  0.04290  0.74550  Biso   1.000  N
  N39      1.0000 0.72810  0.92880  0.75390  Biso   1.000  N
  N40      1.0000 0.82940  0.03620  0.71680  Biso   1.000  N
  N41      1.0000 0.69270  0.91640  0.88230  Biso   1.000  N
  N42      1.0000 0.71660  0.01830  0.78710  Biso   1.000  N
  N43      1.0000 0.03370  0.03140  0.22410  Biso   1.000  N
  N44      1.0000 0.04100  0.10200  0.11740  Biso   1.000  N
  N45      1.0000 0.92460  0.99570  0.14450  Biso   1.000  N
  N46      1.0000 0.20230  0.76810  0.34420  Biso   1.000  N
  N47      1.0000 0.17770  0.68430  0.45560  Biso   1.000  N
  N48      1.0000 0.09930  0.57130  0.45240  Biso   1.000  N
  N49      1.0000 0.16590  0.02560  0.06930  Biso   1.000  N
  N50      1.0000 0.16470  0.04290  0.96500  Biso   1.000  N
  N51      1.0000 0.21360  0.93620  0.07760  Biso   1.000  N
  N52      1.0000 0.21160  0.95710  0.97170  Biso   1.000  N
  N53      1.0000 0.31730  0.07120  0.20070  Biso   1.000  N
  N54      1.0000 0.24700  0.96380  0.20680  Biso   1.000  N
  N55      1.0000 0.20130  0.08360  0.22370  Biso   1.000  N
  N56      1.0000 0.19460  0.98170  0.30170  Biso   1.000  N
  N57      1.0000 0.52590  0.53140  0.71630  Biso   1.000  N
  N58      1.0000 0.63260  0.60200  0.70900  Biso   1.000  N
  N59      1.0000 0.60550  0.49570  0.82540  Biso   1.000  N
  N60      1.0000 0.40580  0.26810  0.54770  Biso   1.000  N
  N61      1.0000 0.29440  0.18430  0.57230  Biso   1.000  N
  N62      1.0000 0.29760  0.07130  0.65070  Biso   1.000  N
  N63      1.0000 0.68070  0.52560  0.58410  Biso   1.000  N
  N64      1.0000 0.78500  0.54290  0.58530  Biso   1.000  N
  N65      1.0000 0.67240  0.43620  0.53640  Biso   1.000  N
  N66      1.0000 0.77830  0.45710  0.53840  Biso   1.000  N
  N67      1.0000 0.54930  0.57120  0.43270  Biso   1.000  N
  N68      1.0000 0.54320  0.46380  0.50300  Biso   1.000  N
  N69      1.0000 0.52630  0.58360  0.54870  Biso   1.000  N
  N70      1.0000 0.44830  0.48170  0.55540  Biso   1.000  N
  N71      1.0000 0.75230  0.46860  0.00550  Biso   1.000  N
  N72      1.0000 0.68900  0.39800  0.96940  Biso   1.000  N
  N73      1.0000 0.67890  0.50430  0.89020  Biso   1.000  N
  N74      1.0000 0.18420  0.73190  0.86230  Biso   1.000  N
  N75      1.0000 0.24340  0.81570  0.88990  Biso   1.000  N
  N76      1.0000 0.27800  0.92870  0.77370  Biso   1.000  N
  N77      1.0000 0.89030  0.47440  0.84490  Biso   1.000  N
  N78      1.0000 0.87180  0.45710  0.75790  Biso   1.000  N
  N79      1.0000 0.02740  0.56380  0.76380  Biso   1.000  N
  N80      1.0000 0.00450  0.54290  0.67880  Biso   1.000  N
  N81      1.0000 0.99610  0.42880  0.02190  Biso   1.000  N
  N82      1.0000 0.03320  0.53620  0.92060  Biso   1.000  N
  N83      1.0000 0.86770  0.41640  0.05730  Biso   1.000  N
  N84      1.0000 0.96290  0.51830  0.03340  Biso   1.000  N
  N85      1.0000 0.53370  0.25780  0.49770  Biso   1.000  N
  N86      1.0000 0.54100  0.15840  0.56100  Biso   1.000  N
  N87      1.0000 0.42460  0.06910  0.57110  Biso   1.000  N
  N88      1.0000 0.70230  0.54650  0.06580  Biso   1.000  N
  N89      1.0000 0.67770  0.63330  0.00660  Biso   1.000  N
  N90      1.0000 0.59930  0.55170  0.97200  Biso   1.000  N
  N91      1.0000 0.66590  0.23520  0.35970  Biso   1.000  N
  N92      1.0000 0.66470  0.12970  0.37820  Biso   1.000  N
  N93      1.0000 0.71360  0.29120  0.22260  Biso   1.000  N
  N94      1.0000 0.71160  0.18330  0.24550  Biso   1.000  N
  N95      1.0000 0.81730  0.51800  0.25390  Biso   1.000  N
  N96      1.0000 0.74700  0.45380  0.21680  Biso   1.000  N
  N97      1.0000 0.70130  0.42500  0.38230  Biso   1.000  N
  N98      1.0000 0.69460  0.49630  0.28710  Biso   1.000  N
  N99      1.0000 0.24450  0.74220  0.72410  Biso   1.000  N
  N100     1.0000 0.28060  0.84160  0.61740  Biso   1.000  N
  N101     1.0000 0.35980  0.93090  0.64450  Biso   1.000  N
  N102     1.0000 0.38770  0.45350  0.84420  Biso   1.000  N
  N103     1.0000 0.36010  0.36670  0.95560  Biso   1.000  N
  N104     1.0000 0.47630  0.44830  0.95240  Biso   1.000  N
  N105     1.0000 0.40510  0.76480  0.56930  Biso   1.000  N
  N106     1.0000 0.49210  0.87030  0.46500  Biso   1.000  N
  N107     1.0000 0.48620  0.70880  0.57760  Biso   1.000  N
  N108     1.0000 0.57120  0.81670  0.47170  Biso   1.000  N
  N109     1.0000 0.22810  0.48200  0.70070  Biso   1.000  N
  N110     1.0000 0.32940  0.54620  0.70680  Biso   1.000  N
  N111     1.0000 0.19270  0.57500  0.72370  Biso   1.000  N
  N112     1.0000 0.21660  0.50370  0.80170  Biso   1.000  N
  O1       1.0000 0.32080  0.65900  0.32780  Biso   1.000  O
  O2       1.0000 0.38560  0.65130  0.26210  Biso   1.000  O
  O3       1.0000 0.35360  0.60850  0.41610  Biso   1.000  O
  O4       1.0000 0.42210  0.60770  0.34500  Biso   1.000  O
  O5       1.0000 0.30140  0.53610  0.37010  Biso   1.000  O
  O6       1.0000 0.36010  0.77460  0.23450  Biso   1.000  O
  O7       1.0000 0.42090  0.75290  0.17480  Biso   1.000  O
  O8       1.0000 0.29410  0.66820  0.22970  Biso   1.000  O
  O9       1.0000 0.44230  0.88310  0.18860  Biso   1.000  O
  O10      1.0000 0.50840  0.87240  0.12620  Biso   1.000  O
  O11      1.0000 0.41000  0.85420  0.10580  Biso   1.000  O
  O12      1.0000 0.52900  0.93560  0.21920  Biso   1.000  O
  O13      1.0000 0.58970  0.91760  0.15110  Biso   1.000  O
  O14      1.0000 0.54790  0.99780  0.09990  Biso   1.000  O
  O15      1.0000 0.56520  0.89580  0.29020  Biso   1.000  O
  O16      1.0000 0.63040  0.88370  0.22870  Biso   1.000  O
  O17      1.0000 0.65620  0.00900  0.17360  Biso   1.000  O
  O18      1.0000 0.53060  0.77970  0.38250  Biso   1.000  O
  O19      1.0000 0.60110  0.77230  0.32000  Biso   1.000  O
  O20      1.0000 0.64880  0.88120  0.32940  Biso   1.000  O
  O21      1.0000 0.44710  0.67070  0.43300  Biso   1.000  O
  O22      1.0000 0.50700  0.65130  0.36630  Biso   1.000  O
  O23      1.0000 0.55400  0.68390  0.44150  Biso   1.000  O
  O24      1.0000 0.40630  0.54240  0.46670  Biso   1.000  O
  O25      1.0000 0.49840  0.67690  0.23090  Biso   1.000  O
  O26      1.0000 0.53100  0.77910  0.14530  Biso   1.000  O
  O27      1.0000 0.44500  0.67190  0.15130  Biso   1.000  O
  O28      1.0000 0.58230  0.71870  0.25180  Biso   1.000  O
  O29      1.0000 0.62110  0.83750  0.15420  Biso   1.000  O
  O30      1.0000 0.60970  0.73580  0.13770  Biso   1.000  O
  O31      1.0000 0.61400  0.90680  0.04860  Biso   1.000  O
  O32      1.0000 0.50720  0.58200  0.31140  Biso   1.000  O
  O33      1.0000 0.32920  0.75470  0.34450  Biso   1.000  O
  O34      1.0000 0.41840  0.85660  0.30160  Biso   1.000  O
  O35      1.0000 0.33490  0.85950  0.25400  Biso   1.000  O
  O36      1.0000 0.37000  0.70880  0.43120  Biso   1.000  O
  O37      1.0000 0.45390  0.81750  0.37700  Biso   1.000  O
  O38      1.0000 0.34100  0.80280  0.42000  Biso   1.000  O
  O39      1.0000 0.44750  0.74230  0.48580  Biso   1.000  O
  O40      1.0000 0.26280  0.63130  0.43790  Biso   1.000  O
  O41      1.0000 0.22200  0.66800  0.35020  Biso   1.000  O
  O42      1.0000 0.29500  0.58540  0.52880  Biso   1.000  O
  O43      1.0000 0.69000  0.82910  0.20950  Biso   1.000  O
  O44      1.0000 0.72460  0.95370  0.11830  Biso   1.000  O
  O45      1.0000 0.66250  0.71530  0.30180  Biso   1.000  O
  O46      1.0000 0.42740  0.87830  0.98750  Biso   1.000  O
  O47      1.0000 0.50190  0.94620  0.32130  Biso   1.000  O
  O48      1.0000 0.01320  0.34100  0.33820  Biso   1.000  O
  O49      1.0000 0.08660  0.34870  0.26570  Biso   1.000  O
  O50      1.0000 0.97540  0.39150  0.25490  Biso   1.000  O
  O51      1.0000 0.04730  0.39230  0.18560  Biso   1.000  O
  O52      1.0000 0.09380  0.46390  0.23470  Biso   1.000  O
  O53      1.0000 0.99090  0.22540  0.41450  Biso   1.000  O
  O54      1.0000 0.07230  0.24710  0.33200  Biso   1.000  O
  O55      1.0000 0.10210  0.33180  0.37410  Biso   1.000  O
  O56      1.0000 0.92830  0.11690  0.44080  Biso   1.000  O
  O57      1.0000 0.00140  0.12760  0.36400  Biso   1.000  O
  O58      1.0000 0.04000  0.14580  0.44420  Biso   1.000  O
  O59      1.0000 0.84520  0.06440  0.40660  Biso   1.000  O
  O60      1.0000 0.93130  0.08240  0.32790  Biso   1.000  O
  O61      1.0000 0.90230  0.00220  0.44990  Biso   1.000  O
  O62      1.0000 0.81400  0.10420  0.33060  Biso   1.000  O
  O63      1.0000 0.88760  0.11630  0.25330  Biso   1.000  O
  O64      1.0000 0.81740  0.99100  0.35280  Biso   1.000  O
  O65      1.0000 0.83780  0.22030  0.24910  Biso   1.000  O
  O66      1.0000 0.90770  0.22770  0.17120  Biso   1.000  O
  O67      1.0000 0.78940  0.11880  0.23240  Biso   1.000  O
  O68      1.0000 0.89630  0.32930  0.22360  Biso   1.000  O
  O69      1.0000 0.98240  0.34870  0.14430  Biso   1.000  O
  O70      1.0000 0.87460  0.31610  0.12990  Biso   1.000  O
  O71      1.0000 0.99090  0.45760  0.13610  Biso   1.000  O
  O72      1.0000 0.09220  0.32310  0.17850  Biso   1.000  O
  O73      1.0000 0.07560  0.22090  0.24810  Biso   1.000  O
  O74      1.0000 0.17680  0.32810  0.22690  Biso   1.000  O
  O75      1.0000 0.02950  0.28130  0.13640  Biso   1.000  O
  O76      1.0000 0.00830  0.16250  0.21640  Biso   1.000  O
  O77      1.0000 0.12650  0.26420  0.12610  Biso   1.000  O
  O78      1.0000 0.04460  0.09320  0.29280  Biso   1.000  O
  O79      1.0000 0.10660  0.41800  0.07480  Biso   1.000  O
  O80      1.0000 0.90080  0.24530  0.42550  Biso   1.000  O
  O81      1.0000 0.84180  0.14340  0.43820  Biso   1.000  O
  O82      1.0000 0.88650  0.14050  0.52460  Biso   1.000  O
  O83      1.0000 0.86000  0.29120  0.33880  Biso   1.000  O
  O84      1.0000 0.80550  0.18250  0.36360  Biso   1.000  O
  O85      1.0000 0.77720  0.19720  0.46180  Biso   1.000  O
  O86      1.0000 0.77190  0.25770  0.29480  Biso   1.000  O
  O87      1.0000 0.93080  0.36870  0.36850  Biso   1.000  O
  O88      1.0000 0.98180  0.33200  0.44600  Biso   1.000  O
  O89      1.0000 0.88580  0.41460  0.29040  Biso   1.000  O
  O90      1.0000 0.96140  0.17090  0.13910  Biso   1.000  O
  O91      1.0000 0.92800  0.04630  0.22910  Biso   1.000  O
  O92      1.0000 0.98290  0.28470  0.05280  Biso   1.000  O
  O93      1.0000 0.13420  0.12170  0.45090  Biso   1.000  O
  O94      1.0000 0.73250  0.05380  0.44430  Biso   1.000  O
  O95      1.0000 0.91180  0.14860  0.92920  Biso   1.000  O
  O96      1.0000 0.98430  0.14770  0.86440  Biso   1.000  O
  O97      1.0000 0.99510  0.26970  0.89640  Biso   1.000  O
  O98      1.0000 0.06440  0.26710  0.82790  Biso   1.000  O
  O99      1.0000 0.01530  0.17150  0.94860  Biso   1.000  O
  O100     1.0000 0.83550  0.09460  0.88990  Biso   1.000  O
  O101     1.0000 0.91800  0.09570  0.82910  Biso   1.000  O
  O102     1.0000 0.87590  0.02380  0.95590  Biso   1.000  O
  O103     1.0000 0.80920  0.13090  0.80770  Biso   1.000  O
  O104     1.0000 0.88600  0.13460  0.74160  Biso   1.000  O
  O105     1.0000 0.80580  0.01580  0.84000  Biso   1.000  O
  O106     1.0000 0.84340  0.24820  0.72100  Biso   1.000  O
  O107     1.0000 0.92210  0.24080  0.66030  Biso   1.000  O
  O108     1.0000 0.80010  0.14780  0.70210  Biso   1.000  O
  O109     1.0000 0.91940  0.35540  0.68480  Biso   1.000  O
  O110     1.0000 0.99670  0.35910  0.61960  Biso   1.000  O
  O111     1.0000 0.89720  0.32980  0.59380  Biso   1.000  O
  O112     1.0000 0.00090  0.41310  0.71940  Biso   1.000  O
  O113     1.0000 0.07880  0.42110  0.64890  Biso   1.000  O
  O114     1.0000 0.01760  0.47820  0.60120  Biso   1.000  O
  O115     1.0000 0.02640  0.38010  0.80290  Biso   1.000  O
  O116     1.0000 0.10570  0.37330  0.74300  Biso   1.000  O
  O117     1.0000 0.12010  0.49550  0.69600  Biso   1.000  O
  O118     1.0000 0.11390  0.37300  0.84370  Biso   1.000  O
  O119     1.0000 0.07150  0.22930  0.75160  Biso   1.000  O
  O120     1.0000 0.00190  0.17630  0.71900  Biso   1.000  O
  O121     1.0000 0.02310  0.09630  0.80500  Biso   1.000  O
  O122     1.0000 0.11360  0.33410  0.66770  Biso   1.000  O
  O123     1.0000 0.03360  0.27530  0.62890  Biso   1.000  O
  O124     1.0000 0.12390  0.24740  0.64030  Biso   1.000  O
  O125     1.0000 0.95720  0.16260  0.63600  Biso   1.000  O
  O126     1.0000 0.17520  0.31860  0.74280  Biso   1.000  O
  O127     1.0000 0.82450  0.17370  0.92080  Biso   1.000  O
  O128     1.0000 0.81180  0.22000  0.83160  Biso   1.000  O
  O129     1.0000 0.72540  0.08890  0.91510  Biso   1.000  O
  O130     1.0000 0.91120  0.30120  0.88000  Biso   1.000  O
  O131     1.0000 0.88640  0.33090  0.79610  Biso   1.000  O
  O132     1.0000 0.78820  0.26100  0.90900  Biso   1.000  O
  O133     1.0000 0.95520  0.43330  0.80250  Biso   1.000  O
  O134     1.0000 0.88150  0.20070  0.98720  Biso   1.000  O
  O135     1.0000 0.80400  0.07220  0.02800  Biso   1.000  O
  O136     1.0000 0.95960  0.32380  0.95500  Biso   1.000  O
  O137     1.0000 0.11090  0.39950  0.56000  Biso   1.000  O
  O138     1.0000 0.02090  0.34290  0.52540  Biso   1.000  O
  O139     1.0000 0.19720  0.46430  0.58750  Biso   1.000  O
  O140     1.0000 0.79910  0.91490  0.82260  Biso   1.000  O
  O141     1.0000 0.80570  0.32320  0.74810  Biso   1.000  O
  O142     1.0000 0.92220  0.85140  0.23680  Biso   1.000  O
  O143     1.0000 0.98790  0.85230  0.16340  Biso   1.000  O
  O144     1.0000 0.83390  0.73030  0.27460  Biso   1.000  O
  O145     1.0000 0.90500  0.73290  0.20270  Biso   1.000  O
  O146     1.0000 0.87990  0.82850  0.15620  Biso   1.000  O
  O147     1.0000 0.01550  0.90540  0.25910  Biso   1.000  O
  O148     1.0000 0.07520  0.90430  0.17770  Biso   1.000  O
  O149     1.0000 0.02030  0.97620  0.14790  Biso   1.000  O
  O150     1.0000 0.06140  0.86910  0.32170  Biso   1.000  O
  O151     1.0000 0.12380  0.86540  0.24860  Biso   1.000  O
  O152     1.0000 0.14420  0.98420  0.21000  Biso   1.000  O
  O153     1.0000 0.03080  0.75180  0.40480  Biso   1.000  O
  O154     1.0000 0.09890  0.75920  0.31870  Biso   1.000  O
  O155     1.0000 0.15010  0.85220  0.34770  Biso   1.000  O
  O156     1.0000 0.95980  0.64460  0.43600  Biso   1.000  O
  O157     1.0000 0.02130  0.64090  0.36240  Biso   1.000  O
  O158     1.0000 0.07640  0.67020  0.43260  Biso   1.000  O
  O159     1.0000 0.86750  0.58690  0.41220  Biso   1.000  O
  O160     1.0000 0.93000  0.57890  0.34230  Biso   1.000  O
  O161     1.0000 0.92060  0.52180  0.46060  Biso   1.000  O
  O162     1.0000 0.81700  0.61990  0.35370  Biso   1.000  O
  O163     1.0000 0.88370  0.62670  0.26760  Biso   1.000  O
  O164     1.0000 0.80850  0.50450  0.37540  Biso   1.000  O
  O165     1.0000 0.78330  0.62700  0.25910  Biso   1.000  O
  O166     1.0000 0.01910  0.77070  0.15780  Biso   1.000  O
  O167     1.0000 0.10470  0.82370  0.17440  Biso   1.000  O
  O168     1.0000 0.09870  0.90370  0.07320  Biso   1.000  O
  O169     1.0000 0.99820  0.66590  0.22050  Biso   1.000  O
  O170     1.0000 0.09580  0.72470  0.24170  Biso   1.000  O
  O171     1.0000 0.11230  0.75260  0.12350  Biso   1.000  O
  O172     1.0000 0.20140  0.83740  0.20540  Biso   1.000  O
  O173     1.0000 0.93860  0.68140  0.14340  Biso   1.000  O
  O174     1.0000 0.90550  0.82630  0.34920  Biso   1.000  O
  O175     1.0000 0.94840  0.78000  0.40820  Biso   1.000  O
  O176     1.0000 0.99600  0.91110  0.36350  Biso   1.000  O
  O177     1.0000 0.81880  0.69880  0.39000  Biso   1.000  O
  O178     1.0000 0.87300  0.66910  0.44450  Biso   1.000  O
  O179     1.0000 0.83000  0.73900  0.47280  Biso   1.000  O
  O180     1.0000 0.76420  0.56670  0.47810  Biso   1.000  O
  O181     1.0000 0.81210  0.79930  0.31920  Biso   1.000  O
  O182     1.0000 0.89980  0.92780  0.26820  Biso   1.000  O
  O183     1.0000 0.72120  0.67620  0.36420  Biso   1.000  O
  O184     1.0000 0.04050  0.60050  0.28860  Biso   1.000  O
  O185     1.0000 0.13170  0.65710  0.32200  Biso   1.000  O
  O186     1.0000 0.94820  0.53570  0.26710  Biso   1.000  O
  O187     1.0000 0.26250  0.08510  0.11580  Biso   1.000  O
  O188     1.0000 0.92870  0.67680  0.51750  Biso   1.000  O
  O189     1.0000 0.51320  0.35140  0.82780  Biso   1.000  O
  O190     1.0000 0.58660  0.35230  0.76210  Biso   1.000  O
  O191     1.0000 0.47540  0.23030  0.91610  Biso   1.000  O
  O192     1.0000 0.54730  0.23290  0.84500  Biso   1.000  O
  O193     1.0000 0.59380  0.32850  0.87010  Biso   1.000  O
  O194     1.0000 0.49090  0.40540  0.73450  Biso   1.000  O
  O195     1.0000 0.57230  0.40430  0.67480  Biso   1.000  O
  O196     1.0000 0.60210  0.47620  0.72970  Biso   1.000  O
  O197     1.0000 0.42830  0.36910  0.68860  Biso   1.000  O
  O198     1.0000 0.50140  0.36540  0.62620  Biso   1.000  O
  O199     1.0000 0.54000  0.48420  0.60580  Biso   1.000  O
  O200     1.0000 0.34520  0.25180  0.71920  Biso   1.000  O
  O201     1.0000 0.43130  0.25920  0.65110  Biso   1.000  O
  O202     1.0000 0.40230  0.35220  0.59990  Biso   1.000  O
  O203     1.0000 0.31400  0.14460  0.79020  Biso   1.000  O
  O204     1.0000 0.38760  0.14090  0.72870  Biso   1.000  O
  O205     1.0000 0.31740  0.17020  0.67360  Biso   1.000  O
  O206     1.0000 0.33780  0.08690  0.88250  Biso   1.000  O
  O207     1.0000 0.40770  0.07890  0.82000  Biso   1.000  O
  O208     1.0000 0.28940  0.02180  0.82940  Biso   1.000  O
  O209     1.0000 0.39630  0.11990  0.93300  Biso   1.000  O
  O210     1.0000 0.48240  0.12670  0.86630  Biso   1.000  O
  O211     1.0000 0.37460  0.00450  0.94150  Biso   1.000  O
  O212     1.0000 0.49090  0.12700  0.96670  Biso   1.000  O
  O213     1.0000 0.59220  0.27070  0.73090  Biso   1.000  O
  O214     1.0000 0.57560  0.32370  0.64530  Biso   1.000  O
  O215     1.0000 0.67680  0.40370  0.65130  Biso   1.000  O
  O216     1.0000 0.52950  0.16590  0.75180  Biso   1.000  O
  O217     1.0000 0.50830  0.22470  0.65420  Biso   1.000  O
  O218     1.0000 0.62650  0.25260  0.63770  Biso   1.000  O
  O219     1.0000 0.54460  0.33740  0.54860  Biso   1.000  O
  O220     1.0000 0.60660  0.18140  0.81140  Biso   1.000  O
  O221     1.0000 0.40080  0.32630  0.84450  Biso   1.000  O
  O222     1.0000 0.34180  0.28000  0.80160  Biso   1.000  O
  O223     1.0000 0.38650  0.41110  0.75400  Biso   1.000  O
  O224     1.0000 0.36000  0.19880  0.93120  Biso   1.000  O
  O225     1.0000 0.30550  0.16910  0.87700  Biso   1.000  O
  O226     1.0000 0.27720  0.23900  0.92000  Biso   1.000  O
  O227     1.0000 0.27190  0.06670  0.98580  Biso   1.000  O
  O228     1.0000 0.43080  0.29930  0.93790  Biso   1.000  O
  O229     1.0000 0.48180  0.42780  0.85020  Biso   1.000  O
  O230     1.0000 0.38580  0.17620  0.02880  Biso   1.000  O
  O231     1.0000 0.46140  0.10050  0.70950  Biso   1.000  O
  O232     1.0000 0.42800  0.15710  0.61830  Biso   1.000  O
  O233     1.0000 0.48290  0.03570  0.80180  Biso   1.000  O
  O234     1.0000 0.63420  0.58510  0.48750  Biso   1.000  O
  O235     1.0000 0.23250  0.17680  0.82130  Biso   1.000  O
  O236     1.0000 0.82080  0.64860  0.83820  Biso   1.000  O
  O237     1.0000 0.88560  0.64770  0.76570  Biso   1.000  O
  O238     1.0000 0.85360  0.76970  0.75490  Biso   1.000  O
  O239     1.0000 0.92210  0.76710  0.68560  Biso   1.000  O
  O240     1.0000 0.80140  0.67150  0.73470  Biso   1.000  O
  O241     1.0000 0.86010  0.59460  0.91450  Biso   1.000  O
  O242     1.0000 0.92090  0.59570  0.83200  Biso   1.000  O
  O243     1.0000 0.79410  0.52380  0.87410  Biso   1.000  O
  O244     1.0000 0.94230  0.63090  0.94080  Biso   1.000  O
  O245     1.0000 0.00840  0.63460  0.86400  Biso   1.000  O
  O246     1.0000 0.91000  0.51580  0.94420  Biso   1.000  O
  O247     1.0000 0.02900  0.74820  0.90660  Biso   1.000  O
  O248     1.0000 0.08970  0.74080  0.82790  Biso   1.000  O
  O249     1.0000 0.04790  0.64780  0.94990  Biso   1.000  O
  O250     1.0000 0.06520  0.85540  0.83060  Biso   1.000  O
  O251     1.0000 0.13040  0.85910  0.75330  Biso   1.000  O
  O252     1.0000 0.15620  0.82980  0.85280  Biso   1.000  O
  O253     1.0000 0.03060  0.91310  0.74910  Biso   1.000  O
  O254     1.0000 0.10110  0.92110  0.67120  Biso   1.000  O
  O255     1.0000 0.14880  0.97820  0.73240  Biso   1.000  O
  O256     1.0000 0.94710  0.88010  0.72360  Biso   1.000  O
  O257     1.0000 0.00700  0.87330  0.64430  Biso   1.000  O
  O258     1.0000 0.05400  0.99550  0.62990  Biso   1.000  O
  O259     1.0000 0.90630  0.87300  0.63610  Biso   1.000  O
  O260     1.0000 0.99840  0.72930  0.67850  Biso   1.000  O
  O261     1.0000 0.03100  0.67630  0.74810  Biso   1.000  O
  O262     1.0000 0.94500  0.59630  0.72690  Biso   1.000  O
  O263     1.0000 0.08230  0.83410  0.63640  Biso   1.000  O
  O264     1.0000 0.12110  0.77530  0.71640  Biso   1.000  O
  O265     1.0000 0.10970  0.74740  0.62610  Biso   1.000  O
  O266     1.0000 0.11400  0.66260  0.79280  Biso   1.000  O
  O267     1.0000 0.00720  0.81860  0.57480  Biso   1.000  O
  O268     1.0000 0.82920  0.67370  0.92550  Biso   1.000  O
  O269     1.0000 0.91840  0.72000  0.93820  Biso   1.000  O
  O270     1.0000 0.83490  0.58890  0.02460  Biso   1.000  O
  O271     1.0000 0.87000  0.80120  0.83880  Biso   1.000  O
  O272     1.0000 0.95390  0.83090  0.86360  Biso   1.000  O
  O273     1.0000 0.84100  0.76100  0.96180  Biso   1.000  O
  O274     1.0000 0.94750  0.93330  0.79480  Biso   1.000  O
  O275     1.0000 0.76280  0.70070  0.86850  Biso   1.000  O
  O276     1.0000 0.72200  0.57220  0.94600  Biso   1.000  O
  O277     1.0000 0.79500  0.82380  0.79040  Biso   1.000  O
  O278     1.0000 0.19000  0.89950  0.63910  Biso   1.000  O
  O279     1.0000 0.22460  0.84290  0.72910  Biso   1.000  O
  O280     1.0000 0.16250  0.96430  0.55280  Biso   1.000  O
  O281     1.0000 0.92740  0.41490  0.95090  Biso   1.000  O
  O282     1.0000 0.00190  0.82320  0.94430  Biso   1.000  O
  O283     1.0000 0.42220  0.15900  0.42920  Biso   1.000  O
  O284     1.0000 0.48790  0.15130  0.36440  Biso   1.000  O
  O285     1.0000 0.33390  0.10850  0.39640  Biso   1.000  O
  O286     1.0000 0.40500  0.10770  0.32790  Biso   1.000  O
  O287     1.0000 0.37990  0.03610  0.44860  Biso   1.000  O
  O288     1.0000 0.51550  0.27460  0.38990  Biso   1.000  O
  O289     1.0000 0.57520  0.25290  0.32910  Biso   1.000  O
  O290     1.0000 0.52030  0.16820  0.45590  Biso   1.000  O
  O291     1.0000 0.56140  0.38310  0.30770  Biso   1.000  O
  O292     1.0000 0.62380  0.37240  0.24160  Biso   1.000  O
  O293     1.0000 0.64420  0.35420  0.34000  Biso   1.000  O
  O294     1.0000 0.53080  0.43560  0.22100  Biso   1.000  O
  O295     1.0000 0.59890  0.41760  0.16030  Biso   1.000  O
  O296     1.0000 0.65010  0.49780  0.20210  Biso   1.000  O
  O297     1.0000 0.45980  0.39580  0.18480  Biso   1.000  O
  O298     1.0000 0.52130  0.38370  0.11960  Biso   1.000  O
  O299     1.0000 0.57640  0.50900  0.09380  Biso   1.000  O
  O300     1.0000 0.36750  0.27970  0.21940  Biso   1.000  O
  O301     1.0000 0.43000  0.27230  0.14890  Biso   1.000  O
  O302     1.0000 0.42060  0.38120  0.10120  Biso   1.000  O
  O303     1.0000 0.31700  0.17070  0.30290  Biso   1.000  O
  O304     1.0000 0.38370  0.15130  0.24300  Biso   1.000  O
  O305     1.0000 0.30850  0.18390  0.19600  Biso   1.000  O
  O306     1.0000 0.28330  0.04240  0.34370  Biso   1.000  O
  O307     1.0000 0.51910  0.17690  0.25160  Biso   1.000  O
  O308     1.0000 0.60470  0.27910  0.21900  Biso   1.000  O
  O309     1.0000 0.59870  0.17190  0.30500  Biso   1.000  O
  O310     1.0000 0.49820  0.21870  0.16770  Biso   1.000  O
  O311     1.0000 0.59580  0.33750  0.12890  Biso   1.000  O
  O312     1.0000 0.61230  0.23580  0.14030  Biso   1.000  O
  O313     1.0000 0.70140  0.40680  0.13600  Biso   1.000  O
  O314     1.0000 0.43860  0.08200  0.24280  Biso   1.000  O
  O315     1.0000 0.40550  0.25470  0.42080  Biso   1.000  O
  O316     1.0000 0.44840  0.35660  0.33160  Biso   1.000  O
  O317     1.0000 0.49600  0.35950  0.41510  Biso   1.000  O
  O318     1.0000 0.31880  0.20880  0.38000  Biso   1.000  O
  O319     1.0000 0.37300  0.31750  0.29610  Biso   1.000  O
  O320     1.0000 0.33000  0.30280  0.40900  Biso   1.000  O
  O321     1.0000 0.26420  0.24230  0.30250  Biso   1.000  O
  O322     1.0000 0.31210  0.13130  0.48720  Biso   1.000  O
  O323     1.0000 0.39980  0.16800  0.52800  Biso   1.000  O
  O324     1.0000 0.22120  0.08540  0.45500  Biso   1.000  O
  O325     1.0000 0.54050  0.32910  0.06000  Biso   1.000  O
  O326     1.0000 0.63170  0.45370  0.02540  Biso   1.000  O
  O327     1.0000 0.44820  0.21530  0.08750  Biso   1.000  O
  O328     1.0000 0.76250  0.37830  0.32260  Biso   1.000  O
  O329     1.0000 0.42870  0.44620  0.24810  Biso   1.000  O
  O330     1.0000 0.41180  0.84100  0.73680  Biso   1.000  O
  O331     1.0000 0.48430  0.84870  0.66340  Biso   1.000  O
  O332     1.0000 0.49510  0.89150  0.77460  Biso   1.000  O
  O333     1.0000 0.56440  0.89230  0.70270  Biso   1.000  O
  O334     1.0000 0.51530  0.96390  0.65620  Biso   1.000  O
  O335     1.0000 0.33550  0.72540  0.75910  Biso   1.000  O
  O336     1.0000 0.41800  0.74710  0.67770  Biso   1.000  O
  O337     1.0000 0.37590  0.83180  0.64790  Biso   1.000  O
  O338     1.0000 0.30920  0.61690  0.82170  Biso   1.000  O
  O339     1.0000 0.38600  0.62760  0.74860  Biso   1.000  O
  O340     1.0000 0.30580  0.64580  0.71000  Biso   1.000  O
  O341     1.0000 0.34340  0.56440  0.90480  Biso   1.000  O
  O342     1.0000 0.42210  0.58240  0.81870  Biso   1.000  O
  O343     1.0000 0.30010  0.50220  0.84770  Biso   1.000  O
  O344     1.0000 0.41940  0.60420  0.93600  Biso   1.000  O
  O345     1.0000 0.49670  0.61630  0.86240  Biso   1.000  O
  O346     1.0000 0.39720  0.49100  0.93260  Biso   1.000  O
  O347     1.0000 0.50090  0.72030  0.91220  Biso   1.000  O
  O348     1.0000 0.57880  0.72770  0.84230  Biso   1.000  O
  O349     1.0000 0.51760  0.61880  0.96060  Biso   1.000  O
  O350     1.0000 0.52640  0.82930  0.85370  Biso   1.000  O
  O351     1.0000 0.60570  0.84870  0.76760  Biso   1.000  O
  O352     1.0000 0.62010  0.81610  0.87540  Biso   1.000  O
  O353     1.0000 0.61390  0.95760  0.75910  Biso   1.000  O
  O354     1.0000 0.57150  0.82310  0.65780  Biso   1.000  O
  O355     1.0000 0.50190  0.72090  0.67440  Biso   1.000  O
  O356     1.0000 0.52310  0.82810  0.57320  Biso   1.000  O
  O357     1.0000 0.61360  0.78130  0.72050  Biso   1.000  O
  O358     1.0000 0.53360  0.66250  0.74170  Biso   1.000  O
  O359     1.0000 0.62390  0.76420  0.62350  Biso   1.000  O
  O360     1.0000 0.45720  0.59320  0.70540  Biso   1.000  O
  O361     1.0000 0.67520  0.91800  0.64340  Biso   1.000  O
  O362     1.0000 0.32450  0.74530  0.84920  Biso   1.000  O
  O363     1.0000 0.31180  0.64340  0.90820  Biso   1.000  O
  O364     1.0000 0.22540  0.64050  0.86350  Biso   1.000  O
  O365     1.0000 0.41120  0.79120  0.89000  Biso   1.000  O
  O366     1.0000 0.38640  0.68250  0.94450  Biso   1.000  O
  O367     1.0000 0.28820  0.69720  0.97280  Biso   1.000  O
  O368     1.0000 0.45520  0.75770  0.97810  Biso   1.000  O
  O369     1.0000 0.38150  0.86870  0.81920  Biso   1.000  O
  O370     1.0000 0.30400  0.83200  0.76820  Biso   1.000  O
  O371     1.0000 0.45960  0.91460  0.86420  Biso   1.000  O
  O372     1.0000 0.61090  0.67090  0.78860  Biso   1.000  O
  O373     1.0000 0.52090  0.54630  0.82200  Biso   1.000  O
  O374     1.0000 0.69720  0.78470  0.76710  Biso   1.000  O
  O375     1.0000 0.29910  0.62170  0.61580  Biso   1.000  O
  O376     1.0000 0.30570  0.55380  0.01750  Biso   1.000  O
