data_image0
_cell_length_a       27.7977
_cell_length_b       27.7977
_cell_length_c       27.7977
_cell_angle_alpha    109.471
_cell_angle_beta     109.471
_cell_angle_gamma    109.471

_symmetry_space_group_name_H-M    P 1
_symmetry_int_tables_number       1

loop_
  _symmetry_equiv_pos_as_xyz
  'x, y, z'

loop_
  _atom_site_label
  _atom_site_occupancy
  _atom_site_fract_x
  _atom_site_fract_y
  _atom_site_fract_z
  _atom_site_thermal_displace_type
  _atom_site_B_iso_or_equiv
  _atom_site_type_symbol
  Fe1      1.0000 0.50554  0.78907  0.72389  Biso   1.000  Fe
  Fe2      1.0000 0.06518  0.78165  0.27611  Biso   1.000  Fe
  Fe3      1.0000 0.93482  0.21093  0.71647  Biso   1.000  Fe
  Fe4      1.0000 0.49446  0.21835  0.28353  Biso   1.000  Fe
  Fe5      1.0000 0.71647  0.93482  0.21093  Biso   1.000  Fe
  Fe6      1.0000 0.28353  0.49446  0.21835  Biso   1.000  Fe
  Fe7      1.0000 0.72389  0.50554  0.78907  Biso   1.000  Fe
  Fe8      1.0000 0.27611  0.06518  0.78165  Biso   1.000  Fe
  Fe9      1.0000 0.78165  0.27611  0.06518  Biso   1.000  Fe
  Fe10     1.0000 0.78907  0.72389  0.50554  Biso   1.000  Fe
  Fe11     1.0000 0.21835  0.28353  0.49446  Biso   1.000  Fe
  Fe12     1.0000 0.21093  0.71647  0.93482  Biso   1.000  Fe
  H1       1.0000 0.49440  0.80690  0.61490  Biso   1.000  H
  H2       1.0000 0.45680  0.75550  0.51650  Biso   1.000  H
  H3       1.0000 0.39490  0.65300  0.46330  Biso   1.000  H
  H4       1.0000 0.42410  0.66110  0.61940  Biso   1.000  H
  H5       1.0000 0.25650  0.37050  0.20940  Biso   1.000  H
  H6       1.0000 0.25010  0.32120  0.26150  Biso   1.000  H
  H7       1.0000 0.27660  0.37680  0.36260  Biso   1.000  H
  H8       1.0000 0.32810  0.52240  0.34910  Biso   1.000  H
  H9       1.0000 0.26160  0.38850  0.47390  Biso   1.000  H
  H10      1.0000 0.33190  0.54360  0.61730  Biso   1.000  H
  H11      1.0000 0.28940  0.49200  0.65800  Biso   1.000  H
  H12      1.0000 0.24900  0.39200  0.61140  Biso   1.000  H
  H13      1.0000 0.52200  0.72220  0.79500  Biso   1.000  H
  H14      1.0000 0.56780  0.67150  0.81630  Biso   1.000  H
  H15      1.0000 0.62230  0.65260  0.77350  Biso   1.000  H
  H16      1.0000 0.58260  0.73680  0.68840  Biso   1.000  H
  H17      1.0000 0.50220  0.71210  0.86510  Biso   1.000  H
  H18      1.0000 0.60040  0.74540  0.93060  Biso   1.000  H
  H19      1.0000 0.61860  0.73950  0.01950  Biso   1.000  H
  H20      1.0000 0.54070  0.69010  0.02880  Biso   1.000  H
  H21      1.0000 0.44580  0.65840  0.96040  Biso   1.000  H
  H22      1.0000 0.37820  0.64720  0.78480  Biso   1.000  H
  H23      1.0000 0.37220  0.62840  0.86720  Biso   1.000  H
  H24      1.0000 0.38940  0.68930  0.86710  Biso   1.000  H
  H25      1.0000 0.19200  0.87950  0.38510  Biso   1.000  H
  H26      1.0000 0.23900  0.94030  0.48350  Biso   1.000  H
  H27      1.0000 0.18970  0.93160  0.53670  Biso   1.000  H
  H28      1.0000 0.04170  0.80470  0.38060  Biso   1.000  H
  H29      1.0000 0.16110  0.04710  0.79060  Biso   1.000  H
  H30      1.0000 0.05970  0.98860  0.73850  Biso   1.000  H
  H31      1.0000 0.01420  0.91400  0.63740  Biso   1.000  H
  H32      1.0000 0.17330  0.97900  0.65090  Biso   1.000  H
  H33      1.0000 0.91460  0.78770  0.52610  Biso   1.000  H
  H34      1.0000 0.92630  0.71460  0.38270  Biso   1.000  H
  H35      1.0000 0.83400  0.63140  0.34200  Biso   1.000  H
  H36      1.0000 0.78060  0.63760  0.38860  Biso   1.000  H
  H37      1.0000 0.92720  0.72700  0.20500  Biso   1.000  H
  H38      1.0000 0.85520  0.75150  0.18370  Biso   1.000  H
  H39      1.0000 0.87910  0.84880  0.22650  Biso   1.000  H
  H40      1.0000 0.04840  0.89420  0.31160  Biso   1.000  H
  H41      1.0000 0.84700  0.63710  0.13490  Biso   1.000  H
  H42      1.0000 0.81480  0.66980  0.06940  Biso   1.000  H
  H43      1.0000 0.72000  0.59910  0.98050  Biso   1.000  H
  H44      1.0000 0.66130  0.51190  0.97120  Biso   1.000  H
  H45      1.0000 0.69800  0.48540  0.03960  Biso   1.000  H
  H46      1.0000 0.86240  0.59340  0.21520  Biso   1.000  H
  H47      1.0000 0.76120  0.50500  0.13280  Biso   1.000  H
  H48      1.0000 0.82220  0.52230  0.13290  Biso   1.000  H
  H49      1.0000 0.80800  0.19310  0.68750  Biso   1.000  H
  H50      1.0000 0.76100  0.24450  0.70130  Biso   1.000  H
  H51      1.0000 0.81030  0.34700  0.74190  Biso   1.000  H
  H52      1.0000 0.95830  0.33890  0.76300  Biso   1.000  H
  H53      1.0000 0.83890  0.62950  0.88600  Biso   1.000  H
  H54      1.0000 0.94030  0.67880  0.92890  Biso   1.000  H
  H55      1.0000 0.98580  0.62320  0.89980  Biso   1.000  H
  H56      1.0000 0.82670  0.47760  0.80570  Biso   1.000  H
  H57      1.0000 0.08540  0.61150  0.87310  Biso   1.000  H
  H58      1.0000 0.07370  0.45640  0.78830  Biso   1.000  H
  H59      1.0000 0.16600  0.50800  0.79740  Biso   1.000  H
  H60      1.0000 0.21940  0.60800  0.85700  Biso   1.000  H
  H61      1.0000 0.07280  0.27780  0.79980  Biso   1.000  H
  H62      1.0000 0.14480  0.32850  0.89630  Biso   1.000  H
  H63      1.0000 0.12090  0.34740  0.96970  Biso   1.000  H
  H64      1.0000 0.95160  0.26320  0.84580  Biso   1.000  H
  H65      1.0000 0.15300  0.28790  0.79010  Biso   1.000  H
  H66      1.0000 0.18520  0.25460  0.85500  Biso   1.000  H
  H67      1.0000 0.28000  0.26050  0.87910  Biso   1.000  H
  H68      1.0000 0.33870  0.30990  0.85060  Biso   1.000  H
  H69      1.0000 0.30200  0.34160  0.78740  Biso   1.000  H
  H70      1.0000 0.13760  0.35280  0.73100  Biso   1.000  H
  H71      1.0000 0.23880  0.37160  0.74380  Biso   1.000  H
  H72      1.0000 0.17780  0.31070  0.70010  Biso   1.000  H
  H73      1.0000 0.50560  0.12050  0.31250  Biso   1.000  H
  H74      1.0000 0.54320  0.05970  0.29870  Biso   1.000  H
  H75      1.0000 0.60510  0.06840  0.25810  Biso   1.000  H
  H76      1.0000 0.57590  0.19530  0.23700  Biso   1.000  H
  H77      1.0000 0.74350  0.95290  0.11400  Biso   1.000  H
  H78      1.0000 0.74990  0.01140  0.07110  Biso   1.000  H
  H79      1.0000 0.72340  0.08600  0.10020  Biso   1.000  H
  H80      1.0000 0.67190  0.02100  0.19430  Biso   1.000  H
  H81      1.0000 0.73840  0.21230  0.12690  Biso   1.000  H
  H82      1.0000 0.66810  0.28540  0.21170  Biso   1.000  H
  H83      1.0000 0.71060  0.36860  0.20260  Biso   1.000  H
  H84      1.0000 0.75100  0.36240  0.14300  Biso   1.000  H
  H85      1.0000 0.47800  0.27300  0.20020  Biso   1.000  H
  H86      1.0000 0.43220  0.24850  0.10370  Biso   1.000  H
  H87      1.0000 0.37770  0.15120  0.03030  Biso   1.000  H
  H88      1.0000 0.41740  0.10580  0.15420  Biso   1.000  H
  H89      1.0000 0.49780  0.36290  0.20990  Biso   1.000  H
  H90      1.0000 0.39960  0.33020  0.14500  Biso   1.000  H
  H91      1.0000 0.38140  0.40090  0.12090  Biso   1.000  H
  H92      1.0000 0.45930  0.48810  0.14940  Biso   1.000  H
  H93      1.0000 0.55420  0.51460  0.21260  Biso   1.000  H
  H94      1.0000 0.62180  0.40660  0.26900  Biso   1.000  H
  H95      1.0000 0.62780  0.49500  0.25620  Biso   1.000  H
  H96      1.0000 0.61060  0.47770  0.29990  Biso   1.000  H
  H97      1.0000 0.68750  0.80800  0.19310  Biso   1.000  H
  H98      1.0000 0.70130  0.76100  0.24450  Biso   1.000  H
  H99      1.0000 0.74190  0.81030  0.34700  Biso   1.000  H
  H100     1.0000 0.76300  0.95830  0.33890  Biso   1.000  H
  H101     1.0000 0.88600  0.83890  0.62950  Biso   1.000  H
  H102     1.0000 0.92890  0.94030  0.67880  Biso   1.000  H
  H103     1.0000 0.89980  0.98580  0.62320  Biso   1.000  H
  H104     1.0000 0.80570  0.82670  0.47760  Biso   1.000  H
  H105     1.0000 0.87310  0.08540  0.61150  Biso   1.000  H
  H106     1.0000 0.78830  0.07370  0.45640  Biso   1.000  H
  H107     1.0000 0.79740  0.16600  0.50800  Biso   1.000  H
  H108     1.0000 0.85700  0.21940  0.60800  Biso   1.000  H
  H109     1.0000 0.79980  0.07280  0.27780  Biso   1.000  H
  H110     1.0000 0.89630  0.14480  0.32850  Biso   1.000  H
  H111     1.0000 0.96970  0.12090  0.34740  Biso   1.000  H
  H112     1.0000 0.84580  0.95160  0.26320  Biso   1.000  H
  H113     1.0000 0.79010  0.15300  0.28790  Biso   1.000  H
  H114     1.0000 0.85500  0.18520  0.25460  Biso   1.000  H
  H115     1.0000 0.87910  0.28000  0.26050  Biso   1.000  H
  H116     1.0000 0.85060  0.33870  0.30990  Biso   1.000  H
  H117     1.0000 0.78740  0.30200  0.34160  Biso   1.000  H
  H118     1.0000 0.73100  0.13760  0.35280  Biso   1.000  H
  H119     1.0000 0.74380  0.23880  0.37160  Biso   1.000  H
  H120     1.0000 0.70010  0.17780  0.31070  Biso   1.000  H
  H121     1.0000 0.31250  0.50560  0.12050  Biso   1.000  H
  H122     1.0000 0.29870  0.54320  0.05970  Biso   1.000  H
  H123     1.0000 0.25810  0.60510  0.06840  Biso   1.000  H
  H124     1.0000 0.23700  0.57590  0.19530  Biso   1.000  H
  H125     1.0000 0.11400  0.74350  0.95290  Biso   1.000  H
  H126     1.0000 0.07110  0.74990  0.01140  Biso   1.000  H
  H127     1.0000 0.10020  0.72340  0.08600  Biso   1.000  H
  H128     1.0000 0.19430  0.67190  0.02100  Biso   1.000  H
  H129     1.0000 0.12690  0.73840  0.21230  Biso   1.000  H
  H130     1.0000 0.21170  0.66810  0.28540  Biso   1.000  H
  H131     1.0000 0.20260  0.71060  0.36860  Biso   1.000  H
  H132     1.0000 0.14300  0.75100  0.36240  Biso   1.000  H
  H133     1.0000 0.20020  0.47800  0.27300  Biso   1.000  H
  H134     1.0000 0.10370  0.43220  0.24850  Biso   1.000  H
  H135     1.0000 0.03030  0.37770  0.15120  Biso   1.000  H
  H136     1.0000 0.15420  0.41740  0.10580  Biso   1.000  H
  H137     1.0000 0.20990  0.49780  0.36290  Biso   1.000  H
  H138     1.0000 0.14500  0.39960  0.33020  Biso   1.000  H
  H139     1.0000 0.12090  0.38140  0.40090  Biso   1.000  H
  H140     1.0000 0.14940  0.45930  0.48810  Biso   1.000  H
  H141     1.0000 0.21260  0.55420  0.51460  Biso   1.000  H
  H142     1.0000 0.26900  0.62180  0.40660  Biso   1.000  H
  H143     1.0000 0.25620  0.62780  0.49500  Biso   1.000  H
  H144     1.0000 0.29990  0.61060  0.47770  Biso   1.000  H
  H145     1.0000 0.61490  0.49440  0.80690  Biso   1.000  H
  H146     1.0000 0.51650  0.45680  0.75550  Biso   1.000  H
  H147     1.0000 0.46330  0.39490  0.65300  Biso   1.000  H
  H148     1.0000 0.61940  0.42410  0.66110  Biso   1.000  H
  H149     1.0000 0.20940  0.25650  0.37050  Biso   1.000  H
  H150     1.0000 0.26150  0.25010  0.32120  Biso   1.000  H
  H151     1.0000 0.36260  0.27660  0.37680  Biso   1.000  H
  H152     1.0000 0.34910  0.32810  0.52240  Biso   1.000  H
  H153     1.0000 0.47390  0.26160  0.38850  Biso   1.000  H
  H154     1.0000 0.61730  0.33190  0.54360  Biso   1.000  H
  H155     1.0000 0.65800  0.28940  0.49200  Biso   1.000  H
  H156     1.0000 0.61140  0.24900  0.39200  Biso   1.000  H
  H157     1.0000 0.79500  0.52200  0.72220  Biso   1.000  H
  H158     1.0000 0.81630  0.56780  0.67150  Biso   1.000  H
  H159     1.0000 0.77350  0.62230  0.65260  Biso   1.000  H
  H160     1.0000 0.68840  0.58260  0.73680  Biso   1.000  H
  H161     1.0000 0.86510  0.50220  0.71210  Biso   1.000  H
  H162     1.0000 0.93060  0.60040  0.74540  Biso   1.000  H
  H163     1.0000 0.01950  0.61860  0.73950  Biso   1.000  H
  H164     1.0000 0.02880  0.54070  0.69010  Biso   1.000  H
  H165     1.0000 0.96040  0.44580  0.65840  Biso   1.000  H
  H166     1.0000 0.78480  0.37820  0.64720  Biso   1.000  H
  H167     1.0000 0.86720  0.37220  0.62840  Biso   1.000  H
  H168     1.0000 0.86710  0.38940  0.68930  Biso   1.000  H
  H169     1.0000 0.38510  0.19200  0.87950  Biso   1.000  H
  H170     1.0000 0.48350  0.23900  0.94030  Biso   1.000  H
  H171     1.0000 0.53670  0.18970  0.93160  Biso   1.000  H
  H172     1.0000 0.38060  0.04170  0.80470  Biso   1.000  H
  H173     1.0000 0.79060  0.16110  0.04710  Biso   1.000  H
  H174     1.0000 0.73850  0.05970  0.98860  Biso   1.000  H
  H175     1.0000 0.63740  0.01420  0.91400  Biso   1.000  H
  H176     1.0000 0.65090  0.17330  0.97900  Biso   1.000  H
  H177     1.0000 0.52610  0.91460  0.78770  Biso   1.000  H
  H178     1.0000 0.38270  0.92630  0.71460  Biso   1.000  H
  H179     1.0000 0.34200  0.83400  0.63140  Biso   1.000  H
  H180     1.0000 0.38860  0.78060  0.63760  Biso   1.000  H
  H181     1.0000 0.20500  0.92720  0.72700  Biso   1.000  H
  H182     1.0000 0.18370  0.85520  0.75150  Biso   1.000  H
  H183     1.0000 0.22650  0.87910  0.84880  Biso   1.000  H
  H184     1.0000 0.31160  0.04840  0.89420  Biso   1.000  H
  H185     1.0000 0.13490  0.84700  0.63710  Biso   1.000  H
  H186     1.0000 0.06940  0.81480  0.66980  Biso   1.000  H
  H187     1.0000 0.98050  0.72000  0.59910  Biso   1.000  H
  H188     1.0000 0.97120  0.66130  0.51190  Biso   1.000  H
  H189     1.0000 0.03960  0.69800  0.48540  Biso   1.000  H
  H190     1.0000 0.21520  0.86240  0.59340  Biso   1.000  H
  H191     1.0000 0.13280  0.76120  0.50500  Biso   1.000  H
  H192     1.0000 0.13290  0.82220  0.52230  Biso   1.000  H
  H193     1.0000 0.87950  0.38510  0.19200  Biso   1.000  H
  H194     1.0000 0.94030  0.48350  0.23900  Biso   1.000  H
  H195     1.0000 0.93160  0.53670  0.18970  Biso   1.000  H
  H196     1.0000 0.80470  0.38060  0.04170  Biso   1.000  H
  H197     1.0000 0.04710  0.79060  0.16110  Biso   1.000  H
  H198     1.0000 0.98860  0.73850  0.05970  Biso   1.000  H
  H199     1.0000 0.91400  0.63740  0.01420  Biso   1.000  H
  H200     1.0000 0.97900  0.65090  0.17330  Biso   1.000  H
  H201     1.0000 0.78770  0.52610  0.91460  Biso   1.000  H
  H202     1.0000 0.71460  0.38270  0.92630  Biso   1.000  H
  H203     1.0000 0.63140  0.34200  0.83400  Biso   1.000  H
  H204     1.0000 0.63760  0.38860  0.78060  Biso   1.000  H
  H205     1.0000 0.72700  0.20500  0.92720  Biso   1.000  H
  H206     1.0000 0.75150  0.18370  0.85520  Biso   1.000  H
  H207     1.0000 0.84880  0.22650  0.87910  Biso   1.000  H
  H208     1.0000 0.89420  0.31160  0.04840  Biso   1.000  H
  H209     1.0000 0.63710  0.13490  0.84700  Biso   1.000  H
  H210     1.0000 0.66980  0.06940  0.81480  Biso   1.000  H
  H211     1.0000 0.59910  0.98050  0.72000  Biso   1.000  H
  H212     1.0000 0.51190  0.97120  0.66130  Biso   1.000  H
  H213     1.0000 0.48540  0.03960  0.69800  Biso   1.000  H
  H214     1.0000 0.59340  0.21520  0.86240  Biso   1.000  H
  H215     1.0000 0.50500  0.13280  0.76120  Biso   1.000  H
  H216     1.0000 0.52230  0.13290  0.82220  Biso   1.000  H
  H217     1.0000 0.80690  0.61490  0.49440  Biso   1.000  H
  H218     1.0000 0.75550  0.51650  0.45680  Biso   1.000  H
  H219     1.0000 0.65300  0.46330  0.39490  Biso   1.000  H
  H220     1.0000 0.66110  0.61940  0.42410  Biso   1.000  H
  H221     1.0000 0.37050  0.20940  0.25650  Biso   1.000  H
  H222     1.0000 0.32120  0.26150  0.25010  Biso   1.000  H
  H223     1.0000 0.37680  0.36260  0.27660  Biso   1.000  H
  H224     1.0000 0.52240  0.34910  0.32810  Biso   1.000  H
  H225     1.0000 0.38850  0.47390  0.26160  Biso   1.000  H
  H226     1.0000 0.54360  0.61730  0.33190  Biso   1.000  H
  H227     1.0000 0.49200  0.65800  0.28940  Biso   1.000  H
  H228     1.0000 0.39200  0.61140  0.24900  Biso   1.000  H
  H229     1.0000 0.72220  0.79500  0.52200  Biso   1.000  H
  H230     1.0000 0.67150  0.81630  0.56780  Biso   1.000  H
  H231     1.0000 0.65260  0.77350  0.62230  Biso   1.000  H
  H232     1.0000 0.73680  0.68840  0.58260  Biso   1.000  H
  H233     1.0000 0.71210  0.86510  0.50220  Biso   1.000  H
  H234     1.0000 0.74540  0.93060  0.60040  Biso   1.000  H
  H235     1.0000 0.73950  0.01950  0.61860  Biso   1.000  H
  H236     1.0000 0.69010  0.02880  0.54070  Biso   1.000  H
  H237     1.0000 0.65840  0.96040  0.44580  Biso   1.000  H
  H238     1.0000 0.64720  0.78480  0.37820  Biso   1.000  H
  H239     1.0000 0.62840  0.86720  0.37220  Biso   1.000  H
  H240     1.0000 0.68930  0.86710  0.38940  Biso   1.000  H
  H241     1.0000 0.12050  0.31250  0.50560  Biso   1.000  H
  H242     1.0000 0.05970  0.29870  0.54320  Biso   1.000  H
  H243     1.0000 0.06840  0.25810  0.60510  Biso   1.000  H
  H244     1.0000 0.19530  0.23700  0.57590  Biso   1.000  H
  H245     1.0000 0.95290  0.11400  0.74350  Biso   1.000  H
  H246     1.0000 0.01140  0.07110  0.74990  Biso   1.000  H
  H247     1.0000 0.08600  0.10020  0.72340  Biso   1.000  H
  H248     1.0000 0.02100  0.19430  0.67190  Biso   1.000  H
  H249     1.0000 0.21230  0.12690  0.73840  Biso   1.000  H
  H250     1.0000 0.28540  0.21170  0.66810  Biso   1.000  H
  H251     1.0000 0.36860  0.20260  0.71060  Biso   1.000  H
  H252     1.0000 0.36240  0.14300  0.75100  Biso   1.000  H
  H253     1.0000 0.27300  0.20020  0.47800  Biso   1.000  H
  H254     1.0000 0.24850  0.10370  0.43220  Biso   1.000  H
  H255     1.0000 0.15120  0.03030  0.37770  Biso   1.000  H
  H256     1.0000 0.10580  0.15420  0.41740  Biso   1.000  H
  H257     1.0000 0.36290  0.20990  0.49780  Biso   1.000  H
  H258     1.0000 0.33020  0.14500  0.39960  Biso   1.000  H
  H259     1.0000 0.40090  0.12090  0.38140  Biso   1.000  H
  H260     1.0000 0.48810  0.14940  0.45930  Biso   1.000  H
  H261     1.0000 0.51460  0.21260  0.55420  Biso   1.000  H
  H262     1.0000 0.40660  0.26900  0.62180  Biso   1.000  H
  H263     1.0000 0.49500  0.25620  0.62780  Biso   1.000  H
  H264     1.0000 0.47770  0.29990  0.61060  Biso   1.000  H
  H265     1.0000 0.19310  0.68750  0.80800  Biso   1.000  H
  H266     1.0000 0.24450  0.70130  0.76100  Biso   1.000  H
  H267     1.0000 0.34700  0.74190  0.81030  Biso   1.000  H
  H268     1.0000 0.33890  0.76300  0.95830  Biso   1.000  H
  H269     1.0000 0.62950  0.88600  0.83890  Biso   1.000  H
  H270     1.0000 0.67880  0.92890  0.94030  Biso   1.000  H
  H271     1.0000 0.62320  0.89980  0.98580  Biso   1.000  H
  H272     1.0000 0.47760  0.80570  0.82670  Biso   1.000  H
  H273     1.0000 0.61150  0.87310  0.08540  Biso   1.000  H
  H274     1.0000 0.45640  0.78830  0.07370  Biso   1.000  H
  H275     1.0000 0.50800  0.79740  0.16600  Biso   1.000  H
  H276     1.0000 0.60800  0.85700  0.21940  Biso   1.000  H
  H277     1.0000 0.27780  0.79980  0.07280  Biso   1.000  H
  H278     1.0000 0.32850  0.89630  0.14480  Biso   1.000  H
  H279     1.0000 0.34740  0.96970  0.12090  Biso   1.000  H
  H280     1.0000 0.26320  0.84580  0.95160  Biso   1.000  H
  H281     1.0000 0.28790  0.79010  0.15300  Biso   1.000  H
  H282     1.0000 0.25460  0.85500  0.18520  Biso   1.000  H
  H283     1.0000 0.26050  0.87910  0.28000  Biso   1.000  H
  H284     1.0000 0.30990  0.85060  0.33870  Biso   1.000  H
  H285     1.0000 0.34160  0.78740  0.30200  Biso   1.000  H
  H286     1.0000 0.35280  0.73100  0.13760  Biso   1.000  H
  H287     1.0000 0.37160  0.74380  0.23880  Biso   1.000  H
  H288     1.0000 0.31070  0.70010  0.17780  Biso   1.000  H
  C1       1.0000 0.61950  0.86590  0.72260  Biso   1.000  C
  C2       1.0000 0.36630  0.58100  0.50650  Biso   1.000  C
  C3       1.0000 0.32220  0.49170  0.42750  Biso   1.000  C
  C4       1.0000 0.31910  0.49940  0.50890  Biso   1.000  C
  C5       1.0000 0.47220  0.76510  0.59510  Biso   1.000  C
  C6       1.0000 0.44870  0.73500  0.53670  Biso   1.000  C
  C7       1.0000 0.41260  0.67440  0.50500  Biso   1.000  C
  C8       1.0000 0.40330  0.64610  0.53640  Biso   1.000  C
  C9       1.0000 0.43080  0.68040  0.59780  Biso   1.000  C
  C10      1.0000 0.27000  0.39270  0.25010  Biso   1.000  C
  C11      1.0000 0.26440  0.36240  0.28000  Biso   1.000  C
  C12      1.0000 0.28110  0.39540  0.34010  Biso   1.000  C
  C13      1.0000 0.30380  0.45480  0.36440  Biso   1.000  C
  C14      1.0000 0.31030  0.48080  0.33090  Biso   1.000  C
  C15      1.0000 0.27010  0.41020  0.51310  Biso   1.000  C
  C16      1.0000 0.29900  0.47060  0.54020  Biso   1.000  C
  C17      1.0000 0.30950  0.50180  0.59610  Biso   1.000  C
  C18      1.0000 0.28710  0.47170  0.62160  Biso   1.000  C
  C19      1.0000 0.26170  0.41230  0.59260  Biso   1.000  C
  C20      1.0000 0.54430  0.71510  0.77680  Biso   1.000  C
  C21      1.0000 0.57120  0.68470  0.78950  Biso   1.000  C
  C22      1.0000 0.60270  0.67320  0.76410  Biso   1.000  C
  C23      1.0000 0.60670  0.69160  0.72490  Biso   1.000  C
  C24      1.0000 0.57910  0.72310  0.71480  Biso   1.000  C
  C25      1.0000 0.64150  0.68220  0.69710  Biso   1.000  C
  C26      1.0000 0.39890  0.69220  0.72030  Biso   1.000  C
  C27      1.0000 0.46330  0.68140  0.90530  Biso   1.000  C
  C28      1.0000 0.51040  0.70780  0.89900  Biso   1.000  C
  C29      1.0000 0.56950  0.72890  0.93780  Biso   1.000  C
  C30      1.0000 0.57940  0.72350  0.98950  Biso   1.000  C
  C31      1.0000 0.53390  0.69600  0.99590  Biso   1.000  C
  C32      1.0000 0.47700  0.67640  0.95420  Biso   1.000  C
  C33      1.0000 0.39810  0.65660  0.86050  Biso   1.000  C
  C34      1.0000 0.14330  0.89690  0.27740  Biso   1.000  C
  C35      1.0000 0.07450  0.85980  0.49350  Biso   1.000  C
  C36      1.0000 0.06420  0.89470  0.57250  Biso   1.000  C
  C37      1.0000 0.99050  0.81020  0.49110  Biso   1.000  C
  C38      1.0000 0.17000  0.87710  0.40490  Biso   1.000  C
  C39      1.0000 0.19830  0.91200  0.46330  Biso   1.000  C
  C40      1.0000 0.16940  0.90760  0.49500  Biso   1.000  C
  C41      1.0000 0.10970  0.86690  0.46360  Biso   1.000  C
  C42      1.0000 0.08260  0.83300  0.40220  Biso   1.000  C
  C43      1.0000 0.14260  0.01990  0.74990  Biso   1.000  C
  C44      1.0000 0.08240  0.98440  0.72000  Biso   1.000  C
  C45      1.0000 0.05530  0.94100  0.65990  Biso   1.000  C
  C46      1.0000 0.09040  0.93940  0.63560  Biso   1.000  C
  C47      1.0000 0.14990  0.97940  0.66910  Biso   1.000  C
  C48      1.0000 0.89710  0.75700  0.48690  Biso   1.000  C
  C49      1.0000 0.93040  0.75880  0.45980  Biso   1.000  C
  C50      1.0000 0.90570  0.71340  0.40390  Biso   1.000  C
  C51      1.0000 0.85010  0.66550  0.37840  Biso   1.000  C
  C52      1.0000 0.81970  0.66910  0.40740  Biso   1.000  C
  C53      1.0000 0.93830  0.76750  0.22320  Biso   1.000  C
  C54      1.0000 0.89520  0.78170  0.21050  Biso   1.000  C
  C55      1.0000 0.90910  0.83860  0.23590  Biso   1.000  C
  C56      1.0000 0.96670  0.88180  0.27510  Biso   1.000  C
  C57      1.0000 0.00830  0.86430  0.28520  Biso   1.000  C
  C58      1.0000 0.98510  0.94440  0.30290  Biso   1.000  C
  C59      1.0000 0.97190  0.67860  0.27970  Biso   1.000  C
  C60      1.0000 0.77610  0.55800  0.09470  Biso   1.000  C
  C61      1.0000 0.80880  0.61140  0.10100  Biso   1.000  C
  C62      1.0000 0.79110  0.63170  0.06220  Biso   1.000  C
  C63      1.0000 0.73400  0.58990  0.01050  Biso   1.000  C
  C64      1.0000 0.70010  0.53800  0.00410  Biso   1.000  C
  C65      1.0000 0.72220  0.52280  0.04580  Biso   1.000  C
  C66      1.0000 0.79610  0.53760  0.13950  Biso   1.000  C
  C67      1.0000 0.85670  0.13410  0.75360  Biso   1.000  C
  C68      1.0000 0.92550  0.41900  0.78530  Biso   1.000  C
  C69      1.0000 0.93580  0.50830  0.83050  Biso   1.000  C
  C70      1.0000 0.00950  0.50060  0.81970  Biso   1.000  C
  C71      1.0000 0.83000  0.23490  0.70710  Biso   1.000  C
  C72      1.0000 0.80170  0.26500  0.71370  Biso   1.000  C
  C73      1.0000 0.83060  0.32560  0.73820  Biso   1.000  C
  C74      1.0000 0.89030  0.35390  0.75720  Biso   1.000  C
  C75      1.0000 0.91740  0.31960  0.75040  Biso   1.000  C
  C76      1.0000 0.85740  0.60730  0.87730  Biso   1.000  C
  C77      1.0000 0.91760  0.63760  0.90200  Biso   1.000  C
  C78      1.0000 0.94470  0.60460  0.88570  Biso   1.000  C
  C79      1.0000 0.90960  0.54520  0.84900  Biso   1.000  C
  C80      1.0000 0.85010  0.51920  0.82950  Biso   1.000  C
  C81      1.0000 0.10290  0.58980  0.85990  Biso   1.000  C
  C82      1.0000 0.06960  0.52940  0.82840  Biso   1.000  C
  C83      1.0000 0.09430  0.49820  0.80770  Biso   1.000  C
  C84      1.0000 0.14990  0.52830  0.81540  Biso   1.000  C
  C85      1.0000 0.18030  0.58770  0.84940  Biso   1.000  C
  C86      1.0000 0.06170  0.28490  0.82920  Biso   1.000  C
  C87      1.0000 0.10480  0.31530  0.88650  Biso   1.000  C
  C88      1.0000 0.09090  0.32680  0.92950  Biso   1.000  C
  C89      1.0000 0.03330  0.30840  0.91510  Biso   1.000  C
  C90      1.0000 0.99170  0.27690  0.85600  Biso   1.000  C
  C91      1.0000 0.01490  0.31780  0.95930  Biso   1.000  C
  C92      1.0000 0.02810  0.30780  0.70670  Biso   1.000  C
  C93      1.0000 0.22390  0.31860  0.78190  Biso   1.000  C
  C94      1.0000 0.19120  0.29220  0.80260  Biso   1.000  C
  C95      1.0000 0.20890  0.27110  0.84060  Biso   1.000  C
  C96      1.0000 0.26600  0.27650  0.85590  Biso   1.000  C
  C97      1.0000 0.29990  0.30400  0.83790  Biso   1.000  C
  C98      1.0000 0.27780  0.32360  0.80060  Biso   1.000  C
  C99      1.0000 0.20390  0.34340  0.74150  Biso   1.000  C
  C100     1.0000 0.38050  0.10310  0.24640  Biso   1.000  C
  C101     1.0000 0.63370  0.14020  0.21470  Biso   1.000  C
  C102     1.0000 0.67780  0.10530  0.16950  Biso   1.000  C
  C103     1.0000 0.68090  0.18980  0.18030  Biso   1.000  C
  C104     1.0000 0.52780  0.12290  0.29290  Biso   1.000  C
  C105     1.0000 0.55130  0.08800  0.28630  Biso   1.000  C
  C106     1.0000 0.58740  0.09240  0.26180  Biso   1.000  C
  C107     1.0000 0.59670  0.13310  0.24280  Biso   1.000  C
  C108     1.0000 0.56920  0.16700  0.24960  Biso   1.000  C
  C109     1.0000 0.73000  0.98010  0.12270  Biso   1.000  C
  C110     1.0000 0.73560  0.01560  0.09800  Biso   1.000  C
  C111     1.0000 0.71890  0.05900  0.11430  Biso   1.000  C
  C112     1.0000 0.69620  0.06060  0.15100  Biso   1.000  C
  C113     1.0000 0.68970  0.02060  0.17050  Biso   1.000  C
  C114     1.0000 0.72990  0.24300  0.14010  Biso   1.000  C
  C115     1.0000 0.70100  0.24120  0.17160  Biso   1.000  C
  C116     1.0000 0.69050  0.28660  0.19230  Biso   1.000  C
  C117     1.0000 0.71290  0.33450  0.18460  Biso   1.000  C
  C118     1.0000 0.73830  0.33090  0.15060  Biso   1.000  C
  C119     1.0000 0.45570  0.23250  0.17080  Biso   1.000  C
  C120     1.0000 0.42880  0.21830  0.11350  Biso   1.000  C
  C121     1.0000 0.39730  0.16140  0.07050  Biso   1.000  C
  C122     1.0000 0.39330  0.11820  0.08490  Biso   1.000  C
  C123     1.0000 0.42090  0.13570  0.14400  Biso   1.000  C
  C124     1.0000 0.35850  0.05560  0.04070  Biso   1.000  C
  C125     1.0000 0.60110  0.32140  0.29330  Biso   1.000  C
  C126     1.0000 0.53670  0.44200  0.21810  Biso   1.000  C
  C127     1.0000 0.48960  0.38860  0.19740  Biso   1.000  C
  C128     1.0000 0.43050  0.36830  0.15940  Biso   1.000  C
  C129     1.0000 0.42060  0.41010  0.14410  Biso   1.000  C
  C130     1.0000 0.46610  0.46200  0.16210  Biso   1.000  C
  C131     1.0000 0.52300  0.47720  0.19940  Biso   1.000  C
  C132     1.0000 0.60190  0.46240  0.25850  Biso   1.000  C
  C133     1.0000 0.75360  0.85670  0.13410  Biso   1.000  C
  C134     1.0000 0.78530  0.92550  0.41900  Biso   1.000  C
  C135     1.0000 0.83050  0.93580  0.50830  Biso   1.000  C
  C136     1.0000 0.81970  0.00950  0.50060  Biso   1.000  C
  C137     1.0000 0.70710  0.83000  0.23490  Biso   1.000  C
  C138     1.0000 0.71370  0.80170  0.26500  Biso   1.000  C
  C139     1.0000 0.73820  0.83060  0.32560  Biso   1.000  C
  C140     1.0000 0.75720  0.89030  0.35390  Biso   1.000  C
  C141     1.0000 0.75040  0.91740  0.31960  Biso   1.000  C
  C142     1.0000 0.87730  0.85740  0.60730  Biso   1.000  C
  C143     1.0000 0.90200  0.91760  0.63760  Biso   1.000  C
  C144     1.0000 0.88570  0.94470  0.60460  Biso   1.000  C
  C145     1.0000 0.84900  0.90960  0.54520  Biso   1.000  C
  C146     1.0000 0.82950  0.85010  0.51920  Biso   1.000  C
  C147     1.0000 0.85990  0.10290  0.58980  Biso   1.000  C
  C148     1.0000 0.82840  0.06960  0.52940  Biso   1.000  C
  C149     1.0000 0.80770  0.09430  0.49820  Biso   1.000  C
  C150     1.0000 0.81540  0.14990  0.52830  Biso   1.000  C
  C151     1.0000 0.84940  0.18030  0.58770  Biso   1.000  C
  C152     1.0000 0.82920  0.06170  0.28490  Biso   1.000  C
  C153     1.0000 0.88650  0.10480  0.31530  Biso   1.000  C
  C154     1.0000 0.92950  0.09090  0.32680  Biso   1.000  C
  C155     1.0000 0.91510  0.03330  0.30840  Biso   1.000  C
  C156     1.0000 0.85600  0.99170  0.27690  Biso   1.000  C
  C157     1.0000 0.95930  0.01490  0.31780  Biso   1.000  C
  C158     1.0000 0.70670  0.02810  0.30780  Biso   1.000  C
  C159     1.0000 0.78190  0.22390  0.31860  Biso   1.000  C
  C160     1.0000 0.80260  0.19120  0.29220  Biso   1.000  C
  C161     1.0000 0.84060  0.20890  0.27110  Biso   1.000  C
  C162     1.0000 0.85590  0.26600  0.27650  Biso   1.000  C
  C163     1.0000 0.83790  0.29990  0.30400  Biso   1.000  C
  C164     1.0000 0.80060  0.27780  0.32360  Biso   1.000  C
  C165     1.0000 0.74150  0.20390  0.34340  Biso   1.000  C
  C166     1.0000 0.24640  0.38050  0.10310  Biso   1.000  C
  C167     1.0000 0.21470  0.63370  0.14020  Biso   1.000  C
  C168     1.0000 0.16950  0.67780  0.10530  Biso   1.000  C
  C169     1.0000 0.18030  0.68090  0.18980  Biso   1.000  C
  C170     1.0000 0.29290  0.52780  0.12290  Biso   1.000  C
  C171     1.0000 0.28630  0.55130  0.08800  Biso   1.000  C
  C172     1.0000 0.26180  0.58740  0.09240  Biso   1.000  C
  C173     1.0000 0.24280  0.59670  0.13310  Biso   1.000  C
  C174     1.0000 0.24960  0.56920  0.16700  Biso   1.000  C
  C175     1.0000 0.12270  0.73000  0.98010  Biso   1.000  C
  C176     1.0000 0.09800  0.73560  0.01560  Biso   1.000  C
  C177     1.0000 0.11430  0.71890  0.05900  Biso   1.000  C
  C178     1.0000 0.15100  0.69620  0.06060  Biso   1.000  C
  C179     1.0000 0.17050  0.68970  0.02060  Biso   1.000  C
  C180     1.0000 0.14010  0.72990  0.24300  Biso   1.000  C
  C181     1.0000 0.17160  0.70100  0.24120  Biso   1.000  C
  C182     1.0000 0.19230  0.69050  0.28660  Biso   1.000  C
  C183     1.0000 0.18460  0.71290  0.33450  Biso   1.000  C
  C184     1.0000 0.15060  0.73830  0.33090  Biso   1.000  C
  C185     1.0000 0.17080  0.45570  0.23250  Biso   1.000  C
  C186     1.0000 0.11350  0.42880  0.21830  Biso   1.000  C
  C187     1.0000 0.07050  0.39730  0.16140  Biso   1.000  C
  C188     1.0000 0.08490  0.39330  0.11820  Biso   1.000  C
  C189     1.0000 0.14400  0.42090  0.13570  Biso   1.000  C
  C190     1.0000 0.04070  0.35850  0.05560  Biso   1.000  C
  C191     1.0000 0.29330  0.60110  0.32140  Biso   1.000  C
  C192     1.0000 0.21810  0.53670  0.44200  Biso   1.000  C
  C193     1.0000 0.19740  0.48960  0.38860  Biso   1.000  C
  C194     1.0000 0.15940  0.43050  0.36830  Biso   1.000  C
  C195     1.0000 0.14410  0.42060  0.41010  Biso   1.000  C
  C196     1.0000 0.16210  0.46610  0.46200  Biso   1.000  C
  C197     1.0000 0.19940  0.52300  0.47720  Biso   1.000  C
  C198     1.0000 0.25850  0.60190  0.46240  Biso   1.000  C
  C199     1.0000 0.72260  0.61950  0.86590  Biso   1.000  C
  C200     1.0000 0.50650  0.36630  0.58100  Biso   1.000  C
  C201     1.0000 0.42750  0.32220  0.49170  Biso   1.000  C
  C202     1.0000 0.50890  0.31910  0.49940  Biso   1.000  C
  C203     1.0000 0.59510  0.47220  0.76510  Biso   1.000  C
  C204     1.0000 0.53670  0.44870  0.73500  Biso   1.000  C
  C205     1.0000 0.50500  0.41260  0.67440  Biso   1.000  C
  C206     1.0000 0.53640  0.40330  0.64610  Biso   1.000  C
  C207     1.0000 0.59780  0.43080  0.68040  Biso   1.000  C
  C208     1.0000 0.25010  0.27000  0.39270  Biso   1.000  C
  C209     1.0000 0.28000  0.26440  0.36240  Biso   1.000  C
  C210     1.0000 0.34010  0.28110  0.39540  Biso   1.000  C
  C211     1.0000 0.36440  0.30380  0.45480  Biso   1.000  C
  C212     1.0000 0.33090  0.31030  0.48080  Biso   1.000  C
  C213     1.0000 0.51310  0.27010  0.41020  Biso   1.000  C
  C214     1.0000 0.54020  0.29900  0.47060  Biso   1.000  C
  C215     1.0000 0.59610  0.30950  0.50180  Biso   1.000  C
  C216     1.0000 0.62160  0.28710  0.47170  Biso   1.000  C
  C217     1.0000 0.59260  0.26170  0.41230  Biso   1.000  C
  C218     1.0000 0.77680  0.54430  0.71510  Biso   1.000  C
  C219     1.0000 0.78950  0.57120  0.68470  Biso   1.000  C
  C220     1.0000 0.76410  0.60270  0.67320  Biso   1.000  C
  C221     1.0000 0.72490  0.60670  0.69160  Biso   1.000  C
  C222     1.0000 0.71480  0.57910  0.72310  Biso   1.000  C
  C223     1.0000 0.69710  0.64150  0.68220  Biso   1.000  C
  C224     1.0000 0.72030  0.39890  0.69220  Biso   1.000  C
  C225     1.0000 0.90530  0.46330  0.68140  Biso   1.000  C
  C226     1.0000 0.89900  0.51040  0.70780  Biso   1.000  C
  C227     1.0000 0.93780  0.56950  0.72890  Biso   1.000  C
  C228     1.0000 0.98950  0.57940  0.72350  Biso   1.000  C
  C229     1.0000 0.99590  0.53390  0.69600  Biso   1.000  C
  C230     1.0000 0.95420  0.47700  0.67640  Biso   1.000  C
  C231     1.0000 0.86050  0.39810  0.65660  Biso   1.000  C
  C232     1.0000 0.27740  0.14330  0.89690  Biso   1.000  C
  C233     1.0000 0.49350  0.07450  0.85980  Biso   1.000  C
  C234     1.0000 0.57250  0.06420  0.89470  Biso   1.000  C
  C235     1.0000 0.49110  0.99050  0.81020  Biso   1.000  C
  C236     1.0000 0.40490  0.17000  0.87710  Biso   1.000  C
  C237     1.0000 0.46330  0.19830  0.91200  Biso   1.000  C
  C238     1.0000 0.49500  0.16940  0.90760  Biso   1.000  C
  C239     1.0000 0.46360  0.10970  0.86690  Biso   1.000  C
  C240     1.0000 0.40220  0.08260  0.83300  Biso   1.000  C
  C241     1.0000 0.74990  0.14260  0.01990  Biso   1.000  C
  C242     1.0000 0.72000  0.08240  0.98440  Biso   1.000  C
  C243     1.0000 0.65990  0.05530  0.94100  Biso   1.000  C
  C244     1.0000 0.63560  0.09040  0.93940  Biso   1.000  C
  C245     1.0000 0.66910  0.14990  0.97940  Biso   1.000  C
  C246     1.0000 0.48690  0.89710  0.75700  Biso   1.000  C
  C247     1.0000 0.45980  0.93040  0.75880  Biso   1.000  C
  C248     1.0000 0.40390  0.90570  0.71340  Biso   1.000  C
  C249     1.0000 0.37840  0.85010  0.66550  Biso   1.000  C
  C250     1.0000 0.40740  0.81970  0.66910  Biso   1.000  C
  C251     1.0000 0.22320  0.93830  0.76750  Biso   1.000  C
  C252     1.0000 0.21050  0.89520  0.78170  Biso   1.000  C
  C253     1.0000 0.23590  0.90910  0.83860  Biso   1.000  C
  C254     1.0000 0.27510  0.96670  0.88180  Biso   1.000  C
  C255     1.0000 0.28520  0.00830  0.86430  Biso   1.000  C
  C256     1.0000 0.30290  0.98510  0.94440  Biso   1.000  C
  C257     1.0000 0.27970  0.97190  0.67860  Biso   1.000  C
  C258     1.0000 0.09470  0.77610  0.55800  Biso   1.000  C
  C259     1.0000 0.10100  0.80880  0.61140  Biso   1.000  C
  C260     1.0000 0.06220  0.79110  0.63170  Biso   1.000  C
  C261     1.0000 0.01050  0.73400  0.58990  Biso   1.000  C
  C262     1.0000 0.00410  0.70010  0.53800  Biso   1.000  C
  C263     1.0000 0.04580  0.72220  0.52280  Biso   1.000  C
  C264     1.0000 0.13950  0.79610  0.53760  Biso   1.000  C
  C265     1.0000 0.89690  0.27740  0.14330  Biso   1.000  C
  C266     1.0000 0.85980  0.49350  0.07450  Biso   1.000  C
  C267     1.0000 0.89470  0.57250  0.06420  Biso   1.000  C
  C268     1.0000 0.81020  0.49110  0.99050  Biso   1.000  C
  C269     1.0000 0.87710  0.40490  0.17000  Biso   1.000  C
  C270     1.0000 0.91200  0.46330  0.19830  Biso   1.000  C
  C271     1.0000 0.90760  0.49500  0.16940  Biso   1.000  C
  C272     1.0000 0.86690  0.46360  0.10970  Biso   1.000  C
  C273     1.0000 0.83300  0.40220  0.08260  Biso   1.000  C
  C274     1.0000 0.01990  0.74990  0.14260  Biso   1.000  C
  C275     1.0000 0.98440  0.72000  0.08240  Biso   1.000  C
  C276     1.0000 0.94100  0.65990  0.05530  Biso   1.000  C
  C277     1.0000 0.93940  0.63560  0.09040  Biso   1.000  C
  C278     1.0000 0.97940  0.66910  0.14990  Biso   1.000  C
  C279     1.0000 0.75700  0.48690  0.89710  Biso   1.000  C
  C280     1.0000 0.75880  0.45980  0.93040  Biso   1.000  C
  C281     1.0000 0.71340  0.40390  0.90570  Biso   1.000  C
  C282     1.0000 0.66550  0.37840  0.85010  Biso   1.000  C
  C283     1.0000 0.66910  0.40740  0.81970  Biso   1.000  C
  C284     1.0000 0.76750  0.22320  0.93830  Biso   1.000  C
  C285     1.0000 0.78170  0.21050  0.89520  Biso   1.000  C
  C286     1.0000 0.83860  0.23590  0.90910  Biso   1.000  C
  C287     1.0000 0.88180  0.27510  0.96670  Biso   1.000  C
  C288     1.0000 0.86430  0.28520  0.00830  Biso   1.000  C
  C289     1.0000 0.94440  0.30290  0.98510  Biso   1.000  C
  C290     1.0000 0.67860  0.27970  0.97190  Biso   1.000  C
  C291     1.0000 0.55800  0.09470  0.77610  Biso   1.000  C
  C292     1.0000 0.61140  0.10100  0.80880  Biso   1.000  C
  C293     1.0000 0.63170  0.06220  0.79110  Biso   1.000  C
  C294     1.0000 0.58990  0.01050  0.73400  Biso   1.000  C
  C295     1.0000 0.53800  0.00410  0.70010  Biso   1.000  C
  C296     1.0000 0.52280  0.04580  0.72220  Biso   1.000  C
  C297     1.0000 0.53760  0.13950  0.79610  Biso   1.000  C
  C298     1.0000 0.86590  0.72260  0.61950  Biso   1.000  C
  C299     1.0000 0.58100  0.50650  0.36630  Biso   1.000  C
  C300     1.0000 0.49170  0.42750  0.32220  Biso   1.000  C
  C301     1.0000 0.49940  0.50890  0.31910  Biso   1.000  C
  C302     1.0000 0.76510  0.59510  0.47220  Biso   1.000  C
  C303     1.0000 0.73500  0.53670  0.44870  Biso   1.000  C
  C304     1.0000 0.67440  0.50500  0.41260  Biso   1.000  C
  C305     1.0000 0.64610  0.53640  0.40330  Biso   1.000  C
  C306     1.0000 0.68040  0.59780  0.43080  Biso   1.000  C
  C307     1.0000 0.39270  0.25010  0.27000  Biso   1.000  C
  C308     1.0000 0.36240  0.28000  0.26440  Biso   1.000  C
  C309     1.0000 0.39540  0.34010  0.28110  Biso   1.000  C
  C310     1.0000 0.45480  0.36440  0.30380  Biso   1.000  C
  C311     1.0000 0.48080  0.33090  0.31030  Biso   1.000  C
  C312     1.0000 0.41020  0.51310  0.27010  Biso   1.000  C
  C313     1.0000 0.47060  0.54020  0.29900  Biso   1.000  C
  C314     1.0000 0.50180  0.59610  0.30950  Biso   1.000  C
  C315     1.0000 0.47170  0.62160  0.28710  Biso   1.000  C
  C316     1.0000 0.41230  0.59260  0.26170  Biso   1.000  C
  C317     1.0000 0.71510  0.77680  0.54430  Biso   1.000  C
  C318     1.0000 0.68470  0.78950  0.57120  Biso   1.000  C
  C319     1.0000 0.67320  0.76410  0.60270  Biso   1.000  C
  C320     1.0000 0.69160  0.72490  0.60670  Biso   1.000  C
  C321     1.0000 0.72310  0.71480  0.57910  Biso   1.000  C
  C322     1.0000 0.68220  0.69710  0.64150  Biso   1.000  C
  C323     1.0000 0.69220  0.72030  0.39890  Biso   1.000  C
  C324     1.0000 0.68140  0.90530  0.46330  Biso   1.000  C
  C325     1.0000 0.70780  0.89900  0.51040  Biso   1.000  C
  C326     1.0000 0.72890  0.93780  0.56950  Biso   1.000  C
  C327     1.0000 0.72350  0.98950  0.57940  Biso   1.000  C
  C328     1.0000 0.69600  0.99590  0.53390  Biso   1.000  C
  C329     1.0000 0.67640  0.95420  0.47700  Biso   1.000  C
  C330     1.0000 0.65660  0.86050  0.39810  Biso   1.000  C
  C331     1.0000 0.10310  0.24640  0.38050  Biso   1.000  C
  C332     1.0000 0.14020  0.21470  0.63370  Biso   1.000  C
  C333     1.0000 0.10530  0.16950  0.67780  Biso   1.000  C
  C334     1.0000 0.18980  0.18030  0.68090  Biso   1.000  C
  C335     1.0000 0.12290  0.29290  0.52780  Biso   1.000  C
  C336     1.0000 0.08800  0.28630  0.55130  Biso   1.000  C
  C337     1.0000 0.09240  0.26180  0.58740  Biso   1.000  C
  C338     1.0000 0.13310  0.24280  0.59670  Biso   1.000  C
  C339     1.0000 0.16700  0.24960  0.56920  Biso   1.000  C
  C340     1.0000 0.98010  0.12270  0.73000  Biso   1.000  C
  C341     1.0000 0.01560  0.09800  0.73560  Biso   1.000  C
  C342     1.0000 0.05900  0.11430  0.71890  Biso   1.000  C
  C343     1.0000 0.06060  0.15100  0.69620  Biso   1.000  C
  C344     1.0000 0.02060  0.17050  0.68970  Biso   1.000  C
  C345     1.0000 0.24300  0.14010  0.72990  Biso   1.000  C
  C346     1.0000 0.24120  0.17160  0.70100  Biso   1.000  C
  C347     1.0000 0.28660  0.19230  0.69050  Biso   1.000  C
  C348     1.0000 0.33450  0.18460  0.71290  Biso   1.000  C
  C349     1.0000 0.33090  0.15060  0.73830  Biso   1.000  C
  C350     1.0000 0.23250  0.17080  0.45570  Biso   1.000  C
  C351     1.0000 0.21830  0.11350  0.42880  Biso   1.000  C
  C352     1.0000 0.16140  0.07050  0.39730  Biso   1.000  C
  C353     1.0000 0.11820  0.08490  0.39330  Biso   1.000  C
  C354     1.0000 0.13570  0.14400  0.42090  Biso   1.000  C
  C355     1.0000 0.05560  0.04070  0.35850  Biso   1.000  C
  C356     1.0000 0.32140  0.29330  0.60110  Biso   1.000  C
  C357     1.0000 0.44200  0.21810  0.53670  Biso   1.000  C
  C358     1.0000 0.38860  0.19740  0.48960  Biso   1.000  C
  C359     1.0000 0.36830  0.15940  0.43050  Biso   1.000  C
  C360     1.0000 0.41010  0.14410  0.42060  Biso   1.000  C
  C361     1.0000 0.46200  0.16210  0.46610  Biso   1.000  C
  C362     1.0000 0.47720  0.19940  0.52300  Biso   1.000  C
  C363     1.0000 0.46240  0.25850  0.60190  Biso   1.000  C
  C364     1.0000 0.13410  0.75360  0.85670  Biso   1.000  C
  C365     1.0000 0.41900  0.78530  0.92550  Biso   1.000  C
  C366     1.0000 0.50830  0.83050  0.93580  Biso   1.000  C
  C367     1.0000 0.50060  0.81970  0.00950  Biso   1.000  C
  C368     1.0000 0.23490  0.70710  0.83000  Biso   1.000  C
  C369     1.0000 0.26500  0.71370  0.80170  Biso   1.000  C
  C370     1.0000 0.32560  0.73820  0.83060  Biso   1.000  C
  C371     1.0000 0.35390  0.75720  0.89030  Biso   1.000  C
  C372     1.0000 0.31960  0.75040  0.91740  Biso   1.000  C
  C373     1.0000 0.60730  0.87730  0.85740  Biso   1.000  C
  C374     1.0000 0.63760  0.90200  0.91760  Biso   1.000  C
  C375     1.0000 0.60460  0.88570  0.94470  Biso   1.000  C
  C376     1.0000 0.54520  0.84900  0.90960  Biso   1.000  C
  C377     1.0000 0.51920  0.82950  0.85010  Biso   1.000  C
  C378     1.0000 0.58980  0.85990  0.10290  Biso   1.000  C
  C379     1.0000 0.52940  0.82840  0.06960  Biso   1.000  C
  C380     1.0000 0.49820  0.80770  0.09430  Biso   1.000  C
  C381     1.0000 0.52830  0.81540  0.14990  Biso   1.000  C
  C382     1.0000 0.58770  0.84940  0.18030  Biso   1.000  C
  C383     1.0000 0.28490  0.82920  0.06170  Biso   1.000  C
  C384     1.0000 0.31530  0.88650  0.10480  Biso   1.000  C
  C385     1.0000 0.32680  0.92950  0.09090  Biso   1.000  C
  C386     1.0000 0.30840  0.91510  0.03330  Biso   1.000  C
  C387     1.0000 0.27690  0.85600  0.99170  Biso   1.000  C
  C388     1.0000 0.31780  0.95930  0.01490  Biso   1.000  C
  C389     1.0000 0.30780  0.70670  0.02810  Biso   1.000  C
  C390     1.0000 0.31860  0.78190  0.22390  Biso   1.000  C
  C391     1.0000 0.29220  0.80260  0.19120  Biso   1.000  C
  C392     1.0000 0.27110  0.84060  0.20890  Biso   1.000  C
  C393     1.0000 0.27650  0.85590  0.26600  Biso   1.000  C
  C394     1.0000 0.30400  0.83790  0.29990  Biso   1.000  C
  C395     1.0000 0.32360  0.80060  0.27780  Biso   1.000  C
  C396     1.0000 0.34340  0.74150  0.20390  Biso   1.000  C
  S1       1.0000 0.67400  0.89480  0.71360  Biso   1.000  S
  S2       1.0000 0.36648  0.64126  0.73598  Biso   1.000  S
  S3       1.0000 0.18120  0.96040  0.28640  Biso   1.000  S
  S4       1.0000 0.90528  0.63050  0.26402  Biso   1.000  S
  S5       1.0000 0.81880  0.10520  0.77920  Biso   1.000  S
  S6       1.0000 0.09472  0.35874  0.72522  Biso   1.000  S
  S7       1.0000 0.32600  0.03960  0.22080  Biso   1.000  S
  S8       1.0000 0.63352  0.36950  0.27478  Biso   1.000  S
  S9       1.0000 0.77920  0.81880  0.10520  Biso   1.000  S
  S10      1.0000 0.72522  0.09472  0.35874  Biso   1.000  S
  S11      1.0000 0.22080  0.32600  0.03960  Biso   1.000  S
  S12      1.0000 0.27478  0.63352  0.36950  Biso   1.000  S
  S13      1.0000 0.71360  0.67400  0.89480  Biso   1.000  S
  S14      1.0000 0.73598  0.36648  0.64126  Biso   1.000  S
  S15      1.0000 0.28640  0.18120  0.96040  Biso   1.000  S
  S16      1.0000 0.26402  0.90528  0.63050  Biso   1.000  S
  S17      1.0000 0.96040  0.28640  0.18120  Biso   1.000  S
  S18      1.0000 0.63050  0.26402  0.90528  Biso   1.000  S
  S19      1.0000 0.89480  0.71360  0.67400  Biso   1.000  S
  S20      1.0000 0.64126  0.73598  0.36648  Biso   1.000  S
  S21      1.0000 0.03960  0.22080  0.32600  Biso   1.000  S
  S22      1.0000 0.36950  0.27478  0.63352  Biso   1.000  S
  S23      1.0000 0.10520  0.77920  0.81880  Biso   1.000  S
  S24      1.0000 0.35874  0.72522  0.09472  Biso   1.000  S
  N1       1.0000 0.57960  0.84720  0.72840  Biso   1.000  N
  N2       1.0000 0.46580  0.73855  0.62735  Biso   1.000  N
  N3       1.0000 0.34990  0.55830  0.53820  Biso   1.000  N
  N4       1.0000 0.35370  0.55140  0.45170  Biso   1.000  N
  N5       1.0000 0.30650  0.46530  0.45500  Biso   1.000  N
  N6       1.0000 0.29260  0.44990  0.27370  Biso   1.000  N
  N7       1.0000 0.25320  0.38020  0.53900  Biso   1.000  N
  N8       1.0000 0.54730  0.73620  0.73970  Biso   1.000  N
  N9       1.0000 0.64760  0.70630  0.66410  Biso   1.000  N
  N10      1.0000 0.43190  0.72920  0.71850  Biso   1.000  N
  N11      1.0000 0.11880  0.85120  0.27160  Biso   1.000  N
  N12      1.0000 0.11120  0.83845  0.37265  Biso   1.000  N
  N13      1.0000 0.02010  0.81170  0.46180  Biso   1.000  N
  N14      1.0000 0.09970  0.90200  0.54830  Biso   1.000  N
  N15      1.0000 0.01030  0.85150  0.54500  Biso   1.000  N
  N16      1.0000 0.17620  0.01890  0.72630  Biso   1.000  N
  N17      1.0000 0.84120  0.71420  0.46100  Biso   1.000  N
  N18      1.0000 0.99650  0.80760  0.26030  Biso   1.000  N
  N19      1.0000 0.04220  0.98350  0.33590  Biso   1.000  N
  N20      1.0000 0.01070  0.71340  0.28150  Biso   1.000  N
  N21      1.0000 0.88120  0.15280  0.73240  Biso   1.000  N
  N22      1.0000 0.88880  0.26145  0.72725  Biso   1.000  N
  N23      1.0000 0.97990  0.44170  0.79160  Biso   1.000  N
  N24      1.0000 0.90030  0.44860  0.80230  Biso   1.000  N
  N25      1.0000 0.98970  0.53470  0.84120  Biso   1.000  N
  N26      1.0000 0.82380  0.55010  0.84270  Biso   1.000  N
  N27      1.0000 0.15880  0.61980  0.87300  Biso   1.000  N
  N28      1.0000 0.00350  0.26380  0.81110  Biso   1.000  N
  N29      1.0000 0.95780  0.29370  0.94130  Biso   1.000  N
  N30      1.0000 0.98930  0.27080  0.70270  Biso   1.000  N
  N31      1.0000 0.42040  0.14880  0.26760  Biso   1.000  N
  N32      1.0000 0.53420  0.16155  0.27275  Biso   1.000  N
  N33      1.0000 0.65010  0.18830  0.20840  Biso   1.000  N
  N34      1.0000 0.64630  0.09800  0.19770  Biso   1.000  N
  N35      1.0000 0.69350  0.14850  0.15880  Biso   1.000  N
  N36      1.0000 0.70740  0.98110  0.15730  Biso   1.000  N
  N37      1.0000 0.74680  0.28580  0.12700  Biso   1.000  N
  N38      1.0000 0.45270  0.19240  0.18890  Biso   1.000  N
  N39      1.0000 0.35240  0.01650  0.05870  Biso   1.000  N
  N40      1.0000 0.56810  0.28660  0.29730  Biso   1.000  N
  N41      1.0000 0.73240  0.88120  0.15280  Biso   1.000  N
  N42      1.0000 0.72725  0.88880  0.26145  Biso   1.000  N
  N43      1.0000 0.79160  0.97990  0.44170  Biso   1.000  N
  N44      1.0000 0.80230  0.90030  0.44860  Biso   1.000  N
  N45      1.0000 0.84120  0.98970  0.53470  Biso   1.000  N
  N46      1.0000 0.84270  0.82380  0.55010  Biso   1.000  N
  N47      1.0000 0.87300  0.15880  0.61980  Biso   1.000  N
  N48      1.0000 0.81110  0.00350  0.26380  Biso   1.000  N
  N49      1.0000 0.94130  0.95780  0.29370  Biso   1.000  N
  N50      1.0000 0.70270  0.98930  0.27080  Biso   1.000  N
  N51      1.0000 0.26760  0.42040  0.14880  Biso   1.000  N
  N52      1.0000 0.27275  0.53420  0.16155  Biso   1.000  N
  N53      1.0000 0.20840  0.65010  0.18830  Biso   1.000  N
  N54      1.0000 0.19770  0.64630  0.09800  Biso   1.000  N
  N55      1.0000 0.15880  0.69350  0.14850  Biso   1.000  N
  N56      1.0000 0.15730  0.70740  0.98110  Biso   1.000  N
  N57      1.0000 0.12700  0.74680  0.28580  Biso   1.000  N
  N58      1.0000 0.18890  0.45270  0.19240  Biso   1.000  N
  N59      1.0000 0.05870  0.35240  0.01650  Biso   1.000  N
  N60      1.0000 0.29730  0.56810  0.28660  Biso   1.000  N
  N61      1.0000 0.72840  0.57960  0.84720  Biso   1.000  N
  N62      1.0000 0.62735  0.46580  0.73855  Biso   1.000  N
  N63      1.0000 0.53820  0.34990  0.55830  Biso   1.000  N
  N64      1.0000 0.45170  0.35370  0.55140  Biso   1.000  N
  N65      1.0000 0.45500  0.30650  0.46530  Biso   1.000  N
  N66      1.0000 0.27370  0.29260  0.44990  Biso   1.000  N
  N67      1.0000 0.53900  0.25320  0.38020  Biso   1.000  N
  N68      1.0000 0.73970  0.54730  0.73620  Biso   1.000  N
  N69      1.0000 0.66410  0.64760  0.70630  Biso   1.000  N
  N70      1.0000 0.71850  0.43190  0.72920  Biso   1.000  N
  N71      1.0000 0.27160  0.11880  0.85120  Biso   1.000  N
  N72      1.0000 0.37265  0.11120  0.83845  Biso   1.000  N
  N73      1.0000 0.46180  0.02010  0.81170  Biso   1.000  N
  N74      1.0000 0.54830  0.09970  0.90200  Biso   1.000  N
  N75      1.0000 0.54500  0.01030  0.85150  Biso   1.000  N
  N76      1.0000 0.72630  0.17620  0.01890  Biso   1.000  N
  N77      1.0000 0.46100  0.84120  0.71420  Biso   1.000  N
  N78      1.0000 0.26030  0.99650  0.80760  Biso   1.000  N
  N79      1.0000 0.33590  0.04220  0.98350  Biso   1.000  N
  N80      1.0000 0.28150  0.01070  0.71340  Biso   1.000  N
  N81      1.0000 0.85120  0.27160  0.11880  Biso   1.000  N
  N82      1.0000 0.83845  0.37265  0.11120  Biso   1.000  N
  N83      1.0000 0.81170  0.46180  0.02010  Biso   1.000  N
  N84      1.0000 0.90200  0.54830  0.09970  Biso   1.000  N
  N85      1.0000 0.85150  0.54500  0.01030  Biso   1.000  N
  N86      1.0000 0.01890  0.72630  0.17620  Biso   1.000  N
  N87      1.0000 0.71420  0.46100  0.84120  Biso   1.000  N
  N88      1.0000 0.80760  0.26030  0.99650  Biso   1.000  N
  N89      1.0000 0.98350  0.33590  0.04220  Biso   1.000  N
  N90      1.0000 0.71340  0.28150  0.01070  Biso   1.000  N
  N91      1.0000 0.84720  0.72840  0.57960  Biso   1.000  N
  N92      1.0000 0.73855  0.62735  0.46580  Biso   1.000  N
  N93      1.0000 0.55830  0.53820  0.34990  Biso   1.000  N
  N94      1.0000 0.55140  0.45170  0.35370  Biso   1.000  N
  N95      1.0000 0.46530  0.45500  0.30650  Biso   1.000  N
  N96      1.0000 0.44990  0.27370  0.29260  Biso   1.000  N
  N97      1.0000 0.38020  0.53900  0.25320  Biso   1.000  N
  N98      1.0000 0.73620  0.73970  0.54730  Biso   1.000  N
  N99      1.0000 0.70630  0.66410  0.64760  Biso   1.000  N
  N100     1.0000 0.72920  0.71850  0.43190  Biso   1.000  N
  N101     1.0000 0.14880  0.26760  0.42040  Biso   1.000  N
  N102     1.0000 0.16155  0.27275  0.53420  Biso   1.000  N
  N103     1.0000 0.18830  0.20840  0.65010  Biso   1.000  N
  N104     1.0000 0.09800  0.19770  0.64630  Biso   1.000  N
  N105     1.0000 0.14850  0.15880  0.69350  Biso   1.000  N
  N106     1.0000 0.98110  0.15730  0.70740  Biso   1.000  N
  N107     1.0000 0.28580  0.12700  0.74680  Biso   1.000  N
  N108     1.0000 0.19240  0.18890  0.45270  Biso   1.000  N
  N109     1.0000 0.01650  0.05870  0.35240  Biso   1.000  N
  N110     1.0000 0.28660  0.29730  0.56810  Biso   1.000  N
  N111     1.0000 0.15280  0.73240  0.88120  Biso   1.000  N
  N112     1.0000 0.26145  0.72725  0.88880  Biso   1.000  N
  N113     1.0000 0.44170  0.79160  0.97990  Biso   1.000  N
  N114     1.0000 0.44860  0.80230  0.90030  Biso   1.000  N
  N115     1.0000 0.53470  0.84120  0.98970  Biso   1.000  N
  N116     1.0000 0.55010  0.84270  0.82380  Biso   1.000  N
  N117     1.0000 0.61980  0.87300  0.15880  Biso   1.000  N
  N118     1.0000 0.26380  0.81110  0.00350  Biso   1.000  N
  N119     1.0000 0.29370  0.94130  0.95780  Biso   1.000  N
  N120     1.0000 0.27080  0.70270  0.98930  Biso   1.000  N
  O1       1.0000 0.38500  0.62750  0.80070  Biso   1.000  O
  O2       1.0000 0.82680  0.58430  0.19930  Biso   1.000  O
  O3       1.0000 0.17320  0.37250  0.75750  Biso   1.000  O
  O4       1.0000 0.61500  0.41570  0.24250  Biso   1.000  O
  O5       1.0000 0.75750  0.17320  0.37250  Biso   1.000  O
  O6       1.0000 0.24250  0.61500  0.41570  Biso   1.000  O
  O7       1.0000 0.80070  0.38500  0.62750  Biso   1.000  O
  O8       1.0000 0.19930  0.82680  0.58430  Biso   1.000  O
  O9       1.0000 0.58430  0.19930  0.82680  Biso   1.000  O
  O10      1.0000 0.62750  0.80070  0.38500  Biso   1.000  O
  O11      1.0000 0.41570  0.24250  0.61500  Biso   1.000  O
  O12      1.0000 0.37250  0.75750  0.17320  Biso   1.000  O
