data_image0
_cell_length_a       12.58
_cell_length_b       26.713
_cell_length_c       33.455
_cell_angle_alpha    90
_cell_angle_beta     90
_cell_angle_gamma    90

_symmetry_space_group_name_H-M    P 1
_symmetry_int_tables_number       1

loop_
  _symmetry_equiv_pos_as_xyz
  'x, y, z'

loop_
  _atom_site_label
  _atom_site_occupancy
  _atom_site_fract_x
  _atom_site_fract_y
  _atom_site_fract_z
  _atom_site_thermal_displace_type
  _atom_site_B_iso_or_equiv
  _atom_site_type_symbol
  Co1      1.0000 0.51462  0.93124  0.38532  Biso   1.000  Co
  Co2      1.0000 0.98538  0.43124  0.61468  Biso   1.000  Co
  Co3      1.0000 0.01462  0.43124  0.11468  Biso   1.000  Co
  Co4      1.0000 0.48538  0.93124  0.88532  Biso   1.000  Co
  Ag1      1.0000 0.74111  0.28008  0.36232  Biso   1.000  Ag
  Ag2      1.0000 0.75889  0.78008  0.63768  Biso   1.000  Ag
  Ag3      1.0000 0.24111  0.78008  0.13768  Biso   1.000  Ag
  Ag4      1.0000 0.25889  0.28008  0.86232  Biso   1.000  Ag
  H1       1.0000 0.28380  0.95830  0.35630  Biso   1.000  H
  H2       1.0000 0.22250  0.04350  0.33680  Biso   1.000  H
  H3       1.0000 0.37860  0.10150  0.34420  Biso   1.000  H
  H4       1.0000 0.77420  0.07380  0.40120  Biso   1.000  H
  H5       1.0000 0.87050  0.99830  0.42660  Biso   1.000  H
  H6       1.0000 0.74610  0.92510  0.41960  Biso   1.000  H
  H7       1.0000 0.68900  0.09630  0.32010  Biso   1.000  H
  H8       1.0000 0.73810  0.17960  0.31320  Biso   1.000  H
  H9       1.0000 0.55310  0.21980  0.40100  Biso   1.000  H
  H10      1.0000 0.49530  0.13840  0.41020  Biso   1.000  H
  H11      1.0000 0.69450  0.96980  0.32860  Biso   1.000  H
  H12      1.0000 0.70610  0.95050  0.25470  Biso   1.000  H
  H13      1.0000 0.55160  0.89690  0.23810  Biso   1.000  H
  H14      1.0000 0.24170  0.81290  0.32850  Biso   1.000  H
  H15      1.0000 0.19340  0.82210  0.40050  Biso   1.000  H
  H16      1.0000 0.32880  0.88000  0.43100  Biso   1.000  H
  H17      1.0000 0.50510  0.80280  0.25580  Biso   1.000  H
  H18      1.0000 0.43870  0.76810  0.19780  Biso   1.000  H
  H19      1.0000 0.17380  0.84480  0.20980  Biso   1.000  H
  H20      1.0000 0.23350  0.88080  0.26840  Biso   1.000  H
  H21      1.0000 0.64760  0.84690  0.34400  Biso   1.000  H
  H22      1.0000 0.75110  0.78120  0.38030  Biso   1.000  H
  H23      1.0000 0.72650  0.79620  0.45370  Biso   1.000  H
  H24      1.0000 0.46240  0.92040  0.53470  Biso   1.000  H
  H25      1.0000 0.33530  0.98720  0.51130  Biso   1.000  H
  H26      1.0000 0.36120  0.99600  0.43720  Biso   1.000  H
  H27      1.0000 0.55500  0.78310  0.50380  Biso   1.000  H
  H28      1.0000 0.62250  0.75160  0.56230  Biso   1.000  H
  H29      1.0000 0.76500  0.87890  0.58680  Biso   1.000  H
  H30      1.0000 0.69750  0.91540  0.52920  Biso   1.000  H
  H31      1.0000 0.21620  0.45830  0.64370  Biso   1.000  H
  H32      1.0000 0.27750  0.54350  0.66320  Biso   1.000  H
  H33      1.0000 0.12140  0.60150  0.65580  Biso   1.000  H
  H34      1.0000 0.72580  0.57380  0.59880  Biso   1.000  H
  H35      1.0000 0.62950  0.49830  0.57340  Biso   1.000  H
  H36      1.0000 0.75390  0.42510  0.58040  Biso   1.000  H
  H37      1.0000 0.81100  0.59630  0.67990  Biso   1.000  H
  H38      1.0000 0.76190  0.67960  0.68680  Biso   1.000  H
  H39      1.0000 0.94690  0.71980  0.59900  Biso   1.000  H
  H40      1.0000 0.00470  0.63840  0.58980  Biso   1.000  H
  H41      1.0000 0.80550  0.46980  0.67140  Biso   1.000  H
  H42      1.0000 0.79390  0.45050  0.74530  Biso   1.000  H
  H43      1.0000 0.94840  0.39690  0.76190  Biso   1.000  H
  H44      1.0000 0.25830  0.31290  0.67150  Biso   1.000  H
  H45      1.0000 0.30660  0.32210  0.59950  Biso   1.000  H
  H46      1.0000 0.17120  0.38000  0.56900  Biso   1.000  H
  H47      1.0000 0.99490  0.30280  0.74420  Biso   1.000  H
  H48      1.0000 0.06130  0.26810  0.80220  Biso   1.000  H
  H49      1.0000 0.32620  0.34480  0.79020  Biso   1.000  H
  H50      1.0000 0.26650  0.38080  0.73160  Biso   1.000  H
  H51      1.0000 0.85240  0.34690  0.65600  Biso   1.000  H
  H52      1.0000 0.74890  0.28120  0.61970  Biso   1.000  H
  H53      1.0000 0.77350  0.29620  0.54630  Biso   1.000  H
  H54      1.0000 0.03760  0.42040  0.46530  Biso   1.000  H
  H55      1.0000 0.16470  0.48720  0.48870  Biso   1.000  H
  H56      1.0000 0.13880  0.49600  0.56280  Biso   1.000  H
  H57      1.0000 0.94500  0.28310  0.49620  Biso   1.000  H
  H58      1.0000 0.87750  0.25160  0.43770  Biso   1.000  H
  H59      1.0000 0.73500  0.37890  0.41320  Biso   1.000  H
  H60      1.0000 0.80250  0.41540  0.47080  Biso   1.000  H
  H61      1.0000 0.78380  0.45830  0.14370  Biso   1.000  H
  H62      1.0000 0.72250  0.54350  0.16320  Biso   1.000  H
  H63      1.0000 0.87860  0.60150  0.15580  Biso   1.000  H
  H64      1.0000 0.27420  0.57380  0.09880  Biso   1.000  H
  H65      1.0000 0.37050  0.49830  0.07340  Biso   1.000  H
  H66      1.0000 0.24610  0.42510  0.08040  Biso   1.000  H
  H67      1.0000 0.18900  0.59630  0.17990  Biso   1.000  H
  H68      1.0000 0.23810  0.67960  0.18680  Biso   1.000  H
  H69      1.0000 0.05310  0.71980  0.09900  Biso   1.000  H
  H70      1.0000 0.99530  0.63840  0.08980  Biso   1.000  H
  H71      1.0000 0.19450  0.46980  0.17140  Biso   1.000  H
  H72      1.0000 0.20610  0.45050  0.24530  Biso   1.000  H
  H73      1.0000 0.05160  0.39690  0.26190  Biso   1.000  H
  H74      1.0000 0.74170  0.31290  0.17150  Biso   1.000  H
  H75      1.0000 0.69340  0.32210  0.09950  Biso   1.000  H
  H76      1.0000 0.82880  0.38000  0.06900  Biso   1.000  H
  H77      1.0000 0.00510  0.30280  0.24420  Biso   1.000  H
  H78      1.0000 0.93870  0.26810  0.30220  Biso   1.000  H
  H79      1.0000 0.67380  0.34480  0.29020  Biso   1.000  H
  H80      1.0000 0.73350  0.38080  0.23160  Biso   1.000  H
  H81      1.0000 0.14760  0.34690  0.15600  Biso   1.000  H
  H82      1.0000 0.25110  0.28120  0.11970  Biso   1.000  H
  H83      1.0000 0.22650  0.29620  0.04630  Biso   1.000  H
  H84      1.0000 0.96240  0.42040  0.96530  Biso   1.000  H
  H85      1.0000 0.83530  0.48720  0.98870  Biso   1.000  H
  H86      1.0000 0.86120  0.49600  0.06280  Biso   1.000  H
  H87      1.0000 0.05500  0.28310  0.99620  Biso   1.000  H
  H88      1.0000 0.12250  0.25160  0.93770  Biso   1.000  H
  H89      1.0000 0.26500  0.37890  0.91320  Biso   1.000  H
  H90      1.0000 0.19750  0.41540  0.97080  Biso   1.000  H
  H91      1.0000 0.71620  0.95830  0.85630  Biso   1.000  H
  H92      1.0000 0.77750  0.04350  0.83680  Biso   1.000  H
  H93      1.0000 0.62140  0.10150  0.84420  Biso   1.000  H
  H94      1.0000 0.22580  0.07380  0.90120  Biso   1.000  H
  H95      1.0000 0.12950  0.99830  0.92660  Biso   1.000  H
  H96      1.0000 0.25390  0.92510  0.91960  Biso   1.000  H
  H97      1.0000 0.31100  0.09630  0.82010  Biso   1.000  H
  H98      1.0000 0.26190  0.17960  0.81320  Biso   1.000  H
  H99      1.0000 0.44690  0.21980  0.90100  Biso   1.000  H
  H100     1.0000 0.50470  0.13840  0.91020  Biso   1.000  H
  H101     1.0000 0.30550  0.96980  0.82860  Biso   1.000  H
  H102     1.0000 0.29390  0.95050  0.75470  Biso   1.000  H
  H103     1.0000 0.44840  0.89690  0.73810  Biso   1.000  H
  H104     1.0000 0.75830  0.81290  0.82850  Biso   1.000  H
  H105     1.0000 0.80660  0.82210  0.90050  Biso   1.000  H
  H106     1.0000 0.67120  0.88000  0.93100  Biso   1.000  H
  H107     1.0000 0.49490  0.80280  0.75580  Biso   1.000  H
  H108     1.0000 0.56130  0.76810  0.69780  Biso   1.000  H
  H109     1.0000 0.82620  0.84480  0.70980  Biso   1.000  H
  H110     1.0000 0.76650  0.88080  0.76840  Biso   1.000  H
  H111     1.0000 0.35240  0.84690  0.84400  Biso   1.000  H
  H112     1.0000 0.24890  0.78120  0.88030  Biso   1.000  H
  H113     1.0000 0.27350  0.79620  0.95370  Biso   1.000  H
  H114     1.0000 0.53760  0.92040  0.03470  Biso   1.000  H
  H115     1.0000 0.66470  0.98720  0.01130  Biso   1.000  H
  H116     1.0000 0.63880  0.99600  0.93720  Biso   1.000  H
  H117     1.0000 0.44500  0.78310  0.00380  Biso   1.000  H
  H118     1.0000 0.37750  0.75160  0.06230  Biso   1.000  H
  H119     1.0000 0.23500  0.87890  0.08680  Biso   1.000  H
  H120     1.0000 0.30250  0.91540  0.02920  Biso   1.000  H
  C1       1.0000 0.32680  0.98753  0.35696  Biso   1.000  C
  C2       1.0000 0.29180  0.03486  0.34568  Biso   1.000  C
  C3       1.0000 0.37730  0.06670  0.34997  Biso   1.000  C
  C4       1.0000 0.46280  0.03750  0.36470  Biso   1.000  C
  C5       1.0000 0.56460  0.05399  0.37476  Biso   1.000  C
  C6       1.0000 0.64390  0.02453  0.39110  Biso   1.000  C
  C7       1.0000 0.74720  0.04066  0.40271  Biso   1.000  C
  C8       1.0000 0.80000  0.99940  0.41641  Biso   1.000  C
  C9       1.0000 0.72940  0.95863  0.41246  Biso   1.000  C
  C10      1.0000 0.59050  0.10748  0.36786  Biso   1.000  C
  C11      1.0000 0.66100  0.12088  0.33768  Biso   1.000  C
  C12      1.0000 0.68960  0.17085  0.33379  Biso   1.000  C
  C13      1.0000 0.58220  0.19426  0.38459  Biso   1.000  C
  C14      1.0000 0.54780  0.14549  0.39060  Biso   1.000  C
  C15      1.0000 0.64580  0.94948  0.31416  Biso   1.000  C
  C16      1.0000 0.65290  0.93904  0.27269  Biso   1.000  C
  C17      1.0000 0.56890  0.90951  0.26380  Biso   1.000  C
  C18      1.0000 0.51100  0.90065  0.29964  Biso   1.000  C
  C19      1.0000 0.42060  0.87169  0.30444  Biso   1.000  C
  C20      1.0000 0.36650  0.86431  0.34032  Biso   1.000  C
  C21      1.0000 0.27710  0.83323  0.34766  Biso   1.000  C
  C22      1.0000 0.25090  0.83780  0.38703  Biso   1.000  C
  C23      1.0000 0.32690  0.87059  0.40360  Biso   1.000  C
  C24      1.0000 0.37820  0.84634  0.26794  Biso   1.000  C
  C25      1.0000 0.43660  0.81232  0.24656  Biso   1.000  C
  C26      1.0000 0.39700  0.79187  0.21189  Biso   1.000  C
  C27      1.0000 0.24290  0.83670  0.21921  Biso   1.000  C
  C28      1.0000 0.27760  0.85820  0.25406  Biso   1.000  C
  C29      1.0000 0.64990  0.84317  0.37218  Biso   1.000  C
  C30      1.0000 0.70890  0.80660  0.39225  Biso   1.000  C
  C31      1.0000 0.69430  0.81430  0.43248  Biso   1.000  C
  C32      1.0000 0.62160  0.85483  0.43624  Biso   1.000  C
  C33      1.0000 0.58100  0.87533  0.47132  Biso   1.000  C
  C34      1.0000 0.50800  0.91449  0.47375  Biso   1.000  C
  C35      1.0000 0.45310  0.93180  0.50804  Biso   1.000  C
  C36      1.0000 0.38340  0.96856  0.49522  Biso   1.000  C
  C37      1.0000 0.39820  0.97282  0.45365  Biso   1.000  C
  C38      1.0000 0.61980  0.85286  0.50935  Biso   1.000  C
  C39      1.0000 0.59800  0.80364  0.52037  Biso   1.000  C
  C40      1.0000 0.63880  0.78515  0.55517  Biso   1.000  C
  C41      1.0000 0.72140  0.85933  0.56967  Biso   1.000  C
  C42      1.0000 0.68210  0.88142  0.53513  Biso   1.000  C
  C43      1.0000 0.17320  0.48753  0.64304  Biso   1.000  C
  C44      1.0000 0.20820  0.53486  0.65432  Biso   1.000  C
  C45      1.0000 0.12270  0.56670  0.65003  Biso   1.000  C
  C46      1.0000 0.03720  0.53750  0.63530  Biso   1.000  C
  C47      1.0000 0.93540  0.55399  0.62524  Biso   1.000  C
  C48      1.0000 0.85610  0.52453  0.60890  Biso   1.000  C
  C49      1.0000 0.75280  0.54066  0.59729  Biso   1.000  C
  C50      1.0000 0.70000  0.49940  0.58359  Biso   1.000  C
  C51      1.0000 0.77060  0.45863  0.58754  Biso   1.000  C
  C52      1.0000 0.90950  0.60748  0.63214  Biso   1.000  C
  C53      1.0000 0.83900  0.62088  0.66232  Biso   1.000  C
  C54      1.0000 0.81040  0.67085  0.66621  Biso   1.000  C
  C55      1.0000 0.91780  0.69426  0.61541  Biso   1.000  C
  C56      1.0000 0.95220  0.64549  0.60940  Biso   1.000  C
  C57      1.0000 0.85420  0.44948  0.68584  Biso   1.000  C
  C58      1.0000 0.84710  0.43904  0.72731  Biso   1.000  C
  C59      1.0000 0.93110  0.40951  0.73620  Biso   1.000  C
  C60      1.0000 0.98900  0.40065  0.70036  Biso   1.000  C
  C61      1.0000 0.07940  0.37169  0.69556  Biso   1.000  C
  C62      1.0000 0.13350  0.36431  0.65968  Biso   1.000  C
  C63      1.0000 0.22290  0.33323  0.65234  Biso   1.000  C
  C64      1.0000 0.24910  0.33780  0.61297  Biso   1.000  C
  C65      1.0000 0.17310  0.37059  0.59640  Biso   1.000  C
  C66      1.0000 0.12180  0.34634  0.73206  Biso   1.000  C
  C67      1.0000 0.06340  0.31232  0.75344  Biso   1.000  C
  C68      1.0000 0.10300  0.29187  0.78811  Biso   1.000  C
  C69      1.0000 0.25710  0.33670  0.78079  Biso   1.000  C
  C70      1.0000 0.22240  0.35820  0.74594  Biso   1.000  C
  C71      1.0000 0.85010  0.34317  0.62782  Biso   1.000  C
  C72      1.0000 0.79110  0.30660  0.60775  Biso   1.000  C
  C73      1.0000 0.80570  0.31430  0.56752  Biso   1.000  C
  C74      1.0000 0.87840  0.35483  0.56376  Biso   1.000  C
  C75      1.0000 0.91900  0.37533  0.52868  Biso   1.000  C
  C76      1.0000 0.99200  0.41449  0.52625  Biso   1.000  C
  C77      1.0000 0.04690  0.43180  0.49196  Biso   1.000  C
  C78      1.0000 0.11660  0.46856  0.50478  Biso   1.000  C
  C79      1.0000 0.10180  0.47282  0.54635  Biso   1.000  C
  C80      1.0000 0.88020  0.35286  0.49065  Biso   1.000  C
  C81      1.0000 0.90200  0.30364  0.47963  Biso   1.000  C
  C82      1.0000 0.86120  0.28515  0.44483  Biso   1.000  C
  C83      1.0000 0.77860  0.35933  0.43033  Biso   1.000  C
  C84      1.0000 0.81790  0.38142  0.46487  Biso   1.000  C
  C85      1.0000 0.82680  0.48753  0.14304  Biso   1.000  C
  C86      1.0000 0.79180  0.53486  0.15432  Biso   1.000  C
  C87      1.0000 0.87730  0.56670  0.15003  Biso   1.000  C
  C88      1.0000 0.96280  0.53750  0.13530  Biso   1.000  C
  C89      1.0000 0.06460  0.55399  0.12524  Biso   1.000  C
  C90      1.0000 0.14390  0.52453  0.10890  Biso   1.000  C
  C91      1.0000 0.24720  0.54066  0.09729  Biso   1.000  C
  C92      1.0000 0.30000  0.49940  0.08359  Biso   1.000  C
  C93      1.0000 0.22940  0.45863  0.08754  Biso   1.000  C
  C94      1.0000 0.09050  0.60748  0.13214  Biso   1.000  C
  C95      1.0000 0.16100  0.62088  0.16232  Biso   1.000  C
  C96      1.0000 0.18960  0.67085  0.16621  Biso   1.000  C
  C97      1.0000 0.08220  0.69426  0.11541  Biso   1.000  C
  C98      1.0000 0.04780  0.64549  0.10940  Biso   1.000  C
  C99      1.0000 0.14580  0.44948  0.18584  Biso   1.000  C
  C100     1.0000 0.15290  0.43904  0.22731  Biso   1.000  C
  C101     1.0000 0.06890  0.40951  0.23620  Biso   1.000  C
  C102     1.0000 0.01100  0.40065  0.20036  Biso   1.000  C
  C103     1.0000 0.92060  0.37169  0.19556  Biso   1.000  C
  C104     1.0000 0.86650  0.36431  0.15968  Biso   1.000  C
  C105     1.0000 0.77710  0.33323  0.15234  Biso   1.000  C
  C106     1.0000 0.75090  0.33780  0.11297  Biso   1.000  C
  C107     1.0000 0.82690  0.37059  0.09640  Biso   1.000  C
  C108     1.0000 0.87820  0.34634  0.23206  Biso   1.000  C
  C109     1.0000 0.93660  0.31232  0.25344  Biso   1.000  C
  C110     1.0000 0.89700  0.29187  0.28811  Biso   1.000  C
  C111     1.0000 0.74290  0.33670  0.28079  Biso   1.000  C
  C112     1.0000 0.77760  0.35820  0.24594  Biso   1.000  C
  C113     1.0000 0.14990  0.34317  0.12782  Biso   1.000  C
  C114     1.0000 0.20890  0.30660  0.10775  Biso   1.000  C
  C115     1.0000 0.19430  0.31430  0.06752  Biso   1.000  C
  C116     1.0000 0.12160  0.35483  0.06376  Biso   1.000  C
  C117     1.0000 0.08100  0.37533  0.02868  Biso   1.000  C
  C118     1.0000 0.00800  0.41449  0.02625  Biso   1.000  C
  C119     1.0000 0.95310  0.43180  0.99196  Biso   1.000  C
  C120     1.0000 0.88340  0.46856  0.00478  Biso   1.000  C
  C121     1.0000 0.89820  0.47282  0.04635  Biso   1.000  C
  C122     1.0000 0.11980  0.35286  0.99065  Biso   1.000  C
  C123     1.0000 0.09800  0.30364  0.97963  Biso   1.000  C
  C124     1.0000 0.13880  0.28515  0.94483  Biso   1.000  C
  C125     1.0000 0.22140  0.35933  0.93033  Biso   1.000  C
  C126     1.0000 0.18210  0.38142  0.96487  Biso   1.000  C
  C127     1.0000 0.67320  0.98753  0.85696  Biso   1.000  C
  C128     1.0000 0.70820  0.03486  0.84568  Biso   1.000  C
  C129     1.0000 0.62270  0.06670  0.84997  Biso   1.000  C
  C130     1.0000 0.53720  0.03750  0.86470  Biso   1.000  C
  C131     1.0000 0.43540  0.05399  0.87476  Biso   1.000  C
  C132     1.0000 0.35610  0.02453  0.89110  Biso   1.000  C
  C133     1.0000 0.25280  0.04066  0.90271  Biso   1.000  C
  C134     1.0000 0.20000  0.99940  0.91641  Biso   1.000  C
  C135     1.0000 0.27060  0.95863  0.91246  Biso   1.000  C
  C136     1.0000 0.40950  0.10748  0.86786  Biso   1.000  C
  C137     1.0000 0.33900  0.12088  0.83768  Biso   1.000  C
  C138     1.0000 0.31040  0.17085  0.83379  Biso   1.000  C
  C139     1.0000 0.41780  0.19426  0.88459  Biso   1.000  C
  C140     1.0000 0.45220  0.14549  0.89060  Biso   1.000  C
  C141     1.0000 0.35420  0.94948  0.81416  Biso   1.000  C
  C142     1.0000 0.34710  0.93904  0.77269  Biso   1.000  C
  C143     1.0000 0.43110  0.90951  0.76380  Biso   1.000  C
  C144     1.0000 0.48900  0.90065  0.79964  Biso   1.000  C
  C145     1.0000 0.57940  0.87169  0.80444  Biso   1.000  C
  C146     1.0000 0.63350  0.86431  0.84032  Biso   1.000  C
  C147     1.0000 0.72290  0.83323  0.84766  Biso   1.000  C
  C148     1.0000 0.74910  0.83780  0.88703  Biso   1.000  C
  C149     1.0000 0.67310  0.87059  0.90360  Biso   1.000  C
  C150     1.0000 0.62180  0.84634  0.76794  Biso   1.000  C
  C151     1.0000 0.56340  0.81232  0.74656  Biso   1.000  C
  C152     1.0000 0.60300  0.79187  0.71189  Biso   1.000  C
  C153     1.0000 0.75710  0.83670  0.71921  Biso   1.000  C
  C154     1.0000 0.72240  0.85820  0.75406  Biso   1.000  C
  C155     1.0000 0.35010  0.84317  0.87218  Biso   1.000  C
  C156     1.0000 0.29110  0.80660  0.89225  Biso   1.000  C
  C157     1.0000 0.30570  0.81430  0.93248  Biso   1.000  C
  C158     1.0000 0.37840  0.85483  0.93624  Biso   1.000  C
  C159     1.0000 0.41900  0.87533  0.97132  Biso   1.000  C
  C160     1.0000 0.49200  0.91449  0.97375  Biso   1.000  C
  C161     1.0000 0.54690  0.93180  0.00804  Biso   1.000  C
  C162     1.0000 0.61660  0.96856  0.99522  Biso   1.000  C
  C163     1.0000 0.60180  0.97282  0.95365  Biso   1.000  C
  C164     1.0000 0.38020  0.85286  0.00935  Biso   1.000  C
  C165     1.0000 0.40200  0.80364  0.02037  Biso   1.000  C
  C166     1.0000 0.36120  0.78515  0.05517  Biso   1.000  C
  C167     1.0000 0.27860  0.85933  0.06967  Biso   1.000  C
  C168     1.0000 0.31790  0.88142  0.03513  Biso   1.000  C
  N1       1.0000 0.42870  0.98806  0.36884  Biso   1.000  N
  N2       1.0000 0.63590  0.97318  0.39734  Biso   1.000  N
  N3       1.0000 0.65300  0.20718  0.35732  Biso   1.000  N
  N4       1.0000 0.56090  0.92669  0.33032  Biso   1.000  N
  N5       1.0000 0.39510  0.88666  0.37646  Biso   1.000  N
  N6       1.0000 0.30250  0.80439  0.19759  Biso   1.000  N
  N7       1.0000 0.59700  0.87219  0.39806  Biso   1.000  N
  N8       1.0000 0.47070  0.94032  0.44010  Biso   1.000  N
  N9       1.0000 0.70120  0.81210  0.58002  Biso   1.000  N
  N10      1.0000 0.07130  0.48806  0.63116  Biso   1.000  N
  N11      1.0000 0.86410  0.47318  0.60266  Biso   1.000  N
  N12      1.0000 0.84700  0.70718  0.64268  Biso   1.000  N
  N13      1.0000 0.93910  0.42669  0.66968  Biso   1.000  N
  N14      1.0000 0.10490  0.38666  0.62354  Biso   1.000  N
  N15      1.0000 0.19750  0.30439  0.80241  Biso   1.000  N
  N16      1.0000 0.90300  0.37219  0.60194  Biso   1.000  N
  N17      1.0000 0.02930  0.44032  0.55990  Biso   1.000  N
  N18      1.0000 0.79880  0.31210  0.41998  Biso   1.000  N
  N19      1.0000 0.92870  0.48806  0.13116  Biso   1.000  N
  N20      1.0000 0.13590  0.47318  0.10266  Biso   1.000  N
  N21      1.0000 0.15300  0.70718  0.14268  Biso   1.000  N
  N22      1.0000 0.06090  0.42669  0.16968  Biso   1.000  N
  N23      1.0000 0.89510  0.38666  0.12354  Biso   1.000  N
  N24      1.0000 0.80250  0.30439  0.30241  Biso   1.000  N
  N25      1.0000 0.09700  0.37219  0.10194  Biso   1.000  N
  N26      1.0000 0.97070  0.44032  0.05990  Biso   1.000  N
  N27      1.0000 0.20120  0.31210  0.91998  Biso   1.000  N
  N28      1.0000 0.57130  0.98806  0.86884  Biso   1.000  N
  N29      1.0000 0.36410  0.97318  0.89734  Biso   1.000  N
  N30      1.0000 0.34700  0.20718  0.85732  Biso   1.000  N
  N31      1.0000 0.43910  0.92669  0.83032  Biso   1.000  N
  N32      1.0000 0.60490  0.88666  0.87646  Biso   1.000  N
  N33      1.0000 0.69750  0.80439  0.69759  Biso   1.000  N
  N34      1.0000 0.40300  0.87219  0.89806  Biso   1.000  N
  N35      1.0000 0.52930  0.94032  0.94010  Biso   1.000  N
  N36      1.0000 0.29880  0.81210  0.08002  Biso   1.000  N
  Co5      1.0000 0.98538  0.56876  0.88532  Biso   1.000  Co
  Co6      1.0000 0.51462  0.06876  0.11468  Biso   1.000  Co
  Co7      1.0000 0.48538  0.06876  0.61468  Biso   1.000  Co
  Co8      1.0000 0.01462  0.56876  0.38532  Biso   1.000  Co
  Ag5      1.0000 0.75889  0.21992  0.86232  Biso   1.000  Ag
  Ag6      1.0000 0.74111  0.71992  0.13768  Biso   1.000  Ag
  Ag7      1.0000 0.25889  0.71992  0.63768  Biso   1.000  Ag
  Ag8      1.0000 0.24111  0.21992  0.36232  Biso   1.000  Ag
  H121     1.0000 0.21620  0.54170  0.85630  Biso   1.000  H
  H122     1.0000 0.27750  0.45650  0.83680  Biso   1.000  H
  H123     1.0000 0.12140  0.39850  0.84420  Biso   1.000  H
  H124     1.0000 0.72580  0.42620  0.90120  Biso   1.000  H
  H125     1.0000 0.62950  0.50170  0.92660  Biso   1.000  H
  H126     1.0000 0.75390  0.57490  0.91960  Biso   1.000  H
  H127     1.0000 0.81100  0.40370  0.82010  Biso   1.000  H
  H128     1.0000 0.76190  0.32040  0.81320  Biso   1.000  H
  H129     1.0000 0.94690  0.28020  0.90100  Biso   1.000  H
  H130     1.0000 0.00470  0.36160  0.91020  Biso   1.000  H
  H131     1.0000 0.80550  0.53020  0.82860  Biso   1.000  H
  H132     1.0000 0.79390  0.54950  0.75470  Biso   1.000  H
  H133     1.0000 0.94840  0.60310  0.73810  Biso   1.000  H
  H134     1.0000 0.25830  0.68710  0.82850  Biso   1.000  H
  H135     1.0000 0.30660  0.67790  0.90050  Biso   1.000  H
  H136     1.0000 0.17120  0.62000  0.93100  Biso   1.000  H
  H137     1.0000 0.99490  0.69720  0.75580  Biso   1.000  H
  H138     1.0000 0.06130  0.73190  0.69780  Biso   1.000  H
  H139     1.0000 0.32620  0.65520  0.70980  Biso   1.000  H
  H140     1.0000 0.26650  0.61920  0.76840  Biso   1.000  H
  H141     1.0000 0.85240  0.65310  0.84400  Biso   1.000  H
  H142     1.0000 0.74890  0.71880  0.88030  Biso   1.000  H
  H143     1.0000 0.77350  0.70380  0.95370  Biso   1.000  H
  H144     1.0000 0.03760  0.57960  0.03470  Biso   1.000  H
  H145     1.0000 0.16470  0.51280  0.01130  Biso   1.000  H
  H146     1.0000 0.13880  0.50400  0.93720  Biso   1.000  H
  H147     1.0000 0.94500  0.71690  0.00380  Biso   1.000  H
  H148     1.0000 0.87750  0.74840  0.06230  Biso   1.000  H
  H149     1.0000 0.73500  0.62110  0.08680  Biso   1.000  H
  H150     1.0000 0.80250  0.58460  0.02920  Biso   1.000  H
  H151     1.0000 0.28380  0.04170  0.14370  Biso   1.000  H
  H152     1.0000 0.22250  0.95650  0.16320  Biso   1.000  H
  H153     1.0000 0.37860  0.89850  0.15580  Biso   1.000  H
  H154     1.0000 0.77420  0.92620  0.09880  Biso   1.000  H
  H155     1.0000 0.87050  0.00170  0.07340  Biso   1.000  H
  H156     1.0000 0.74610  0.07490  0.08040  Biso   1.000  H
  H157     1.0000 0.68900  0.90370  0.17990  Biso   1.000  H
  H158     1.0000 0.73810  0.82040  0.18680  Biso   1.000  H
  H159     1.0000 0.55310  0.78020  0.09900  Biso   1.000  H
  H160     1.0000 0.49530  0.86160  0.08980  Biso   1.000  H
  H161     1.0000 0.69450  0.03020  0.17140  Biso   1.000  H
  H162     1.0000 0.70610  0.04950  0.24530  Biso   1.000  H
  H163     1.0000 0.55160  0.10310  0.26190  Biso   1.000  H
  H164     1.0000 0.24170  0.18710  0.17150  Biso   1.000  H
  H165     1.0000 0.19340  0.17790  0.09950  Biso   1.000  H
  H166     1.0000 0.32880  0.12000  0.06900  Biso   1.000  H
  H167     1.0000 0.50510  0.19720  0.24420  Biso   1.000  H
  H168     1.0000 0.43870  0.23190  0.30220  Biso   1.000  H
  H169     1.0000 0.17380  0.15520  0.29020  Biso   1.000  H
  H170     1.0000 0.23350  0.11920  0.23160  Biso   1.000  H
  H171     1.0000 0.64760  0.15310  0.15600  Biso   1.000  H
  H172     1.0000 0.75110  0.21880  0.11970  Biso   1.000  H
  H173     1.0000 0.72650  0.20380  0.04630  Biso   1.000  H
  H174     1.0000 0.46240  0.07960  0.96530  Biso   1.000  H
  H175     1.0000 0.33530  0.01280  0.98870  Biso   1.000  H
  H176     1.0000 0.36120  0.00400  0.06280  Biso   1.000  H
  H177     1.0000 0.55500  0.21690  0.99620  Biso   1.000  H
  H178     1.0000 0.62250  0.24840  0.93770  Biso   1.000  H
  H179     1.0000 0.76500  0.12110  0.91320  Biso   1.000  H
  H180     1.0000 0.69750  0.08460  0.97080  Biso   1.000  H
  H181     1.0000 0.71620  0.04170  0.64370  Biso   1.000  H
  H182     1.0000 0.77750  0.95650  0.66320  Biso   1.000  H
  H183     1.0000 0.62140  0.89850  0.65580  Biso   1.000  H
  H184     1.0000 0.22580  0.92620  0.59880  Biso   1.000  H
  H185     1.0000 0.12950  0.00170  0.57340  Biso   1.000  H
  H186     1.0000 0.25390  0.07490  0.58040  Biso   1.000  H
  H187     1.0000 0.31100  0.90370  0.67990  Biso   1.000  H
  H188     1.0000 0.26190  0.82040  0.68680  Biso   1.000  H
  H189     1.0000 0.44690  0.78020  0.59900  Biso   1.000  H
  H190     1.0000 0.50470  0.86160  0.58980  Biso   1.000  H
  H191     1.0000 0.30550  0.03020  0.67140  Biso   1.000  H
  H192     1.0000 0.29390  0.04950  0.74530  Biso   1.000  H
  H193     1.0000 0.44840  0.10310  0.76190  Biso   1.000  H
  H194     1.0000 0.75830  0.18710  0.67150  Biso   1.000  H
  H195     1.0000 0.80660  0.17790  0.59950  Biso   1.000  H
  H196     1.0000 0.67120  0.12000  0.56900  Biso   1.000  H
  H197     1.0000 0.49490  0.19720  0.74420  Biso   1.000  H
  H198     1.0000 0.56130  0.23190  0.80220  Biso   1.000  H
  H199     1.0000 0.82620  0.15520  0.79020  Biso   1.000  H
  H200     1.0000 0.76650  0.11920  0.73160  Biso   1.000  H
  H201     1.0000 0.35240  0.15310  0.65600  Biso   1.000  H
  H202     1.0000 0.24890  0.21880  0.61970  Biso   1.000  H
  H203     1.0000 0.27350  0.20380  0.54630  Biso   1.000  H
  H204     1.0000 0.53760  0.07960  0.46530  Biso   1.000  H
  H205     1.0000 0.66470  0.01280  0.48870  Biso   1.000  H
  H206     1.0000 0.63880  0.00400  0.56280  Biso   1.000  H
  H207     1.0000 0.44500  0.21690  0.49620  Biso   1.000  H
  H208     1.0000 0.37750  0.24840  0.43770  Biso   1.000  H
  H209     1.0000 0.23500  0.12110  0.41320  Biso   1.000  H
  H210     1.0000 0.30250  0.08460  0.47080  Biso   1.000  H
  H211     1.0000 0.78380  0.54170  0.35630  Biso   1.000  H
  H212     1.0000 0.72250  0.45650  0.33680  Biso   1.000  H
  H213     1.0000 0.87860  0.39850  0.34420  Biso   1.000  H
  H214     1.0000 0.27420  0.42620  0.40120  Biso   1.000  H
  H215     1.0000 0.37050  0.50170  0.42660  Biso   1.000  H
  H216     1.0000 0.24610  0.57490  0.41960  Biso   1.000  H
  H217     1.0000 0.18900  0.40370  0.32010  Biso   1.000  H
  H218     1.0000 0.23810  0.32040  0.31320  Biso   1.000  H
  H219     1.0000 0.05310  0.28020  0.40100  Biso   1.000  H
  H220     1.0000 0.99530  0.36160  0.41020  Biso   1.000  H
  H221     1.0000 0.19450  0.53020  0.32860  Biso   1.000  H
  H222     1.0000 0.20610  0.54950  0.25470  Biso   1.000  H
  H223     1.0000 0.05160  0.60310  0.23810  Biso   1.000  H
  H224     1.0000 0.74170  0.68710  0.32850  Biso   1.000  H
  H225     1.0000 0.69340  0.67790  0.40050  Biso   1.000  H
  H226     1.0000 0.82880  0.62000  0.43100  Biso   1.000  H
  H227     1.0000 0.00510  0.69720  0.25580  Biso   1.000  H
  H228     1.0000 0.93870  0.73190  0.19780  Biso   1.000  H
  H229     1.0000 0.67380  0.65520  0.20980  Biso   1.000  H
  H230     1.0000 0.73350  0.61920  0.26840  Biso   1.000  H
  H231     1.0000 0.14760  0.65310  0.34400  Biso   1.000  H
  H232     1.0000 0.25110  0.71880  0.38030  Biso   1.000  H
  H233     1.0000 0.22650  0.70380  0.45370  Biso   1.000  H
  H234     1.0000 0.96240  0.57960  0.53470  Biso   1.000  H
  H235     1.0000 0.83530  0.51280  0.51130  Biso   1.000  H
  H236     1.0000 0.86120  0.50400  0.43720  Biso   1.000  H
  H237     1.0000 0.05500  0.71690  0.50380  Biso   1.000  H
  H238     1.0000 0.12250  0.74840  0.56230  Biso   1.000  H
  H239     1.0000 0.26500  0.62110  0.58680  Biso   1.000  H
  H240     1.0000 0.19750  0.58460  0.52920  Biso   1.000  H
  C169     1.0000 0.17320  0.51247  0.85696  Biso   1.000  C
  C170     1.0000 0.20820  0.46514  0.84568  Biso   1.000  C
  C171     1.0000 0.12270  0.43330  0.84997  Biso   1.000  C
  C172     1.0000 0.03720  0.46250  0.86470  Biso   1.000  C
  C173     1.0000 0.93540  0.44601  0.87476  Biso   1.000  C
  C174     1.0000 0.85610  0.47547  0.89110  Biso   1.000  C
  C175     1.0000 0.75280  0.45934  0.90271  Biso   1.000  C
  C176     1.0000 0.70000  0.50060  0.91641  Biso   1.000  C
  C177     1.0000 0.77060  0.54137  0.91246  Biso   1.000  C
  C178     1.0000 0.90950  0.39252  0.86786  Biso   1.000  C
  C179     1.0000 0.83900  0.37912  0.83768  Biso   1.000  C
  C180     1.0000 0.81040  0.32915  0.83379  Biso   1.000  C
  C181     1.0000 0.91780  0.30574  0.88459  Biso   1.000  C
  C182     1.0000 0.95220  0.35451  0.89060  Biso   1.000  C
  C183     1.0000 0.85420  0.55052  0.81416  Biso   1.000  C
  C184     1.0000 0.84710  0.56096  0.77269  Biso   1.000  C
  C185     1.0000 0.93110  0.59049  0.76380  Biso   1.000  C
  C186     1.0000 0.98900  0.59935  0.79964  Biso   1.000  C
  C187     1.0000 0.07940  0.62831  0.80444  Biso   1.000  C
  C188     1.0000 0.13350  0.63569  0.84032  Biso   1.000  C
  C189     1.0000 0.22290  0.66677  0.84766  Biso   1.000  C
  C190     1.0000 0.24910  0.66220  0.88703  Biso   1.000  C
  C191     1.0000 0.17310  0.62941  0.90360  Biso   1.000  C
  C192     1.0000 0.12180  0.65366  0.76794  Biso   1.000  C
  C193     1.0000 0.06340  0.68768  0.74656  Biso   1.000  C
  C194     1.0000 0.10300  0.70813  0.71189  Biso   1.000  C
  C195     1.0000 0.25710  0.66330  0.71921  Biso   1.000  C
  C196     1.0000 0.22240  0.64180  0.75406  Biso   1.000  C
  C197     1.0000 0.85010  0.65683  0.87218  Biso   1.000  C
  C198     1.0000 0.79110  0.69340  0.89225  Biso   1.000  C
  C199     1.0000 0.80570  0.68570  0.93248  Biso   1.000  C
  C200     1.0000 0.87840  0.64517  0.93624  Biso   1.000  C
  C201     1.0000 0.91900  0.62467  0.97132  Biso   1.000  C
  C202     1.0000 0.99200  0.58551  0.97375  Biso   1.000  C
  C203     1.0000 0.04690  0.56820  0.00804  Biso   1.000  C
  C204     1.0000 0.11660  0.53144  0.99522  Biso   1.000  C
  C205     1.0000 0.10180  0.52718  0.95365  Biso   1.000  C
  C206     1.0000 0.88020  0.64714  0.00935  Biso   1.000  C
  C207     1.0000 0.90200  0.69636  0.02037  Biso   1.000  C
  C208     1.0000 0.86120  0.71485  0.05517  Biso   1.000  C
  C209     1.0000 0.77860  0.64067  0.06967  Biso   1.000  C
  C210     1.0000 0.81790  0.61858  0.03513  Biso   1.000  C
  C211     1.0000 0.32680  0.01247  0.14304  Biso   1.000  C
  C212     1.0000 0.29180  0.96514  0.15432  Biso   1.000  C
  C213     1.0000 0.37730  0.93330  0.15003  Biso   1.000  C
  C214     1.0000 0.46280  0.96250  0.13530  Biso   1.000  C
  C215     1.0000 0.56460  0.94601  0.12524  Biso   1.000  C
  C216     1.0000 0.64390  0.97547  0.10890  Biso   1.000  C
  C217     1.0000 0.74720  0.95934  0.09729  Biso   1.000  C
  C218     1.0000 0.80000  0.00060  0.08359  Biso   1.000  C
  C219     1.0000 0.72940  0.04137  0.08754  Biso   1.000  C
  C220     1.0000 0.59050  0.89252  0.13214  Biso   1.000  C
  C221     1.0000 0.66100  0.87912  0.16232  Biso   1.000  C
  C222     1.0000 0.68960  0.82915  0.16621  Biso   1.000  C
  C223     1.0000 0.58220  0.80574  0.11541  Biso   1.000  C
  C224     1.0000 0.54780  0.85451  0.10940  Biso   1.000  C
  C225     1.0000 0.64580  0.05052  0.18584  Biso   1.000  C
  C226     1.0000 0.65290  0.06096  0.22731  Biso   1.000  C
  C227     1.0000 0.56890  0.09049  0.23620  Biso   1.000  C
  C228     1.0000 0.51100  0.09935  0.20036  Biso   1.000  C
  C229     1.0000 0.42060  0.12831  0.19556  Biso   1.000  C
  C230     1.0000 0.36650  0.13569  0.15968  Biso   1.000  C
  C231     1.0000 0.27710  0.16677  0.15234  Biso   1.000  C
  C232     1.0000 0.25090  0.16220  0.11297  Biso   1.000  C
  C233     1.0000 0.32690  0.12941  0.09640  Biso   1.000  C
  C234     1.0000 0.37820  0.15366  0.23206  Biso   1.000  C
  C235     1.0000 0.43660  0.18768  0.25344  Biso   1.000  C
  C236     1.0000 0.39700  0.20813  0.28811  Biso   1.000  C
  C237     1.0000 0.24290  0.16330  0.28079  Biso   1.000  C
  C238     1.0000 0.27760  0.14180  0.24594  Biso   1.000  C
  C239     1.0000 0.64990  0.15683  0.12782  Biso   1.000  C
  C240     1.0000 0.70890  0.19340  0.10775  Biso   1.000  C
  C241     1.0000 0.69430  0.18570  0.06752  Biso   1.000  C
  C242     1.0000 0.62160  0.14517  0.06376  Biso   1.000  C
  C243     1.0000 0.58100  0.12467  0.02868  Biso   1.000  C
  C244     1.0000 0.50800  0.08551  0.02625  Biso   1.000  C
  C245     1.0000 0.45310  0.06820  0.99196  Biso   1.000  C
  C246     1.0000 0.38340  0.03144  0.00478  Biso   1.000  C
  C247     1.0000 0.39820  0.02718  0.04635  Biso   1.000  C
  C248     1.0000 0.61980  0.14714  0.99065  Biso   1.000  C
  C249     1.0000 0.59800  0.19636  0.97963  Biso   1.000  C
  C250     1.0000 0.63880  0.21485  0.94483  Biso   1.000  C
  C251     1.0000 0.72140  0.14067  0.93033  Biso   1.000  C
  C252     1.0000 0.68210  0.11858  0.96487  Biso   1.000  C
  C253     1.0000 0.67320  0.01247  0.64304  Biso   1.000  C
  C254     1.0000 0.70820  0.96514  0.65432  Biso   1.000  C
  C255     1.0000 0.62270  0.93330  0.65003  Biso   1.000  C
  C256     1.0000 0.53720  0.96250  0.63530  Biso   1.000  C
  C257     1.0000 0.43540  0.94601  0.62524  Biso   1.000  C
  C258     1.0000 0.35610  0.97547  0.60890  Biso   1.000  C
  C259     1.0000 0.25280  0.95934  0.59729  Biso   1.000  C
  C260     1.0000 0.20000  0.00060  0.58359  Biso   1.000  C
  C261     1.0000 0.27060  0.04137  0.58754  Biso   1.000  C
  C262     1.0000 0.40950  0.89252  0.63214  Biso   1.000  C
  C263     1.0000 0.33900  0.87912  0.66232  Biso   1.000  C
  C264     1.0000 0.31040  0.82915  0.66621  Biso   1.000  C
  C265     1.0000 0.41780  0.80574  0.61541  Biso   1.000  C
  C266     1.0000 0.45220  0.85451  0.60940  Biso   1.000  C
  C267     1.0000 0.35420  0.05052  0.68584  Biso   1.000  C
  C268     1.0000 0.34710  0.06096  0.72731  Biso   1.000  C
  C269     1.0000 0.43110  0.09049  0.73620  Biso   1.000  C
  C270     1.0000 0.48900  0.09935  0.70036  Biso   1.000  C
  C271     1.0000 0.57940  0.12831  0.69556  Biso   1.000  C
  C272     1.0000 0.63350  0.13569  0.65968  Biso   1.000  C
  C273     1.0000 0.72290  0.16677  0.65234  Biso   1.000  C
  C274     1.0000 0.74910  0.16220  0.61297  Biso   1.000  C
  C275     1.0000 0.67310  0.12941  0.59640  Biso   1.000  C
  C276     1.0000 0.62180  0.15366  0.73206  Biso   1.000  C
  C277     1.0000 0.56340  0.18768  0.75344  Biso   1.000  C
  C278     1.0000 0.60300  0.20813  0.78811  Biso   1.000  C
  C279     1.0000 0.75710  0.16330  0.78079  Biso   1.000  C
  C280     1.0000 0.72240  0.14180  0.74594  Biso   1.000  C
  C281     1.0000 0.35010  0.15683  0.62782  Biso   1.000  C
  C282     1.0000 0.29110  0.19340  0.60775  Biso   1.000  C
  C283     1.0000 0.30570  0.18570  0.56752  Biso   1.000  C
  C284     1.0000 0.37840  0.14517  0.56376  Biso   1.000  C
  C285     1.0000 0.41900  0.12467  0.52868  Biso   1.000  C
  C286     1.0000 0.49200  0.08551  0.52625  Biso   1.000  C
  C287     1.0000 0.54690  0.06820  0.49196  Biso   1.000  C
  C288     1.0000 0.61660  0.03144  0.50478  Biso   1.000  C
  C289     1.0000 0.60180  0.02718  0.54635  Biso   1.000  C
  C290     1.0000 0.38020  0.14714  0.49065  Biso   1.000  C
  C291     1.0000 0.40200  0.19636  0.47963  Biso   1.000  C
  C292     1.0000 0.36120  0.21485  0.44483  Biso   1.000  C
  C293     1.0000 0.27860  0.14067  0.43033  Biso   1.000  C
  C294     1.0000 0.31790  0.11858  0.46487  Biso   1.000  C
  C295     1.0000 0.82680  0.51247  0.35696  Biso   1.000  C
  C296     1.0000 0.79180  0.46514  0.34568  Biso   1.000  C
  C297     1.0000 0.87730  0.43330  0.34997  Biso   1.000  C
  C298     1.0000 0.96280  0.46250  0.36470  Biso   1.000  C
  C299     1.0000 0.06460  0.44601  0.37476  Biso   1.000  C
  C300     1.0000 0.14390  0.47547  0.39110  Biso   1.000  C
  C301     1.0000 0.24720  0.45934  0.40271  Biso   1.000  C
  C302     1.0000 0.30000  0.50060  0.41641  Biso   1.000  C
  C303     1.0000 0.22940  0.54137  0.41246  Biso   1.000  C
  C304     1.0000 0.09050  0.39252  0.36786  Biso   1.000  C
  C305     1.0000 0.16100  0.37912  0.33768  Biso   1.000  C
  C306     1.0000 0.18960  0.32915  0.33379  Biso   1.000  C
  C307     1.0000 0.08220  0.30574  0.38459  Biso   1.000  C
  C308     1.0000 0.04780  0.35451  0.39060  Biso   1.000  C
  C309     1.0000 0.14580  0.55052  0.31416  Biso   1.000  C
  C310     1.0000 0.15290  0.56096  0.27269  Biso   1.000  C
  C311     1.0000 0.06890  0.59049  0.26380  Biso   1.000  C
  C312     1.0000 0.01100  0.59935  0.29964  Biso   1.000  C
  C313     1.0000 0.92060  0.62831  0.30444  Biso   1.000  C
  C314     1.0000 0.86650  0.63569  0.34032  Biso   1.000  C
  C315     1.0000 0.77710  0.66677  0.34766  Biso   1.000  C
  C316     1.0000 0.75090  0.66220  0.38703  Biso   1.000  C
  C317     1.0000 0.82690  0.62941  0.40360  Biso   1.000  C
  C318     1.0000 0.87820  0.65366  0.26794  Biso   1.000  C
  C319     1.0000 0.93660  0.68768  0.24656  Biso   1.000  C
  C320     1.0000 0.89700  0.70813  0.21189  Biso   1.000  C
  C321     1.0000 0.74290  0.66330  0.21921  Biso   1.000  C
  C322     1.0000 0.77760  0.64180  0.25406  Biso   1.000  C
  C323     1.0000 0.14990  0.65683  0.37218  Biso   1.000  C
  C324     1.0000 0.20890  0.69340  0.39225  Biso   1.000  C
  C325     1.0000 0.19430  0.68570  0.43248  Biso   1.000  C
  C326     1.0000 0.12160  0.64517  0.43624  Biso   1.000  C
  C327     1.0000 0.08100  0.62467  0.47132  Biso   1.000  C
  C328     1.0000 0.00800  0.58551  0.47375  Biso   1.000  C
  C329     1.0000 0.95310  0.56820  0.50804  Biso   1.000  C
  C330     1.0000 0.88340  0.53144  0.49522  Biso   1.000  C
  C331     1.0000 0.89820  0.52718  0.45365  Biso   1.000  C
  C332     1.0000 0.11980  0.64714  0.50935  Biso   1.000  C
  C333     1.0000 0.09800  0.69636  0.52037  Biso   1.000  C
  C334     1.0000 0.13880  0.71485  0.55517  Biso   1.000  C
  C335     1.0000 0.22140  0.64067  0.56967  Biso   1.000  C
  C336     1.0000 0.18210  0.61858  0.53513  Biso   1.000  C
  N37      1.0000 0.07130  0.51194  0.86884  Biso   1.000  N
  N38      1.0000 0.86410  0.52682  0.89734  Biso   1.000  N
  N39      1.0000 0.84700  0.29282  0.85732  Biso   1.000  N
  N40      1.0000 0.93910  0.57331  0.83032  Biso   1.000  N
  N41      1.0000 0.10490  0.61334  0.87646  Biso   1.000  N
  N42      1.0000 0.19750  0.69561  0.69759  Biso   1.000  N
  N43      1.0000 0.90300  0.62781  0.89806  Biso   1.000  N
  N44      1.0000 0.02930  0.55968  0.94010  Biso   1.000  N
  N45      1.0000 0.79880  0.68790  0.08002  Biso   1.000  N
  N46      1.0000 0.42870  0.01194  0.13116  Biso   1.000  N
  N47      1.0000 0.63590  0.02682  0.10266  Biso   1.000  N
  N48      1.0000 0.65300  0.79282  0.14268  Biso   1.000  N
  N49      1.0000 0.56090  0.07331  0.16968  Biso   1.000  N
  N50      1.0000 0.39510  0.11334  0.12354  Biso   1.000  N
  N51      1.0000 0.30250  0.19561  0.30241  Biso   1.000  N
  N52      1.0000 0.59700  0.12781  0.10194  Biso   1.000  N
  N53      1.0000 0.47070  0.05968  0.05990  Biso   1.000  N
  N54      1.0000 0.70120  0.18790  0.91998  Biso   1.000  N
  N55      1.0000 0.57130  0.01194  0.63116  Biso   1.000  N
  N56      1.0000 0.36410  0.02682  0.60266  Biso   1.000  N
  N57      1.0000 0.34700  0.79282  0.64268  Biso   1.000  N
  N58      1.0000 0.43910  0.07331  0.66968  Biso   1.000  N
  N59      1.0000 0.60490  0.11334  0.62354  Biso   1.000  N
  N60      1.0000 0.69750  0.19561  0.80241  Biso   1.000  N
  N61      1.0000 0.40300  0.12781  0.60194  Biso   1.000  N
  N62      1.0000 0.52930  0.05968  0.55990  Biso   1.000  N
  N63      1.0000 0.29880  0.18790  0.41998  Biso   1.000  N
  N64      1.0000 0.92870  0.51194  0.36884  Biso   1.000  N
  N65      1.0000 0.13590  0.52682  0.39734  Biso   1.000  N
  N66      1.0000 0.15300  0.29282  0.35732  Biso   1.000  N
  N67      1.0000 0.06090  0.57331  0.33032  Biso   1.000  N
  N68      1.0000 0.89510  0.61334  0.37646  Biso   1.000  N
  N69      1.0000 0.80250  0.69561  0.19759  Biso   1.000  N
  N70      1.0000 0.09700  0.62781  0.39806  Biso   1.000  N
  N71      1.0000 0.97070  0.55968  0.44010  Biso   1.000  N
  N72      1.0000 0.20120  0.68790  0.58002  Biso   1.000  N
