data_image0
_cell_length_a       12.3089
_cell_length_b       26.959
_cell_length_c       33.493
_cell_angle_alpha    90
_cell_angle_beta     90
_cell_angle_gamma    90

_symmetry_space_group_name_H-M    P 1
_symmetry_int_tables_number       1

loop_
  _symmetry_equiv_pos_as_xyz
  'x, y, z'

loop_
  _atom_site_label
  _atom_site_occupancy
  _atom_site_fract_x
  _atom_site_fract_y
  _atom_site_fract_z
  _atom_site_thermal_displace_type
  _atom_site_B_iso_or_equiv
  _atom_site_type_symbol
  Fe1      1.0000 0.98198  0.93174  0.38561  Biso   1.000  Fe
  Fe2      1.0000 0.51802  0.43174  0.61439  Biso   1.000  Fe
  Fe3      1.0000 0.48198  0.43174  0.11439  Biso   1.000  Fe
  Fe4      1.0000 0.01802  0.93174  0.88561  Biso   1.000  Fe
  Ag1      1.0000 0.76095  0.27927  0.36156  Biso   1.000  Ag
  Ag2      1.0000 0.73905  0.77927  0.63844  Biso   1.000  Ag
  Ag3      1.0000 0.26095  0.77927  0.13844  Biso   1.000  Ag
  Ag4      1.0000 0.23905  0.27927  0.86156  Biso   1.000  Ag
  H1       1.0000 0.21390  0.96130  0.35500  Biso   1.000  H
  H2       1.0000 0.27260  0.04570  0.33420  Biso   1.000  H
  H3       1.0000 0.10990  0.10030  0.34050  Biso   1.000  H
  H4       1.0000 0.70900  0.07070  0.39870  Biso   1.000  H
  H5       1.0000 0.61660  0.99640  0.42870  Biso   1.000  H
  H6       1.0000 0.74860  0.92680  0.42340  Biso   1.000  H
  H7       1.0000 0.00380  0.13670  0.40730  Biso   1.000  H
  H8       1.0000 0.94870  0.21780  0.39810  Biso   1.000  H
  H9       1.0000 0.74510  0.17950  0.31440  Biso   1.000  H
  H10      1.0000 0.78360  0.09450  0.32360  Biso   1.000  H
  H11      1.0000 0.78940  0.96670  0.33090  Biso   1.000  H
  H12      1.0000 0.78090  0.95350  0.25600  Biso   1.000  H
  H13      1.0000 0.94130  0.90400  0.23570  Biso   1.000  H
  H14      1.0000 0.25340  0.81650  0.32240  Biso   1.000  H
  H15      1.0000 0.30990  0.82210  0.39570  Biso   1.000  H
  H16      1.0000 0.17510  0.87630  0.42820  Biso   1.000  H
  H17      1.0000 0.26490  0.89210  0.26320  Biso   1.000  H
  H18      1.0000 0.32610  0.85550  0.20500  Biso   1.000  H
  H19      1.0000 0.06160  0.77580  0.19690  Biso   1.000  H
  H20      1.0000 0.99650  0.81040  0.25450  Biso   1.000  H
  H21      1.0000 0.84600  0.84570  0.34540  Biso   1.000  H
  H22      1.0000 0.75460  0.78060  0.38080  Biso   1.000  H
  H23      1.0000 0.76870  0.79340  0.45360  Biso   1.000  H
  H24      1.0000 0.04020  0.92040  0.53550  Biso   1.000  H
  H25      1.0000 0.16840  0.98550  0.51240  Biso   1.000  H
  H26      1.0000 0.14430  0.99330  0.43830  Biso   1.000  H
  H27      1.0000 0.95740  0.78510  0.50720  Biso   1.000  H
  H28      1.0000 0.87480  0.75190  0.56190  Biso   1.000  H
  H29      1.0000 0.72690  0.87790  0.58750  Biso   1.000  H
  H30      1.0000 0.79970  0.91440  0.53130  Biso   1.000  H
  H31      1.0000 0.28610  0.46130  0.64500  Biso   1.000  H
  H32      1.0000 0.22740  0.54570  0.66580  Biso   1.000  H
  H33      1.0000 0.39010  0.60030  0.65950  Biso   1.000  H
  H34      1.0000 0.79100  0.57070  0.60130  Biso   1.000  H
  H35      1.0000 0.88340  0.49640  0.57130  Biso   1.000  H
  H36      1.0000 0.75140  0.42680  0.57660  Biso   1.000  H
  H37      1.0000 0.49620  0.63670  0.59270  Biso   1.000  H
  H38      1.0000 0.55130  0.71780  0.60190  Biso   1.000  H
  H39      1.0000 0.75490  0.67950  0.68560  Biso   1.000  H
  H40      1.0000 0.71640  0.59450  0.67640  Biso   1.000  H
  H41      1.0000 0.71060  0.46670  0.66910  Biso   1.000  H
  H42      1.0000 0.71910  0.45350  0.74400  Biso   1.000  H
  H43      1.0000 0.55870  0.40400  0.76430  Biso   1.000  H
  H44      1.0000 0.24660  0.31650  0.67760  Biso   1.000  H
  H45      1.0000 0.19010  0.32210  0.60430  Biso   1.000  H
  H46      1.0000 0.32490  0.37630  0.57180  Biso   1.000  H
  H47      1.0000 0.23510  0.39210  0.73680  Biso   1.000  H
  H48      1.0000 0.17390  0.35550  0.79500  Biso   1.000  H
  H49      1.0000 0.43840  0.27580  0.80310  Biso   1.000  H
  H50      1.0000 0.50350  0.31040  0.74550  Biso   1.000  H
  H51      1.0000 0.65400  0.34570  0.65460  Biso   1.000  H
  H52      1.0000 0.74540  0.28060  0.61920  Biso   1.000  H
  H53      1.0000 0.73130  0.29340  0.54640  Biso   1.000  H
  H54      1.0000 0.45980  0.42040  0.46450  Biso   1.000  H
  H55      1.0000 0.33160  0.48550  0.48760  Biso   1.000  H
  H56      1.0000 0.35570  0.49330  0.56170  Biso   1.000  H
  H57      1.0000 0.54260  0.28510  0.49280  Biso   1.000  H
  H58      1.0000 0.62520  0.25190  0.43810  Biso   1.000  H
  H59      1.0000 0.77310  0.37790  0.41250  Biso   1.000  H
  H60      1.0000 0.70030  0.41440  0.46870  Biso   1.000  H
  H61      1.0000 0.71390  0.46130  0.14500  Biso   1.000  H
  H62      1.0000 0.77260  0.54570  0.16580  Biso   1.000  H
  H63      1.0000 0.60990  0.60030  0.15950  Biso   1.000  H
  H64      1.0000 0.20900  0.57070  0.10130  Biso   1.000  H
  H65      1.0000 0.11660  0.49640  0.07130  Biso   1.000  H
  H66      1.0000 0.24860  0.42680  0.07660  Biso   1.000  H
  H67      1.0000 0.50380  0.63670  0.09270  Biso   1.000  H
  H68      1.0000 0.44870  0.71780  0.10190  Biso   1.000  H
  H69      1.0000 0.24510  0.67950  0.18560  Biso   1.000  H
  H70      1.0000 0.28360  0.59450  0.17640  Biso   1.000  H
  H71      1.0000 0.28940  0.46670  0.16910  Biso   1.000  H
  H72      1.0000 0.28090  0.45350  0.24400  Biso   1.000  H
  H73      1.0000 0.44130  0.40400  0.26430  Biso   1.000  H
  H74      1.0000 0.75340  0.31650  0.17760  Biso   1.000  H
  H75      1.0000 0.80990  0.32210  0.10430  Biso   1.000  H
  H76      1.0000 0.67510  0.37630  0.07180  Biso   1.000  H
  H77      1.0000 0.76490  0.39210  0.23680  Biso   1.000  H
  H78      1.0000 0.82610  0.35550  0.29500  Biso   1.000  H
  H79      1.0000 0.56160  0.27580  0.30310  Biso   1.000  H
  H80      1.0000 0.49650  0.31040  0.24550  Biso   1.000  H
  H81      1.0000 0.34600  0.34570  0.15460  Biso   1.000  H
  H82      1.0000 0.25460  0.28060  0.11920  Biso   1.000  H
  H83      1.0000 0.26870  0.29340  0.04640  Biso   1.000  H
  H84      1.0000 0.54020  0.42040  0.96450  Biso   1.000  H
  H85      1.0000 0.66840  0.48550  0.98760  Biso   1.000  H
  H86      1.0000 0.64430  0.49330  0.06170  Biso   1.000  H
  H87      1.0000 0.45740  0.28510  0.99280  Biso   1.000  H
  H88      1.0000 0.37480  0.25190  0.93810  Biso   1.000  H
  H89      1.0000 0.22690  0.37790  0.91250  Biso   1.000  H
  H90      1.0000 0.29970  0.41440  0.96870  Biso   1.000  H
  H91      1.0000 0.78610  0.96130  0.85500  Biso   1.000  H
  H92      1.0000 0.72740  0.04570  0.83420  Biso   1.000  H
  H93      1.0000 0.89010  0.10030  0.84050  Biso   1.000  H
  H94      1.0000 0.29100  0.07070  0.89870  Biso   1.000  H
  H95      1.0000 0.38340  0.99640  0.92870  Biso   1.000  H
  H96      1.0000 0.25140  0.92680  0.92340  Biso   1.000  H
  H97      1.0000 0.99620  0.13670  0.90730  Biso   1.000  H
  H98      1.0000 0.05130  0.21780  0.89810  Biso   1.000  H
  H99      1.0000 0.25490  0.17950  0.81440  Biso   1.000  H
  H100     1.0000 0.21640  0.09450  0.82360  Biso   1.000  H
  H101     1.0000 0.21060  0.96670  0.83090  Biso   1.000  H
  H102     1.0000 0.21910  0.95350  0.75600  Biso   1.000  H
  H103     1.0000 0.05870  0.90400  0.73570  Biso   1.000  H
  H104     1.0000 0.74660  0.81650  0.82240  Biso   1.000  H
  H105     1.0000 0.69010  0.82210  0.89570  Biso   1.000  H
  H106     1.0000 0.82490  0.87630  0.92820  Biso   1.000  H
  H107     1.0000 0.73510  0.89210  0.76320  Biso   1.000  H
  H108     1.0000 0.67390  0.85550  0.70500  Biso   1.000  H
  H109     1.0000 0.93840  0.77580  0.69690  Biso   1.000  H
  H110     1.0000 0.00350  0.81040  0.75450  Biso   1.000  H
  H111     1.0000 0.15400  0.84570  0.84540  Biso   1.000  H
  H112     1.0000 0.24540  0.78060  0.88080  Biso   1.000  H
  H113     1.0000 0.23130  0.79340  0.95360  Biso   1.000  H
  H114     1.0000 0.95980  0.92040  0.03550  Biso   1.000  H
  H115     1.0000 0.83160  0.98550  0.01240  Biso   1.000  H
  H116     1.0000 0.85570  0.99330  0.93830  Biso   1.000  H
  H117     1.0000 0.04260  0.78510  0.00720  Biso   1.000  H
  H118     1.0000 0.12520  0.75190  0.06190  Biso   1.000  H
  H119     1.0000 0.27310  0.87790  0.08750  Biso   1.000  H
  H120     1.0000 0.20030  0.91440  0.03130  Biso   1.000  H
  C1       1.0000 0.16870  0.98980  0.35570  Biso   1.000  C
  C2       1.0000 0.20250  0.03650  0.34350  Biso   1.000  C
  C3       1.0000 0.11430  0.06630  0.34770  Biso   1.000  C
  C4       1.0000 0.03360  0.03850  0.36400  Biso   1.000  C
  C5       1.0000 0.92410  0.05440  0.37400  Biso   1.000  C
  C6       1.0000 0.84650  0.02350  0.39086  Biso   1.000  C
  C7       1.0000 0.73920  0.03850  0.40190  Biso   1.000  C
  C8       1.0000 0.68790  0.99800  0.41790  Biso   1.000  C
  C9       1.0000 0.76320  0.95970  0.41490  Biso   1.000  C
  C10      1.0000 0.89980  0.10660  0.36659  Biso   1.000  C
  C11      1.0000 0.94830  0.14420  0.38850  Biso   1.000  C
  C12      1.0000 0.91550  0.19230  0.38280  Biso   1.000  C
  C13      1.0000 0.79570  0.17030  0.33455  Biso   1.000  C
  C14      1.0000 0.82000  0.11910  0.33890  Biso   1.000  C
  C15      1.0000 0.84160  0.94900  0.31560  Biso   1.000  C
  C16      1.0000 0.83640  0.94160  0.27320  Biso   1.000  C
  C17      1.0000 0.92410  0.91470  0.26200  Biso   1.000  C
  C18      1.0000 0.98690  0.90540  0.29817  Biso   1.000  C
  C19      1.0000 0.07860  0.87880  0.30180  Biso   1.000  C
  C20      1.0000 0.13640  0.86900  0.33830  Biso   1.000  C
  C21      1.0000 0.22130  0.83640  0.34260  Biso   1.000  C
  C22      1.0000 0.25070  0.83850  0.38310  Biso   1.000  C
  C23      1.0000 0.17590  0.86910  0.40040  Biso   1.000  C
  C24      1.0000 0.12390  0.85630  0.26420  Biso   1.000  C
  C25      1.0000 0.22090  0.86840  0.24980  Biso   1.000  C
  C26      1.0000 0.25710  0.84600  0.21520  Biso   1.000  C
  C27      1.0000 0.10430  0.79990  0.21050  Biso   1.000  C
  C28      1.0000 0.06500  0.82060  0.24440  Biso   1.000  C
  C29      1.0000 0.84620  0.84200  0.37360  Biso   1.000  C
  C30      1.0000 0.79360  0.80670  0.39330  Biso   1.000  C
  C31      1.0000 0.80220  0.81230  0.43310  Biso   1.000  C
  C32      1.0000 0.87490  0.85400  0.43690  Biso   1.000  C
  C33      1.0000 0.91710  0.87490  0.47260  Biso   1.000  C
  C34      1.0000 0.99230  0.91430  0.47496  Biso   1.000  C
  C35      1.0000 0.04930  0.93160  0.50878  Biso   1.000  C
  C36      1.0000 0.11930  0.96700  0.49630  Biso   1.000  C
  C37      1.0000 0.10480  0.97100  0.45483  Biso   1.000  C
  C38      1.0000 0.87800  0.85310  0.51020  Biso   1.000  C
  C39      1.0000 0.90700  0.80420  0.52230  Biso   1.000  C
  C40      1.0000 0.86130  0.78570  0.55560  Biso   1.000  C
  C41      1.0000 0.77340  0.85890  0.57080  Biso   1.000  C
  C42      1.0000 0.81460  0.88050  0.53680  Biso   1.000  C
  C43      1.0000 0.33130  0.48980  0.64430  Biso   1.000  C
  C44      1.0000 0.29750  0.53650  0.65650  Biso   1.000  C
  C45      1.0000 0.38570  0.56630  0.65230  Biso   1.000  C
  C46      1.0000 0.46640  0.53850  0.63600  Biso   1.000  C
  C47      1.0000 0.57590  0.55440  0.62600  Biso   1.000  C
  C48      1.0000 0.65350  0.52350  0.60914  Biso   1.000  C
  C49      1.0000 0.76080  0.53850  0.59810  Biso   1.000  C
  C50      1.0000 0.81210  0.49800  0.58210  Biso   1.000  C
  C51      1.0000 0.73680  0.45970  0.58510  Biso   1.000  C
  C52      1.0000 0.60020  0.60660  0.63341  Biso   1.000  C
  C53      1.0000 0.55170  0.64420  0.61150  Biso   1.000  C
  C54      1.0000 0.58450  0.69230  0.61720  Biso   1.000  C
  C55      1.0000 0.70430  0.67030  0.66545  Biso   1.000  C
  C56      1.0000 0.68000  0.61910  0.66110  Biso   1.000  C
  C57      1.0000 0.65840  0.44900  0.68440  Biso   1.000  C
  C58      1.0000 0.66360  0.44160  0.72680  Biso   1.000  C
  C59      1.0000 0.57590  0.41470  0.73800  Biso   1.000  C
  C60      1.0000 0.51310  0.40540  0.70183  Biso   1.000  C
  C61      1.0000 0.42140  0.37880  0.69820  Biso   1.000  C
  C62      1.0000 0.36360  0.36900  0.66170  Biso   1.000  C
  C63      1.0000 0.27870  0.33640  0.65740  Biso   1.000  C
  C64      1.0000 0.24930  0.33850  0.61690  Biso   1.000  C
  C65      1.0000 0.32410  0.36910  0.59960  Biso   1.000  C
  C66      1.0000 0.37610  0.35630  0.73580  Biso   1.000  C
  C67      1.0000 0.27910  0.36840  0.75020  Biso   1.000  C
  C68      1.0000 0.24290  0.34600  0.78480  Biso   1.000  C
  C69      1.0000 0.39570  0.29990  0.78950  Biso   1.000  C
  C70      1.0000 0.43500  0.32060  0.75560  Biso   1.000  C
  C71      1.0000 0.65380  0.34200  0.62640  Biso   1.000  C
  C72      1.0000 0.70640  0.30670  0.60670  Biso   1.000  C
  C73      1.0000 0.69780  0.31230  0.56690  Biso   1.000  C
  C74      1.0000 0.62510  0.35400  0.56310  Biso   1.000  C
  C75      1.0000 0.58290  0.37490  0.52740  Biso   1.000  C
  C76      1.0000 0.50770  0.41430  0.52504  Biso   1.000  C
  C77      1.0000 0.45070  0.43160  0.49122  Biso   1.000  C
  C78      1.0000 0.38070  0.46700  0.50370  Biso   1.000  C
  C79      1.0000 0.39520  0.47100  0.54517  Biso   1.000  C
  C80      1.0000 0.62200  0.35310  0.48980  Biso   1.000  C
  C81      1.0000 0.59300  0.30420  0.47770  Biso   1.000  C
  C82      1.0000 0.63870  0.28570  0.44440  Biso   1.000  C
  C83      1.0000 0.72660  0.35890  0.42920  Biso   1.000  C
  C84      1.0000 0.68540  0.38050  0.46320  Biso   1.000  C
  C85      1.0000 0.66870  0.48980  0.14430  Biso   1.000  C
  C86      1.0000 0.70250  0.53650  0.15650  Biso   1.000  C
  C87      1.0000 0.61430  0.56630  0.15230  Biso   1.000  C
  C88      1.0000 0.53360  0.53850  0.13600  Biso   1.000  C
  C89      1.0000 0.42410  0.55440  0.12600  Biso   1.000  C
  C90      1.0000 0.34650  0.52350  0.10914  Biso   1.000  C
  C91      1.0000 0.23920  0.53850  0.09810  Biso   1.000  C
  C92      1.0000 0.18790  0.49800  0.08210  Biso   1.000  C
  C93      1.0000 0.26320  0.45970  0.08510  Biso   1.000  C
  C94      1.0000 0.39980  0.60660  0.13341  Biso   1.000  C
  C95      1.0000 0.44830  0.64420  0.11150  Biso   1.000  C
  C96      1.0000 0.41550  0.69230  0.11720  Biso   1.000  C
  C97      1.0000 0.29570  0.67030  0.16545  Biso   1.000  C
  C98      1.0000 0.32000  0.61910  0.16110  Biso   1.000  C
  C99      1.0000 0.34160  0.44900  0.18440  Biso   1.000  C
  C100     1.0000 0.33640  0.44160  0.22680  Biso   1.000  C
  C101     1.0000 0.42410  0.41470  0.23800  Biso   1.000  C
  C102     1.0000 0.48690  0.40540  0.20183  Biso   1.000  C
  C103     1.0000 0.57860  0.37880  0.19820  Biso   1.000  C
  C104     1.0000 0.63640  0.36900  0.16170  Biso   1.000  C
  C105     1.0000 0.72130  0.33640  0.15740  Biso   1.000  C
  C106     1.0000 0.75070  0.33850  0.11690  Biso   1.000  C
  C107     1.0000 0.67590  0.36910  0.09960  Biso   1.000  C
  C108     1.0000 0.62390  0.35630  0.23580  Biso   1.000  C
  C109     1.0000 0.72090  0.36840  0.25020  Biso   1.000  C
  C110     1.0000 0.75710  0.34600  0.28480  Biso   1.000  C
  C111     1.0000 0.60430  0.29990  0.28950  Biso   1.000  C
  C112     1.0000 0.56500  0.32060  0.25560  Biso   1.000  C
  C113     1.0000 0.34620  0.34200  0.12640  Biso   1.000  C
  C114     1.0000 0.29360  0.30670  0.10670  Biso   1.000  C
  C115     1.0000 0.30220  0.31230  0.06690  Biso   1.000  C
  C116     1.0000 0.37490  0.35400  0.06310  Biso   1.000  C
  C117     1.0000 0.41710  0.37490  0.02740  Biso   1.000  C
  C118     1.0000 0.49230  0.41430  0.02504  Biso   1.000  C
  C119     1.0000 0.54930  0.43160  0.99122  Biso   1.000  C
  C120     1.0000 0.61930  0.46700  0.00370  Biso   1.000  C
  C121     1.0000 0.60480  0.47100  0.04517  Biso   1.000  C
  C122     1.0000 0.37800  0.35310  0.98980  Biso   1.000  C
  C123     1.0000 0.40700  0.30420  0.97770  Biso   1.000  C
  C124     1.0000 0.36130  0.28570  0.94440  Biso   1.000  C
  C125     1.0000 0.27340  0.35890  0.92920  Biso   1.000  C
  C126     1.0000 0.31460  0.38050  0.96320  Biso   1.000  C
  C127     1.0000 0.83130  0.98980  0.85570  Biso   1.000  C
  C128     1.0000 0.79750  0.03650  0.84350  Biso   1.000  C
  C129     1.0000 0.88570  0.06630  0.84770  Biso   1.000  C
  C130     1.0000 0.96640  0.03850  0.86400  Biso   1.000  C
  C131     1.0000 0.07590  0.05440  0.87400  Biso   1.000  C
  C132     1.0000 0.15350  0.02350  0.89086  Biso   1.000  C
  C133     1.0000 0.26080  0.03850  0.90190  Biso   1.000  C
  C134     1.0000 0.31210  0.99800  0.91790  Biso   1.000  C
  C135     1.0000 0.23680  0.95970  0.91490  Biso   1.000  C
  C136     1.0000 0.10020  0.10660  0.86659  Biso   1.000  C
  C137     1.0000 0.05170  0.14420  0.88850  Biso   1.000  C
  C138     1.0000 0.08450  0.19230  0.88280  Biso   1.000  C
  C139     1.0000 0.20430  0.17030  0.83455  Biso   1.000  C
  C140     1.0000 0.18000  0.11910  0.83890  Biso   1.000  C
  C141     1.0000 0.15840  0.94900  0.81560  Biso   1.000  C
  C142     1.0000 0.16360  0.94160  0.77320  Biso   1.000  C
  C143     1.0000 0.07590  0.91470  0.76200  Biso   1.000  C
  C144     1.0000 0.01310  0.90540  0.79817  Biso   1.000  C
  C145     1.0000 0.92140  0.87880  0.80180  Biso   1.000  C
  C146     1.0000 0.86360  0.86900  0.83830  Biso   1.000  C
  C147     1.0000 0.77870  0.83640  0.84260  Biso   1.000  C
  C148     1.0000 0.74930  0.83850  0.88310  Biso   1.000  C
  C149     1.0000 0.82410  0.86910  0.90040  Biso   1.000  C
  C150     1.0000 0.87610  0.85630  0.76420  Biso   1.000  C
  C151     1.0000 0.77910  0.86840  0.74980  Biso   1.000  C
  C152     1.0000 0.74290  0.84600  0.71520  Biso   1.000  C
  C153     1.0000 0.89570  0.79990  0.71050  Biso   1.000  C
  C154     1.0000 0.93500  0.82060  0.74440  Biso   1.000  C
  C155     1.0000 0.15380  0.84200  0.87360  Biso   1.000  C
  C156     1.0000 0.20640  0.80670  0.89330  Biso   1.000  C
  C157     1.0000 0.19780  0.81230  0.93310  Biso   1.000  C
  C158     1.0000 0.12510  0.85400  0.93690  Biso   1.000  C
  C159     1.0000 0.08290  0.87490  0.97260  Biso   1.000  C
  C160     1.0000 0.00770  0.91430  0.97496  Biso   1.000  C
  C161     1.0000 0.95070  0.93160  0.00878  Biso   1.000  C
  C162     1.0000 0.88070  0.96700  0.99630  Biso   1.000  C
  C163     1.0000 0.89520  0.97100  0.95483  Biso   1.000  C
  C164     1.0000 0.12200  0.85310  0.01020  Biso   1.000  C
  C165     1.0000 0.09300  0.80420  0.02230  Biso   1.000  C
  C166     1.0000 0.13870  0.78570  0.05560  Biso   1.000  C
  C167     1.0000 0.22660  0.85890  0.07080  Biso   1.000  C
  C168     1.0000 0.18540  0.88050  0.03680  Biso   1.000  C
  N1       1.0000 0.06840  0.98913  0.36819  Biso   1.000  N
  N2       1.0000 0.86060  0.97398  0.39857  Biso   1.000  N
  N3       1.0000 0.83710  0.20495  0.35584  Biso   1.000  N
  N4       1.0000 0.92930  0.92770  0.33006  Biso   1.000  N
  N5       1.0000 0.10350  0.88805  0.37461  Biso   1.000  N
  N6       1.0000 0.20130  0.81220  0.19547  Biso   1.000  N
  N7       1.0000 0.89990  0.87178  0.39923  Biso   1.000  N
  N8       1.0000 0.02680  0.93881  0.44087  Biso   1.000  N
  N9       1.0000 0.79630  0.81240  0.58125  Biso   1.000  N
  N10      1.0000 0.43160  0.48913  0.63181  Biso   1.000  N
  N11      1.0000 0.63940  0.47398  0.60143  Biso   1.000  N
  N12      1.0000 0.66290  0.70495  0.64416  Biso   1.000  N
  N13      1.0000 0.57070  0.42770  0.66994  Biso   1.000  N
  N14      1.0000 0.39650  0.38805  0.62539  Biso   1.000  N
  N15      1.0000 0.29870  0.31220  0.80453  Biso   1.000  N
  N16      1.0000 0.60010  0.37178  0.60077  Biso   1.000  N
  N17      1.0000 0.47320  0.43881  0.55913  Biso   1.000  N
  N18      1.0000 0.70370  0.31240  0.41875  Biso   1.000  N
  N19      1.0000 0.56840  0.48913  0.13181  Biso   1.000  N
  N20      1.0000 0.36060  0.47398  0.10143  Biso   1.000  N
  N21      1.0000 0.33710  0.70495  0.14416  Biso   1.000  N
  N22      1.0000 0.42930  0.42770  0.16994  Biso   1.000  N
  N23      1.0000 0.60350  0.38805  0.12539  Biso   1.000  N
  N24      1.0000 0.70130  0.31220  0.30453  Biso   1.000  N
  N25      1.0000 0.39990  0.37178  0.10077  Biso   1.000  N
  N26      1.0000 0.52680  0.43881  0.05913  Biso   1.000  N
  N27      1.0000 0.29630  0.31240  0.91875  Biso   1.000  N
  N28      1.0000 0.93160  0.98913  0.86819  Biso   1.000  N
  N29      1.0000 0.13940  0.97398  0.89857  Biso   1.000  N
  N30      1.0000 0.16290  0.20495  0.85584  Biso   1.000  N
  N31      1.0000 0.07070  0.92770  0.83006  Biso   1.000  N
  N32      1.0000 0.89650  0.88805  0.87461  Biso   1.000  N
  N33      1.0000 0.79870  0.81220  0.69547  Biso   1.000  N
  N34      1.0000 0.10010  0.87178  0.89923  Biso   1.000  N
  N35      1.0000 0.97320  0.93881  0.94087  Biso   1.000  N
  N36      1.0000 0.20370  0.81240  0.08125  Biso   1.000  N
  Fe5      1.0000 0.51802  0.56826  0.88561  Biso   1.000  Fe
  Fe6      1.0000 0.98198  0.06826  0.11439  Biso   1.000  Fe
  Fe7      1.0000 0.01802  0.06826  0.61439  Biso   1.000  Fe
  Fe8      1.0000 0.48198  0.56826  0.38561  Biso   1.000  Fe
  Ag5      1.0000 0.73905  0.22073  0.86156  Biso   1.000  Ag
  Ag6      1.0000 0.76095  0.72073  0.13844  Biso   1.000  Ag
  Ag7      1.0000 0.23905  0.72073  0.63844  Biso   1.000  Ag
  Ag8      1.0000 0.26095  0.22073  0.36156  Biso   1.000  Ag
  H121     1.0000 0.28610  0.53870  0.85500  Biso   1.000  H
  H122     1.0000 0.22740  0.45430  0.83420  Biso   1.000  H
  H123     1.0000 0.39010  0.39970  0.84050  Biso   1.000  H
  H124     1.0000 0.79100  0.42930  0.89870  Biso   1.000  H
  H125     1.0000 0.88340  0.50360  0.92870  Biso   1.000  H
  H126     1.0000 0.75140  0.57320  0.92340  Biso   1.000  H
  H127     1.0000 0.49620  0.36330  0.90730  Biso   1.000  H
  H128     1.0000 0.55130  0.28220  0.89810  Biso   1.000  H
  H129     1.0000 0.75490  0.32050  0.81440  Biso   1.000  H
  H130     1.0000 0.71640  0.40550  0.82360  Biso   1.000  H
  H131     1.0000 0.71060  0.53330  0.83090  Biso   1.000  H
  H132     1.0000 0.71910  0.54650  0.75600  Biso   1.000  H
  H133     1.0000 0.55870  0.59600  0.73570  Biso   1.000  H
  H134     1.0000 0.24660  0.68350  0.82240  Biso   1.000  H
  H135     1.0000 0.19010  0.67790  0.89570  Biso   1.000  H
  H136     1.0000 0.32490  0.62370  0.92820  Biso   1.000  H
  H137     1.0000 0.23510  0.60790  0.76320  Biso   1.000  H
  H138     1.0000 0.17390  0.64450  0.70500  Biso   1.000  H
  H139     1.0000 0.43840  0.72420  0.69690  Biso   1.000  H
  H140     1.0000 0.50350  0.68960  0.75450  Biso   1.000  H
  H141     1.0000 0.65400  0.65430  0.84540  Biso   1.000  H
  H142     1.0000 0.74540  0.71940  0.88080  Biso   1.000  H
  H143     1.0000 0.73130  0.70660  0.95360  Biso   1.000  H
  H144     1.0000 0.45980  0.57960  0.03550  Biso   1.000  H
  H145     1.0000 0.33160  0.51450  0.01240  Biso   1.000  H
  H146     1.0000 0.35570  0.50670  0.93830  Biso   1.000  H
  H147     1.0000 0.54260  0.71490  0.00720  Biso   1.000  H
  H148     1.0000 0.62520  0.74810  0.06190  Biso   1.000  H
  H149     1.0000 0.77310  0.62210  0.08750  Biso   1.000  H
  H150     1.0000 0.70030  0.58560  0.03130  Biso   1.000  H
  H151     1.0000 0.21390  0.03870  0.14500  Biso   1.000  H
  H152     1.0000 0.27260  0.95430  0.16580  Biso   1.000  H
  H153     1.0000 0.10990  0.89970  0.15950  Biso   1.000  H
  H154     1.0000 0.70900  0.92930  0.10130  Biso   1.000  H
  H155     1.0000 0.61660  0.00360  0.07130  Biso   1.000  H
  H156     1.0000 0.74860  0.07320  0.07660  Biso   1.000  H
  H157     1.0000 0.00380  0.86330  0.09270  Biso   1.000  H
  H158     1.0000 0.94870  0.78220  0.10190  Biso   1.000  H
  H159     1.0000 0.74510  0.82050  0.18560  Biso   1.000  H
  H160     1.0000 0.78360  0.90550  0.17640  Biso   1.000  H
  H161     1.0000 0.78940  0.03330  0.16910  Biso   1.000  H
  H162     1.0000 0.78090  0.04650  0.24400  Biso   1.000  H
  H163     1.0000 0.94130  0.09600  0.26430  Biso   1.000  H
  H164     1.0000 0.25340  0.18350  0.17760  Biso   1.000  H
  H165     1.0000 0.30990  0.17790  0.10430  Biso   1.000  H
  H166     1.0000 0.17510  0.12370  0.07180  Biso   1.000  H
  H167     1.0000 0.26490  0.10790  0.23680  Biso   1.000  H
  H168     1.0000 0.32610  0.14450  0.29500  Biso   1.000  H
  H169     1.0000 0.06160  0.22420  0.30310  Biso   1.000  H
  H170     1.0000 0.99650  0.18960  0.24550  Biso   1.000  H
  H171     1.0000 0.84600  0.15430  0.15460  Biso   1.000  H
  H172     1.0000 0.75460  0.21940  0.11920  Biso   1.000  H
  H173     1.0000 0.76870  0.20660  0.04640  Biso   1.000  H
  H174     1.0000 0.04020  0.07960  0.96450  Biso   1.000  H
  H175     1.0000 0.16840  0.01450  0.98760  Biso   1.000  H
  H176     1.0000 0.14430  0.00670  0.06170  Biso   1.000  H
  H177     1.0000 0.95740  0.21490  0.99280  Biso   1.000  H
  H178     1.0000 0.87480  0.24810  0.93810  Biso   1.000  H
  H179     1.0000 0.72690  0.12210  0.91250  Biso   1.000  H
  H180     1.0000 0.79970  0.08560  0.96870  Biso   1.000  H
  H181     1.0000 0.78610  0.03870  0.64500  Biso   1.000  H
  H182     1.0000 0.72740  0.95430  0.66580  Biso   1.000  H
  H183     1.0000 0.89010  0.89970  0.65950  Biso   1.000  H
  H184     1.0000 0.29100  0.92930  0.60130  Biso   1.000  H
  H185     1.0000 0.38340  0.00360  0.57130  Biso   1.000  H
  H186     1.0000 0.25140  0.07320  0.57660  Biso   1.000  H
  H187     1.0000 0.99620  0.86330  0.59270  Biso   1.000  H
  H188     1.0000 0.05130  0.78220  0.60190  Biso   1.000  H
  H189     1.0000 0.25490  0.82050  0.68560  Biso   1.000  H
  H190     1.0000 0.21640  0.90550  0.67640  Biso   1.000  H
  H191     1.0000 0.21060  0.03330  0.66910  Biso   1.000  H
  H192     1.0000 0.21910  0.04650  0.74400  Biso   1.000  H
  H193     1.0000 0.05870  0.09600  0.76430  Biso   1.000  H
  H194     1.0000 0.74660  0.18350  0.67760  Biso   1.000  H
  H195     1.0000 0.69010  0.17790  0.60430  Biso   1.000  H
  H196     1.0000 0.82490  0.12370  0.57180  Biso   1.000  H
  H197     1.0000 0.73510  0.10790  0.73680  Biso   1.000  H
  H198     1.0000 0.67390  0.14450  0.79500  Biso   1.000  H
  H199     1.0000 0.93840  0.22420  0.80310  Biso   1.000  H
  H200     1.0000 0.00350  0.18960  0.74550  Biso   1.000  H
  H201     1.0000 0.15400  0.15430  0.65460  Biso   1.000  H
  H202     1.0000 0.24540  0.21940  0.61920  Biso   1.000  H
  H203     1.0000 0.23130  0.20660  0.54640  Biso   1.000  H
  H204     1.0000 0.95980  0.07960  0.46450  Biso   1.000  H
  H205     1.0000 0.83160  0.01450  0.48760  Biso   1.000  H
  H206     1.0000 0.85570  0.00670  0.56170  Biso   1.000  H
  H207     1.0000 0.04260  0.21490  0.49280  Biso   1.000  H
  H208     1.0000 0.12520  0.24810  0.43810  Biso   1.000  H
  H209     1.0000 0.27310  0.12210  0.41250  Biso   1.000  H
  H210     1.0000 0.20030  0.08560  0.46870  Biso   1.000  H
  H211     1.0000 0.71390  0.53870  0.35500  Biso   1.000  H
  H212     1.0000 0.77260  0.45430  0.33420  Biso   1.000  H
  H213     1.0000 0.60990  0.39970  0.34050  Biso   1.000  H
  H214     1.0000 0.20900  0.42930  0.39870  Biso   1.000  H
  H215     1.0000 0.11660  0.50360  0.42870  Biso   1.000  H
  H216     1.0000 0.24860  0.57320  0.42340  Biso   1.000  H
  H217     1.0000 0.50380  0.36330  0.40730  Biso   1.000  H
  H218     1.0000 0.44870  0.28220  0.39810  Biso   1.000  H
  H219     1.0000 0.24510  0.32050  0.31440  Biso   1.000  H
  H220     1.0000 0.28360  0.40550  0.32360  Biso   1.000  H
  H221     1.0000 0.28940  0.53330  0.33090  Biso   1.000  H
  H222     1.0000 0.28090  0.54650  0.25600  Biso   1.000  H
  H223     1.0000 0.44130  0.59600  0.23570  Biso   1.000  H
  H224     1.0000 0.75340  0.68350  0.32240  Biso   1.000  H
  H225     1.0000 0.80990  0.67790  0.39570  Biso   1.000  H
  H226     1.0000 0.67510  0.62370  0.42820  Biso   1.000  H
  H227     1.0000 0.76490  0.60790  0.26320  Biso   1.000  H
  H228     1.0000 0.82610  0.64450  0.20500  Biso   1.000  H
  H229     1.0000 0.56160  0.72420  0.19690  Biso   1.000  H
  H230     1.0000 0.49650  0.68960  0.25450  Biso   1.000  H
  H231     1.0000 0.34600  0.65430  0.34540  Biso   1.000  H
  H232     1.0000 0.25460  0.71940  0.38080  Biso   1.000  H
  H233     1.0000 0.26870  0.70660  0.45360  Biso   1.000  H
  H234     1.0000 0.54020  0.57960  0.53550  Biso   1.000  H
  H235     1.0000 0.66840  0.51450  0.51240  Biso   1.000  H
  H236     1.0000 0.64430  0.50670  0.43830  Biso   1.000  H
  H237     1.0000 0.45740  0.71490  0.50720  Biso   1.000  H
  H238     1.0000 0.37480  0.74810  0.56190  Biso   1.000  H
  H239     1.0000 0.22690  0.62210  0.58750  Biso   1.000  H
  H240     1.0000 0.29970  0.58560  0.53130  Biso   1.000  H
  C169     1.0000 0.33130  0.51020  0.85570  Biso   1.000  C
  C170     1.0000 0.29750  0.46350  0.84350  Biso   1.000  C
  C171     1.0000 0.38570  0.43370  0.84770  Biso   1.000  C
  C172     1.0000 0.46640  0.46150  0.86400  Biso   1.000  C
  C173     1.0000 0.57590  0.44560  0.87400  Biso   1.000  C
  C174     1.0000 0.65350  0.47650  0.89086  Biso   1.000  C
  C175     1.0000 0.76080  0.46150  0.90190  Biso   1.000  C
  C176     1.0000 0.81210  0.50200  0.91790  Biso   1.000  C
  C177     1.0000 0.73680  0.54030  0.91490  Biso   1.000  C
  C178     1.0000 0.60020  0.39340  0.86659  Biso   1.000  C
  C179     1.0000 0.55170  0.35580  0.88850  Biso   1.000  C
  C180     1.0000 0.58450  0.30770  0.88280  Biso   1.000  C
  C181     1.0000 0.70430  0.32970  0.83455  Biso   1.000  C
  C182     1.0000 0.68000  0.38090  0.83890  Biso   1.000  C
  C183     1.0000 0.65840  0.55100  0.81560  Biso   1.000  C
  C184     1.0000 0.66360  0.55840  0.77320  Biso   1.000  C
  C185     1.0000 0.57590  0.58530  0.76200  Biso   1.000  C
  C186     1.0000 0.51310  0.59460  0.79817  Biso   1.000  C
  C187     1.0000 0.42140  0.62120  0.80180  Biso   1.000  C
  C188     1.0000 0.36360  0.63100  0.83830  Biso   1.000  C
  C189     1.0000 0.27870  0.66360  0.84260  Biso   1.000  C
  C190     1.0000 0.24930  0.66150  0.88310  Biso   1.000  C
  C191     1.0000 0.32410  0.63090  0.90040  Biso   1.000  C
  C192     1.0000 0.37610  0.64370  0.76420  Biso   1.000  C
  C193     1.0000 0.27910  0.63160  0.74980  Biso   1.000  C
  C194     1.0000 0.24290  0.65400  0.71520  Biso   1.000  C
  C195     1.0000 0.39570  0.70010  0.71050  Biso   1.000  C
  C196     1.0000 0.43500  0.67940  0.74440  Biso   1.000  C
  C197     1.0000 0.65380  0.65800  0.87360  Biso   1.000  C
  C198     1.0000 0.70640  0.69330  0.89330  Biso   1.000  C
  C199     1.0000 0.69780  0.68770  0.93310  Biso   1.000  C
  C200     1.0000 0.62510  0.64600  0.93690  Biso   1.000  C
  C201     1.0000 0.58290  0.62510  0.97260  Biso   1.000  C
  C202     1.0000 0.50770  0.58570  0.97496  Biso   1.000  C
  C203     1.0000 0.45070  0.56840  0.00878  Biso   1.000  C
  C204     1.0000 0.38070  0.53300  0.99630  Biso   1.000  C
  C205     1.0000 0.39520  0.52900  0.95483  Biso   1.000  C
  C206     1.0000 0.62200  0.64690  0.01020  Biso   1.000  C
  C207     1.0000 0.59300  0.69580  0.02230  Biso   1.000  C
  C208     1.0000 0.63870  0.71430  0.05560  Biso   1.000  C
  C209     1.0000 0.72660  0.64110  0.07080  Biso   1.000  C
  C210     1.0000 0.68540  0.61950  0.03680  Biso   1.000  C
  C211     1.0000 0.16870  0.01020  0.14430  Biso   1.000  C
  C212     1.0000 0.20250  0.96350  0.15650  Biso   1.000  C
  C213     1.0000 0.11430  0.93370  0.15230  Biso   1.000  C
  C214     1.0000 0.03360  0.96150  0.13600  Biso   1.000  C
  C215     1.0000 0.92410  0.94560  0.12600  Biso   1.000  C
  C216     1.0000 0.84650  0.97650  0.10914  Biso   1.000  C
  C217     1.0000 0.73920  0.96150  0.09810  Biso   1.000  C
  C218     1.0000 0.68790  0.00200  0.08210  Biso   1.000  C
  C219     1.0000 0.76320  0.04030  0.08510  Biso   1.000  C
  C220     1.0000 0.89980  0.89340  0.13341  Biso   1.000  C
  C221     1.0000 0.94830  0.85580  0.11150  Biso   1.000  C
  C222     1.0000 0.91550  0.80770  0.11720  Biso   1.000  C
  C223     1.0000 0.79570  0.82970  0.16545  Biso   1.000  C
  C224     1.0000 0.82000  0.88090  0.16110  Biso   1.000  C
  C225     1.0000 0.84160  0.05100  0.18440  Biso   1.000  C
  C226     1.0000 0.83640  0.05840  0.22680  Biso   1.000  C
  C227     1.0000 0.92410  0.08530  0.23800  Biso   1.000  C
  C228     1.0000 0.98690  0.09460  0.20183  Biso   1.000  C
  C229     1.0000 0.07860  0.12120  0.19820  Biso   1.000  C
  C230     1.0000 0.13640  0.13100  0.16170  Biso   1.000  C
  C231     1.0000 0.22130  0.16360  0.15740  Biso   1.000  C
  C232     1.0000 0.25070  0.16150  0.11690  Biso   1.000  C
  C233     1.0000 0.17590  0.13090  0.09960  Biso   1.000  C
  C234     1.0000 0.12390  0.14370  0.23580  Biso   1.000  C
  C235     1.0000 0.22090  0.13160  0.25020  Biso   1.000  C
  C236     1.0000 0.25710  0.15400  0.28480  Biso   1.000  C
  C237     1.0000 0.10430  0.20010  0.28950  Biso   1.000  C
  C238     1.0000 0.06500  0.17940  0.25560  Biso   1.000  C
  C239     1.0000 0.84620  0.15800  0.12640  Biso   1.000  C
  C240     1.0000 0.79360  0.19330  0.10670  Biso   1.000  C
  C241     1.0000 0.80220  0.18770  0.06690  Biso   1.000  C
  C242     1.0000 0.87490  0.14600  0.06310  Biso   1.000  C
  C243     1.0000 0.91710  0.12510  0.02740  Biso   1.000  C
  C244     1.0000 0.99230  0.08570  0.02504  Biso   1.000  C
  C245     1.0000 0.04930  0.06840  0.99122  Biso   1.000  C
  C246     1.0000 0.11930  0.03300  0.00370  Biso   1.000  C
  C247     1.0000 0.10480  0.02900  0.04517  Biso   1.000  C
  C248     1.0000 0.87800  0.14690  0.98980  Biso   1.000  C
  C249     1.0000 0.90700  0.19580  0.97770  Biso   1.000  C
  C250     1.0000 0.86130  0.21430  0.94440  Biso   1.000  C
  C251     1.0000 0.77340  0.14110  0.92920  Biso   1.000  C
  C252     1.0000 0.81460  0.11950  0.96320  Biso   1.000  C
  C253     1.0000 0.83130  0.01020  0.64430  Biso   1.000  C
  C254     1.0000 0.79750  0.96350  0.65650  Biso   1.000  C
  C255     1.0000 0.88570  0.93370  0.65230  Biso   1.000  C
  C256     1.0000 0.96640  0.96150  0.63600  Biso   1.000  C
  C257     1.0000 0.07590  0.94560  0.62600  Biso   1.000  C
  C258     1.0000 0.15350  0.97650  0.60914  Biso   1.000  C
  C259     1.0000 0.26080  0.96150  0.59810  Biso   1.000  C
  C260     1.0000 0.31210  0.00200  0.58210  Biso   1.000  C
  C261     1.0000 0.23680  0.04030  0.58510  Biso   1.000  C
  C262     1.0000 0.10020  0.89340  0.63341  Biso   1.000  C
  C263     1.0000 0.05170  0.85580  0.61150  Biso   1.000  C
  C264     1.0000 0.08450  0.80770  0.61720  Biso   1.000  C
  C265     1.0000 0.20430  0.82970  0.66545  Biso   1.000  C
  C266     1.0000 0.18000  0.88090  0.66110  Biso   1.000  C
  C267     1.0000 0.15840  0.05100  0.68440  Biso   1.000  C
  C268     1.0000 0.16360  0.05840  0.72680  Biso   1.000  C
  C269     1.0000 0.07590  0.08530  0.73800  Biso   1.000  C
  C270     1.0000 0.01310  0.09460  0.70183  Biso   1.000  C
  C271     1.0000 0.92140  0.12120  0.69820  Biso   1.000  C
  C272     1.0000 0.86360  0.13100  0.66170  Biso   1.000  C
  C273     1.0000 0.77870  0.16360  0.65740  Biso   1.000  C
  C274     1.0000 0.74930  0.16150  0.61690  Biso   1.000  C
  C275     1.0000 0.82410  0.13090  0.59960  Biso   1.000  C
  C276     1.0000 0.87610  0.14370  0.73580  Biso   1.000  C
  C277     1.0000 0.77910  0.13160  0.75020  Biso   1.000  C
  C278     1.0000 0.74290  0.15400  0.78480  Biso   1.000  C
  C279     1.0000 0.89570  0.20010  0.78950  Biso   1.000  C
  C280     1.0000 0.93500  0.17940  0.75560  Biso   1.000  C
  C281     1.0000 0.15380  0.15800  0.62640  Biso   1.000  C
  C282     1.0000 0.20640  0.19330  0.60670  Biso   1.000  C
  C283     1.0000 0.19780  0.18770  0.56690  Biso   1.000  C
  C284     1.0000 0.12510  0.14600  0.56310  Biso   1.000  C
  C285     1.0000 0.08290  0.12510  0.52740  Biso   1.000  C
  C286     1.0000 0.00770  0.08570  0.52504  Biso   1.000  C
  C287     1.0000 0.95070  0.06840  0.49122  Biso   1.000  C
  C288     1.0000 0.88070  0.03300  0.50370  Biso   1.000  C
  C289     1.0000 0.89520  0.02900  0.54517  Biso   1.000  C
  C290     1.0000 0.12200  0.14690  0.48980  Biso   1.000  C
  C291     1.0000 0.09300  0.19580  0.47770  Biso   1.000  C
  C292     1.0000 0.13870  0.21430  0.44440  Biso   1.000  C
  C293     1.0000 0.22660  0.14110  0.42920  Biso   1.000  C
  C294     1.0000 0.18540  0.11950  0.46320  Biso   1.000  C
  C295     1.0000 0.66870  0.51020  0.35570  Biso   1.000  C
  C296     1.0000 0.70250  0.46350  0.34350  Biso   1.000  C
  C297     1.0000 0.61430  0.43370  0.34770  Biso   1.000  C
  C298     1.0000 0.53360  0.46150  0.36400  Biso   1.000  C
  C299     1.0000 0.42410  0.44560  0.37400  Biso   1.000  C
  C300     1.0000 0.34650  0.47650  0.39086  Biso   1.000  C
  C301     1.0000 0.23920  0.46150  0.40190  Biso   1.000  C
  C302     1.0000 0.18790  0.50200  0.41790  Biso   1.000  C
  C303     1.0000 0.26320  0.54030  0.41490  Biso   1.000  C
  C304     1.0000 0.39980  0.39340  0.36659  Biso   1.000  C
  C305     1.0000 0.44830  0.35580  0.38850  Biso   1.000  C
  C306     1.0000 0.41550  0.30770  0.38280  Biso   1.000  C
  C307     1.0000 0.29570  0.32970  0.33455  Biso   1.000  C
  C308     1.0000 0.32000  0.38090  0.33890  Biso   1.000  C
  C309     1.0000 0.34160  0.55100  0.31560  Biso   1.000  C
  C310     1.0000 0.33640  0.55840  0.27320  Biso   1.000  C
  C311     1.0000 0.42410  0.58530  0.26200  Biso   1.000  C
  C312     1.0000 0.48690  0.59460  0.29817  Biso   1.000  C
  C313     1.0000 0.57860  0.62120  0.30180  Biso   1.000  C
  C314     1.0000 0.63640  0.63100  0.33830  Biso   1.000  C
  C315     1.0000 0.72130  0.66360  0.34260  Biso   1.000  C
  C316     1.0000 0.75070  0.66150  0.38310  Biso   1.000  C
  C317     1.0000 0.67590  0.63090  0.40040  Biso   1.000  C
  C318     1.0000 0.62390  0.64370  0.26420  Biso   1.000  C
  C319     1.0000 0.72090  0.63160  0.24980  Biso   1.000  C
  C320     1.0000 0.75710  0.65400  0.21520  Biso   1.000  C
  C321     1.0000 0.60430  0.70010  0.21050  Biso   1.000  C
  C322     1.0000 0.56500  0.67940  0.24440  Biso   1.000  C
  C323     1.0000 0.34620  0.65800  0.37360  Biso   1.000  C
  C324     1.0000 0.29360  0.69330  0.39330  Biso   1.000  C
  C325     1.0000 0.30220  0.68770  0.43310  Biso   1.000  C
  C326     1.0000 0.37490  0.64600  0.43690  Biso   1.000  C
  C327     1.0000 0.41710  0.62510  0.47260  Biso   1.000  C
  C328     1.0000 0.49230  0.58570  0.47496  Biso   1.000  C
  C329     1.0000 0.54930  0.56840  0.50878  Biso   1.000  C
  C330     1.0000 0.61930  0.53300  0.49630  Biso   1.000  C
  C331     1.0000 0.60480  0.52900  0.45483  Biso   1.000  C
  C332     1.0000 0.37800  0.64690  0.51020  Biso   1.000  C
  C333     1.0000 0.40700  0.69580  0.52230  Biso   1.000  C
  C334     1.0000 0.36130  0.71430  0.55560  Biso   1.000  C
  C335     1.0000 0.27340  0.64110  0.57080  Biso   1.000  C
  C336     1.0000 0.31460  0.61950  0.53680  Biso   1.000  C
  N37      1.0000 0.43160  0.51087  0.86819  Biso   1.000  N
  N38      1.0000 0.63940  0.52602  0.89857  Biso   1.000  N
  N39      1.0000 0.66290  0.29505  0.85584  Biso   1.000  N
  N40      1.0000 0.57070  0.57230  0.83006  Biso   1.000  N
  N41      1.0000 0.39650  0.61195  0.87461  Biso   1.000  N
  N42      1.0000 0.29870  0.68780  0.69547  Biso   1.000  N
  N43      1.0000 0.60010  0.62822  0.89923  Biso   1.000  N
  N44      1.0000 0.47320  0.56119  0.94087  Biso   1.000  N
  N45      1.0000 0.70370  0.68760  0.08125  Biso   1.000  N
  N46      1.0000 0.06840  0.01087  0.13181  Biso   1.000  N
  N47      1.0000 0.86060  0.02602  0.10143  Biso   1.000  N
  N48      1.0000 0.83710  0.79505  0.14416  Biso   1.000  N
  N49      1.0000 0.92930  0.07230  0.16994  Biso   1.000  N
  N50      1.0000 0.10350  0.11195  0.12539  Biso   1.000  N
  N51      1.0000 0.20130  0.18780  0.30453  Biso   1.000  N
  N52      1.0000 0.89990  0.12822  0.10077  Biso   1.000  N
  N53      1.0000 0.02680  0.06119  0.05913  Biso   1.000  N
  N54      1.0000 0.79630  0.18760  0.91875  Biso   1.000  N
  N55      1.0000 0.93160  0.01087  0.63181  Biso   1.000  N
  N56      1.0000 0.13940  0.02602  0.60143  Biso   1.000  N
  N57      1.0000 0.16290  0.79505  0.64416  Biso   1.000  N
  N58      1.0000 0.07070  0.07230  0.66994  Biso   1.000  N
  N59      1.0000 0.89650  0.11195  0.62539  Biso   1.000  N
  N60      1.0000 0.79870  0.18780  0.80453  Biso   1.000  N
  N61      1.0000 0.10010  0.12822  0.60077  Biso   1.000  N
  N62      1.0000 0.97320  0.06119  0.55913  Biso   1.000  N
  N63      1.0000 0.20370  0.18760  0.41875  Biso   1.000  N
  N64      1.0000 0.56840  0.51087  0.36819  Biso   1.000  N
  N65      1.0000 0.36060  0.52602  0.39857  Biso   1.000  N
  N66      1.0000 0.33710  0.29505  0.35584  Biso   1.000  N
  N67      1.0000 0.42930  0.57230  0.33006  Biso   1.000  N
  N68      1.0000 0.60350  0.61195  0.37461  Biso   1.000  N
  N69      1.0000 0.70130  0.68780  0.19547  Biso   1.000  N
  N70      1.0000 0.39990  0.62822  0.39923  Biso   1.000  N
  N71      1.0000 0.52680  0.56119  0.44087  Biso   1.000  N
  N72      1.0000 0.29630  0.68760  0.58125  Biso   1.000  N
