data_image0
_cell_length_a       24.427
_cell_length_b       24.427
_cell_length_c       24.427
_cell_angle_alpha    90
_cell_angle_beta     90
_cell_angle_gamma    90

_symmetry_space_group_name_H-M    "P 1"
_symmetry_int_tables_number       1

loop_
  _symmetry_equiv_pos_as_xyz
  'x, y, z'

loop_
  _atom_site_label
  _atom_site_occupancy
  _atom_site_fract_x
  _atom_site_fract_y
  _atom_site_fract_z
  _atom_site_thermal_displace_type
  _atom_site_B_iso_or_equiv
  _atom_site_type_symbol
  Cu1      1.0000 0.05912  0.21592  0.38543  Biso   1.000  Cu
  Cu2      1.0000 0.14849  0.20257  0.48689  Biso   1.000  Cu
  O1       1.0000 0.83018  0.05669  0.37102  Biso   1.000  O
  O2       1.0000 0.07903  0.18629  0.45479  Biso   1.000  O
  O3       1.0000 0.98236  0.19405  0.39290  Biso   1.000  O
  O4       1.0000 0.71072  0.25755  0.48015  Biso   1.000  O
  O5       1.0000 0.76742  0.32553  0.45656  Biso   1.000  O
  O6       1.0000 0.96143  0.27640  0.42640  Biso   1.000  O
  O7       1.0000 0.75250  0.07340  0.41220  Biso   1.000  O
  N1       1.0000 0.13800  0.22640  0.37199  Biso   1.000  N
  N2       1.0000 0.17311  0.22340  0.41436  Biso   1.000  N
  C1       1.0000 0.16700  0.23160  0.32590  Biso   1.000  C
  H1       1.0000 0.15230  0.23490  0.29090  Biso   1.000  H
  C2       1.0000 0.22400  0.22660  0.39410  Biso   1.000  C
  H2       1.0000 0.25590  0.22580  0.41490  Biso   1.000  H
  C3       1.0000 0.88960  0.21210  0.41740  Biso   1.000  C
  C4       1.0000 0.22210  0.23140  0.33810  Biso   1.000  C
  H3       1.0000 0.25130  0.23390  0.31380  Biso   1.000  H
  C5       1.0000 0.75510  0.27610  0.46150  Biso   1.000  C
  C6       1.0000 0.79810  0.08800  0.39830  Biso   1.000  C
  C7       1.0000 0.81900  0.14350  0.41260  Biso   1.000  C
  C8       1.0000 0.79710  0.23460  0.44350  Biso   1.000  C
  C9       1.0000 0.94850  0.22960  0.41170  Biso   1.000  C
  C10      1.0000 0.87280  0.15850  0.40520  Biso   1.000  C
  H4       1.0000 0.89810  0.13320  0.39210  Biso   1.000  H
  C11      1.0000 0.85090  0.24980  0.43600  Biso   1.000  C
  H5       1.0000 0.86160  0.28560  0.44340  Biso   1.000  H
  C12      1.0000 0.78090  0.18120  0.43230  Biso   1.000  C
  H6       1.0000 0.74480  0.17060  0.43810  Biso   1.000  H
  Cu3      1.0000 0.44088  0.78408  0.88543  Biso   1.000  Cu
  Cu4      1.0000 0.35151  0.79743  0.98689  Biso   1.000  Cu
  O8       1.0000 0.66982  0.94331  0.87102  Biso   1.000  O
  O9       1.0000 0.42097  0.81371  0.95479  Biso   1.000  O
  O10      1.0000 0.51764  0.80595  0.89290  Biso   1.000  O
  O11      1.0000 0.78928  0.74245  0.98015  Biso   1.000  O
  O12      1.0000 0.73258  0.67447  0.95656  Biso   1.000  O
  O13      1.0000 0.53857  0.72360  0.92640  Biso   1.000  O
  O14      1.0000 0.74750  0.92660  0.91220  Biso   1.000  O
  N3       1.0000 0.36200  0.77360  0.87199  Biso   1.000  N
  N4       1.0000 0.32689  0.77660  0.91436  Biso   1.000  N
  C13      1.0000 0.33300  0.76840  0.82590  Biso   1.000  C
  H7       1.0000 0.34770  0.76510  0.79090  Biso   1.000  H
  C14      1.0000 0.27600  0.77340  0.89410  Biso   1.000  C
  H8       1.0000 0.24410  0.77420  0.91490  Biso   1.000  H
  C15      1.0000 0.61040  0.78790  0.91740  Biso   1.000  C
  C16      1.0000 0.27790  0.76860  0.83810  Biso   1.000  C
  H9       1.0000 0.24870  0.76610  0.81380  Biso   1.000  H
  C17      1.0000 0.74490  0.72390  0.96150  Biso   1.000  C
  C18      1.0000 0.70190  0.91200  0.89830  Biso   1.000  C
  C19      1.0000 0.68100  0.85650  0.91260  Biso   1.000  C
  C20      1.0000 0.70290  0.76540  0.94350  Biso   1.000  C
  C21      1.0000 0.55150  0.77040  0.91170  Biso   1.000  C
  C22      1.0000 0.62720  0.84150  0.90520  Biso   1.000  C
  H10      1.0000 0.60190  0.86680  0.89210  Biso   1.000  H
  C23      1.0000 0.64910  0.75020  0.93600  Biso   1.000  C
  H11      1.0000 0.63840  0.71440  0.94340  Biso   1.000  H
  C24      1.0000 0.71910  0.81880  0.93230  Biso   1.000  C
  H12      1.0000 0.75520  0.82940  0.93810  Biso   1.000  H
  Cu5      1.0000 0.94088  0.71592  0.11457  Biso   1.000  Cu
  Cu6      1.0000 0.85151  0.70257  0.01311  Biso   1.000  Cu
  O15      1.0000 0.16982  0.55669  0.12898  Biso   1.000  O
  O16      1.0000 0.92097  0.68629  0.04521  Biso   1.000  O
  O17      1.0000 0.01764  0.69405  0.10710  Biso   1.000  O
  O18      1.0000 0.28928  0.75755  0.01985  Biso   1.000  O
  O19      1.0000 0.23258  0.82553  0.04344  Biso   1.000  O
  O20      1.0000 0.03857  0.77640  0.07360  Biso   1.000  O
  O21      1.0000 0.24750  0.57340  0.08780  Biso   1.000  O
  N5       1.0000 0.86200  0.72640  0.12801  Biso   1.000  N
  N6       1.0000 0.82689  0.72340  0.08564  Biso   1.000  N
  C25      1.0000 0.83300  0.73160  0.17410  Biso   1.000  C
  H13      1.0000 0.84770  0.73490  0.20910  Biso   1.000  H
  C26      1.0000 0.77600  0.72660  0.10590  Biso   1.000  C
  H14      1.0000 0.74410  0.72580  0.08510  Biso   1.000  H
  C27      1.0000 0.11040  0.71210  0.08260  Biso   1.000  C
  C28      1.0000 0.77790  0.73140  0.16190  Biso   1.000  C
  H15      1.0000 0.74870  0.73390  0.18620  Biso   1.000  H
  C29      1.0000 0.24490  0.77610  0.03850  Biso   1.000  C
  C30      1.0000 0.20190  0.58800  0.10170  Biso   1.000  C
  C31      1.0000 0.18100  0.64350  0.08740  Biso   1.000  C
  C32      1.0000 0.20290  0.73460  0.05650  Biso   1.000  C
  C33      1.0000 0.05150  0.72960  0.08830  Biso   1.000  C
  C34      1.0000 0.12720  0.65850  0.09480  Biso   1.000  C
  H16      1.0000 0.10190  0.63320  0.10790  Biso   1.000  H
  C35      1.0000 0.14910  0.74980  0.06400  Biso   1.000  C
  H17      1.0000 0.13840  0.78560  0.05660  Biso   1.000  H
  C36      1.0000 0.21910  0.68120  0.06770  Biso   1.000  C
  H18      1.0000 0.25520  0.67060  0.06190  Biso   1.000  H
  Cu7      1.0000 0.55912  0.28408  0.61457  Biso   1.000  Cu
  Cu8      1.0000 0.64849  0.29743  0.51311  Biso   1.000  Cu
  O22      1.0000 0.33018  0.44331  0.62898  Biso   1.000  O
  O23      1.0000 0.57903  0.31371  0.54521  Biso   1.000  O
  O24      1.0000 0.48236  0.30595  0.60710  Biso   1.000  O
  O25      1.0000 0.21072  0.24245  0.51985  Biso   1.000  O
  O26      1.0000 0.26742  0.17447  0.54344  Biso   1.000  O
  O27      1.0000 0.46143  0.22360  0.57360  Biso   1.000  O
  O28      1.0000 0.25250  0.42660  0.58780  Biso   1.000  O
  N7       1.0000 0.63800  0.27360  0.62801  Biso   1.000  N
  N8       1.0000 0.67311  0.27660  0.58564  Biso   1.000  N
  C37      1.0000 0.66700  0.26840  0.67410  Biso   1.000  C
  H19      1.0000 0.65230  0.26510  0.70910  Biso   1.000  H
  C38      1.0000 0.72400  0.27340  0.60590  Biso   1.000  C
  H20      1.0000 0.75590  0.27420  0.58510  Biso   1.000  H
  C39      1.0000 0.38960  0.28790  0.58260  Biso   1.000  C
  C40      1.0000 0.72210  0.26860  0.66190  Biso   1.000  C
  H21      1.0000 0.75130  0.26610  0.68620  Biso   1.000  H
  C41      1.0000 0.25510  0.22390  0.53850  Biso   1.000  C
  C42      1.0000 0.29810  0.41200  0.60170  Biso   1.000  C
  C43      1.0000 0.31900  0.35650  0.58740  Biso   1.000  C
  C44      1.0000 0.29710  0.26540  0.55650  Biso   1.000  C
  C45      1.0000 0.44850  0.27040  0.58830  Biso   1.000  C
  C46      1.0000 0.37280  0.34150  0.59480  Biso   1.000  C
  H22      1.0000 0.39810  0.36680  0.60790  Biso   1.000  H
  C47      1.0000 0.35090  0.25020  0.56400  Biso   1.000  C
  H23      1.0000 0.36160  0.21440  0.55660  Biso   1.000  H
  C48      1.0000 0.28090  0.31880  0.56770  Biso   1.000  C
  H24      1.0000 0.24480  0.32940  0.56190  Biso   1.000  H
  Cu9      1.0000 0.38543  0.05912  0.21592  Biso   1.000  Cu
  Cu10     1.0000 0.48689  0.14849  0.20257  Biso   1.000  Cu
  O29      1.0000 0.37102  0.83018  0.05669  Biso   1.000  O
  O30      1.0000 0.45479  0.07903  0.18629  Biso   1.000  O
  O31      1.0000 0.39290  0.98236  0.19405  Biso   1.000  O
  O32      1.0000 0.48015  0.71072  0.25755  Biso   1.000  O
  O33      1.0000 0.45656  0.76742  0.32553  Biso   1.000  O
  O34      1.0000 0.42640  0.96143  0.27640  Biso   1.000  O
  O35      1.0000 0.41220  0.75250  0.07340  Biso   1.000  O
  N9       1.0000 0.37199  0.13800  0.22640  Biso   1.000  N
  N10      1.0000 0.41436  0.17311  0.22340  Biso   1.000  N
  C49      1.0000 0.32590  0.16700  0.23160  Biso   1.000  C
  H25      1.0000 0.29090  0.15230  0.23490  Biso   1.000  H
  C50      1.0000 0.39410  0.22400  0.22660  Biso   1.000  C
  H26      1.0000 0.41490  0.25590  0.22580  Biso   1.000  H
  C51      1.0000 0.41740  0.88960  0.21210  Biso   1.000  C
  C52      1.0000 0.33810  0.22210  0.23140  Biso   1.000  C
  H27      1.0000 0.31380  0.25130  0.23390  Biso   1.000  H
  C53      1.0000 0.46150  0.75510  0.27610  Biso   1.000  C
  C54      1.0000 0.39830  0.79810  0.08800  Biso   1.000  C
  C55      1.0000 0.41260  0.81900  0.14350  Biso   1.000  C
  C56      1.0000 0.44350  0.79710  0.23460  Biso   1.000  C
  C57      1.0000 0.41170  0.94850  0.22960  Biso   1.000  C
  C58      1.0000 0.40520  0.87280  0.15850  Biso   1.000  C
  H28      1.0000 0.39210  0.89810  0.13320  Biso   1.000  H
  C59      1.0000 0.43600  0.85090  0.24980  Biso   1.000  C
  H29      1.0000 0.44340  0.86160  0.28560  Biso   1.000  H
  C60      1.0000 0.43230  0.78090  0.18120  Biso   1.000  C
  H30      1.0000 0.43810  0.74480  0.17060  Biso   1.000  H
  Cu11     1.0000 0.88543  0.44088  0.78408  Biso   1.000  Cu
  Cu12     1.0000 0.98689  0.35151  0.79743  Biso   1.000  Cu
  O36      1.0000 0.87102  0.66982  0.94331  Biso   1.000  O
  O37      1.0000 0.95479  0.42097  0.81371  Biso   1.000  O
  O38      1.0000 0.89290  0.51764  0.80595  Biso   1.000  O
  O39      1.0000 0.98015  0.78928  0.74245  Biso   1.000  O
  O40      1.0000 0.95656  0.73258  0.67447  Biso   1.000  O
  O41      1.0000 0.92640  0.53857  0.72360  Biso   1.000  O
  O42      1.0000 0.91220  0.74750  0.92660  Biso   1.000  O
  N11      1.0000 0.87199  0.36200  0.77360  Biso   1.000  N
  N12      1.0000 0.91436  0.32689  0.77660  Biso   1.000  N
  C61      1.0000 0.82590  0.33300  0.76840  Biso   1.000  C
  H31      1.0000 0.79090  0.34770  0.76510  Biso   1.000  H
  C62      1.0000 0.89410  0.27600  0.77340  Biso   1.000  C
  H32      1.0000 0.91490  0.24410  0.77420  Biso   1.000  H
  C63      1.0000 0.91740  0.61040  0.78790  Biso   1.000  C
  C64      1.0000 0.83810  0.27790  0.76860  Biso   1.000  C
  H33      1.0000 0.81380  0.24870  0.76610  Biso   1.000  H
  C65      1.0000 0.96150  0.74490  0.72390  Biso   1.000  C
  C66      1.0000 0.89830  0.70190  0.91200  Biso   1.000  C
  C67      1.0000 0.91260  0.68100  0.85650  Biso   1.000  C
  C68      1.0000 0.94350  0.70290  0.76540  Biso   1.000  C
  C69      1.0000 0.91170  0.55150  0.77040  Biso   1.000  C
  C70      1.0000 0.90520  0.62720  0.84150  Biso   1.000  C
  H34      1.0000 0.89210  0.60190  0.86680  Biso   1.000  H
  C71      1.0000 0.93600  0.64910  0.75020  Biso   1.000  C
  H35      1.0000 0.94340  0.63840  0.71440  Biso   1.000  H
  C72      1.0000 0.93230  0.71910  0.81880  Biso   1.000  C
  H36      1.0000 0.93810  0.75520  0.82940  Biso   1.000  H
  Cu13     1.0000 0.11457  0.94088  0.71592  Biso   1.000  Cu
  Cu14     1.0000 0.01311  0.85151  0.70257  Biso   1.000  Cu
  O43      1.0000 0.12898  0.16982  0.55669  Biso   1.000  O
  O44      1.0000 0.04521  0.92097  0.68629  Biso   1.000  O
  O45      1.0000 0.10710  0.01764  0.69405  Biso   1.000  O
  O46      1.0000 0.01985  0.28928  0.75755  Biso   1.000  O
  O47      1.0000 0.04344  0.23258  0.82553  Biso   1.000  O
  O48      1.0000 0.07360  0.03857  0.77640  Biso   1.000  O
  O49      1.0000 0.08780  0.24750  0.57340  Biso   1.000  O
  N13      1.0000 0.12801  0.86200  0.72640  Biso   1.000  N
  N14      1.0000 0.08564  0.82689  0.72340  Biso   1.000  N
  C73      1.0000 0.17410  0.83300  0.73160  Biso   1.000  C
  H37      1.0000 0.20910  0.84770  0.73490  Biso   1.000  H
  C74      1.0000 0.10590  0.77600  0.72660  Biso   1.000  C
  H38      1.0000 0.08510  0.74410  0.72580  Biso   1.000  H
  C75      1.0000 0.08260  0.11040  0.71210  Biso   1.000  C
  C76      1.0000 0.16190  0.77790  0.73140  Biso   1.000  C
  H39      1.0000 0.18620  0.74870  0.73390  Biso   1.000  H
  C77      1.0000 0.03850  0.24490  0.77610  Biso   1.000  C
  C78      1.0000 0.10170  0.20190  0.58800  Biso   1.000  C
  C79      1.0000 0.08740  0.18100  0.64350  Biso   1.000  C
  C80      1.0000 0.05650  0.20290  0.73460  Biso   1.000  C
  C81      1.0000 0.08830  0.05150  0.72960  Biso   1.000  C
  C82      1.0000 0.09480  0.12720  0.65850  Biso   1.000  C
  H40      1.0000 0.10790  0.10190  0.63320  Biso   1.000  H
  C83      1.0000 0.06400  0.14910  0.74980  Biso   1.000  C
  H41      1.0000 0.05660  0.13840  0.78560  Biso   1.000  H
  C84      1.0000 0.06770  0.21910  0.68120  Biso   1.000  C
  H42      1.0000 0.06190  0.25520  0.67060  Biso   1.000  H
  Cu15     1.0000 0.61457  0.55912  0.28408  Biso   1.000  Cu
  Cu16     1.0000 0.51311  0.64849  0.29743  Biso   1.000  Cu
  O50      1.0000 0.62898  0.33018  0.44331  Biso   1.000  O
  O51      1.0000 0.54521  0.57903  0.31371  Biso   1.000  O
  O52      1.0000 0.60710  0.48236  0.30595  Biso   1.000  O
  O53      1.0000 0.51985  0.21072  0.24245  Biso   1.000  O
  O54      1.0000 0.54344  0.26742  0.17447  Biso   1.000  O
  O55      1.0000 0.57360  0.46143  0.22360  Biso   1.000  O
  O56      1.0000 0.58780  0.25250  0.42660  Biso   1.000  O
  N15      1.0000 0.62801  0.63800  0.27360  Biso   1.000  N
  N16      1.0000 0.58564  0.67311  0.27660  Biso   1.000  N
  C85      1.0000 0.67410  0.66700  0.26840  Biso   1.000  C
  H43      1.0000 0.70910  0.65230  0.26510  Biso   1.000  H
  C86      1.0000 0.60590  0.72400  0.27340  Biso   1.000  C
  H44      1.0000 0.58510  0.75590  0.27420  Biso   1.000  H
  C87      1.0000 0.58260  0.38960  0.28790  Biso   1.000  C
  C88      1.0000 0.66190  0.72210  0.26860  Biso   1.000  C
  H45      1.0000 0.68620  0.75130  0.26610  Biso   1.000  H
  C89      1.0000 0.53850  0.25510  0.22390  Biso   1.000  C
  C90      1.0000 0.60170  0.29810  0.41200  Biso   1.000  C
  C91      1.0000 0.58740  0.31900  0.35650  Biso   1.000  C
  C92      1.0000 0.55650  0.29710  0.26540  Biso   1.000  C
  C93      1.0000 0.58830  0.44850  0.27040  Biso   1.000  C
  C94      1.0000 0.59480  0.37280  0.34150  Biso   1.000  C
  H46      1.0000 0.60790  0.39810  0.36680  Biso   1.000  H
  C95      1.0000 0.56400  0.35090  0.25020  Biso   1.000  C
  H47      1.0000 0.55660  0.36160  0.21440  Biso   1.000  H
  C96      1.0000 0.56770  0.28090  0.31880  Biso   1.000  C
  H48      1.0000 0.56190  0.24480  0.32940  Biso   1.000  H
  Cu17     1.0000 0.21592  0.38543  0.05912  Biso   1.000  Cu
  Cu18     1.0000 0.20257  0.48689  0.14849  Biso   1.000  Cu
  O57      1.0000 0.05669  0.37102  0.83018  Biso   1.000  O
  O58      1.0000 0.18629  0.45479  0.07903  Biso   1.000  O
  O59      1.0000 0.19405  0.39290  0.98236  Biso   1.000  O
  O60      1.0000 0.25755  0.48015  0.71072  Biso   1.000  O
  O61      1.0000 0.32553  0.45656  0.76742  Biso   1.000  O
  O62      1.0000 0.27640  0.42640  0.96143  Biso   1.000  O
  O63      1.0000 0.07340  0.41220  0.75250  Biso   1.000  O
  N17      1.0000 0.22640  0.37199  0.13800  Biso   1.000  N
  N18      1.0000 0.22340  0.41436  0.17311  Biso   1.000  N
  C97      1.0000 0.23160  0.32590  0.16700  Biso   1.000  C
  H49      1.0000 0.23490  0.29090  0.15230  Biso   1.000  H
  C98      1.0000 0.22660  0.39410  0.22400  Biso   1.000  C
  H50      1.0000 0.22580  0.41490  0.25590  Biso   1.000  H
  C99      1.0000 0.21210  0.41740  0.88960  Biso   1.000  C
  C100     1.0000 0.23140  0.33810  0.22210  Biso   1.000  C
  H51      1.0000 0.23390  0.31380  0.25130  Biso   1.000  H
  C101     1.0000 0.27610  0.46150  0.75510  Biso   1.000  C
  C102     1.0000 0.08800  0.39830  0.79810  Biso   1.000  C
  C103     1.0000 0.14350  0.41260  0.81900  Biso   1.000  C
  C104     1.0000 0.23460  0.44350  0.79710  Biso   1.000  C
  C105     1.0000 0.22960  0.41170  0.94850  Biso   1.000  C
  C106     1.0000 0.15850  0.40520  0.87280  Biso   1.000  C
  H52      1.0000 0.13320  0.39210  0.89810  Biso   1.000  H
  C107     1.0000 0.24980  0.43600  0.85090  Biso   1.000  C
  H53      1.0000 0.28560  0.44340  0.86160  Biso   1.000  H
  C108     1.0000 0.18120  0.43230  0.78090  Biso   1.000  C
  H54      1.0000 0.17060  0.43810  0.74480  Biso   1.000  H
  Cu19     1.0000 0.78408  0.88543  0.44088  Biso   1.000  Cu
  Cu20     1.0000 0.79743  0.98689  0.35151  Biso   1.000  Cu
  O64      1.0000 0.94331  0.87102  0.66982  Biso   1.000  O
  O65      1.0000 0.81371  0.95479  0.42097  Biso   1.000  O
  O66      1.0000 0.80595  0.89290  0.51764  Biso   1.000  O
  O67      1.0000 0.74245  0.98015  0.78928  Biso   1.000  O
  O68      1.0000 0.67447  0.95656  0.73258  Biso   1.000  O
  O69      1.0000 0.72360  0.92640  0.53857  Biso   1.000  O
  O70      1.0000 0.92660  0.91220  0.74750  Biso   1.000  O
  N19      1.0000 0.77360  0.87199  0.36200  Biso   1.000  N
  N20      1.0000 0.77660  0.91436  0.32689  Biso   1.000  N
  C109     1.0000 0.76840  0.82590  0.33300  Biso   1.000  C
  H55      1.0000 0.76510  0.79090  0.34770  Biso   1.000  H
  C110     1.0000 0.77340  0.89410  0.27600  Biso   1.000  C
  H56      1.0000 0.77420  0.91490  0.24410  Biso   1.000  H
  C111     1.0000 0.78790  0.91740  0.61040  Biso   1.000  C
  C112     1.0000 0.76860  0.83810  0.27790  Biso   1.000  C
  H57      1.0000 0.76610  0.81380  0.24870  Biso   1.000  H
  C113     1.0000 0.72390  0.96150  0.74490  Biso   1.000  C
  C114     1.0000 0.91200  0.89830  0.70190  Biso   1.000  C
  C115     1.0000 0.85650  0.91260  0.68100  Biso   1.000  C
  C116     1.0000 0.76540  0.94350  0.70290  Biso   1.000  C
  C117     1.0000 0.77040  0.91170  0.55150  Biso   1.000  C
  C118     1.0000 0.84150  0.90520  0.62720  Biso   1.000  C
  H58      1.0000 0.86680  0.89210  0.60190  Biso   1.000  H
  C119     1.0000 0.75020  0.93600  0.64910  Biso   1.000  C
  H59      1.0000 0.71440  0.94340  0.63840  Biso   1.000  H
  C120     1.0000 0.81880  0.93230  0.71910  Biso   1.000  C
  H60      1.0000 0.82940  0.93810  0.75520  Biso   1.000  H
  Cu21     1.0000 0.71592  0.11457  0.94088  Biso   1.000  Cu
  Cu22     1.0000 0.70257  0.01311  0.85151  Biso   1.000  Cu
  O71      1.0000 0.55669  0.12898  0.16982  Biso   1.000  O
  O72      1.0000 0.68629  0.04521  0.92097  Biso   1.000  O
  O73      1.0000 0.69405  0.10710  0.01764  Biso   1.000  O
  O74      1.0000 0.75755  0.01985  0.28928  Biso   1.000  O
  O75      1.0000 0.82553  0.04344  0.23258  Biso   1.000  O
  O76      1.0000 0.77640  0.07360  0.03857  Biso   1.000  O
  O77      1.0000 0.57340  0.08780  0.24750  Biso   1.000  O
  N21      1.0000 0.72640  0.12801  0.86200  Biso   1.000  N
  N22      1.0000 0.72340  0.08564  0.82689  Biso   1.000  N
  C121     1.0000 0.73160  0.17410  0.83300  Biso   1.000  C
  H61      1.0000 0.73490  0.20910  0.84770  Biso   1.000  H
  C122     1.0000 0.72660  0.10590  0.77600  Biso   1.000  C
  H62      1.0000 0.72580  0.08510  0.74410  Biso   1.000  H
  C123     1.0000 0.71210  0.08260  0.11040  Biso   1.000  C
  C124     1.0000 0.73140  0.16190  0.77790  Biso   1.000  C
  H63      1.0000 0.73390  0.18620  0.74870  Biso   1.000  H
  C125     1.0000 0.77610  0.03850  0.24490  Biso   1.000  C
  C126     1.0000 0.58800  0.10170  0.20190  Biso   1.000  C
  C127     1.0000 0.64350  0.08740  0.18100  Biso   1.000  C
  C128     1.0000 0.73460  0.05650  0.20290  Biso   1.000  C
  C129     1.0000 0.72960  0.08830  0.05150  Biso   1.000  C
  C130     1.0000 0.65850  0.09480  0.12720  Biso   1.000  C
  H64      1.0000 0.63320  0.10790  0.10190  Biso   1.000  H
  C131     1.0000 0.74980  0.06400  0.14910  Biso   1.000  C
  H65      1.0000 0.78560  0.05660  0.13840  Biso   1.000  H
  C132     1.0000 0.68120  0.06770  0.21910  Biso   1.000  C
  H66      1.0000 0.67060  0.06190  0.25520  Biso   1.000  H
  Cu23     1.0000 0.28408  0.61457  0.55912  Biso   1.000  Cu
  Cu24     1.0000 0.29743  0.51311  0.64849  Biso   1.000  Cu
  O78      1.0000 0.44331  0.62898  0.33018  Biso   1.000  O
  O79      1.0000 0.31371  0.54521  0.57903  Biso   1.000  O
  O80      1.0000 0.30595  0.60710  0.48236  Biso   1.000  O
  O81      1.0000 0.24245  0.51985  0.21072  Biso   1.000  O
  O82      1.0000 0.17447  0.54344  0.26742  Biso   1.000  O
  O83      1.0000 0.22360  0.57360  0.46143  Biso   1.000  O
  O84      1.0000 0.42660  0.58780  0.25250  Biso   1.000  O
  N23      1.0000 0.27360  0.62801  0.63800  Biso   1.000  N
  N24      1.0000 0.27660  0.58564  0.67311  Biso   1.000  N
  C133     1.0000 0.26840  0.67410  0.66700  Biso   1.000  C
  H67      1.0000 0.26510  0.70910  0.65230  Biso   1.000  H
  C134     1.0000 0.27340  0.60590  0.72400  Biso   1.000  C
  H68      1.0000 0.27420  0.58510  0.75590  Biso   1.000  H
  C135     1.0000 0.28790  0.58260  0.38960  Biso   1.000  C
  C136     1.0000 0.26860  0.66190  0.72210  Biso   1.000  C
  H69      1.0000 0.26610  0.68620  0.75130  Biso   1.000  H
  C137     1.0000 0.22390  0.53850  0.25510  Biso   1.000  C
  C138     1.0000 0.41200  0.60170  0.29810  Biso   1.000  C
  C139     1.0000 0.35650  0.58740  0.31900  Biso   1.000  C
  C140     1.0000 0.26540  0.55650  0.29710  Biso   1.000  C
  C141     1.0000 0.27040  0.58830  0.44850  Biso   1.000  C
  C142     1.0000 0.34150  0.59480  0.37280  Biso   1.000  C
  H70      1.0000 0.36680  0.60790  0.39810  Biso   1.000  H
  C143     1.0000 0.25020  0.56400  0.35090  Biso   1.000  C
  H71      1.0000 0.21440  0.55660  0.36160  Biso   1.000  H
  C144     1.0000 0.31880  0.56770  0.28090  Biso   1.000  C
  H72      1.0000 0.32940  0.56190  0.24480  Biso   1.000  H
  Cu25     1.0000 0.94088  0.78408  0.61457  Biso   1.000  Cu
  Cu26     1.0000 0.85151  0.79743  0.51311  Biso   1.000  Cu
  O85      1.0000 0.16982  0.94331  0.62898  Biso   1.000  O
  O86      1.0000 0.92097  0.81371  0.54521  Biso   1.000  O
  O87      1.0000 0.01764  0.80595  0.60710  Biso   1.000  O
  O88      1.0000 0.28928  0.74245  0.51985  Biso   1.000  O
  O89      1.0000 0.23258  0.67447  0.54344  Biso   1.000  O
  O90      1.0000 0.03857  0.72360  0.57360  Biso   1.000  O
  O91      1.0000 0.24750  0.92660  0.58780  Biso   1.000  O
  N25      1.0000 0.86200  0.77360  0.62801  Biso   1.000  N
  N26      1.0000 0.82689  0.77660  0.58564  Biso   1.000  N
  C145     1.0000 0.83300  0.76840  0.67410  Biso   1.000  C
  H73      1.0000 0.84770  0.76510  0.70910  Biso   1.000  H
  C146     1.0000 0.77600  0.77340  0.60590  Biso   1.000  C
  H74      1.0000 0.74410  0.77420  0.58510  Biso   1.000  H
  C147     1.0000 0.11040  0.78790  0.58260  Biso   1.000  C
  C148     1.0000 0.77790  0.76860  0.66190  Biso   1.000  C
  H75      1.0000 0.74870  0.76610  0.68620  Biso   1.000  H
  C149     1.0000 0.24490  0.72390  0.53850  Biso   1.000  C
  C150     1.0000 0.20190  0.91200  0.60170  Biso   1.000  C
  C151     1.0000 0.18100  0.85650  0.58740  Biso   1.000  C
  C152     1.0000 0.20290  0.76540  0.55650  Biso   1.000  C
  C153     1.0000 0.05150  0.77040  0.58830  Biso   1.000  C
  C154     1.0000 0.12720  0.84150  0.59480  Biso   1.000  C
  H76      1.0000 0.10190  0.86680  0.60790  Biso   1.000  H
  C155     1.0000 0.14910  0.75020  0.56400  Biso   1.000  C
  H77      1.0000 0.13840  0.71440  0.55660  Biso   1.000  H
  C156     1.0000 0.21910  0.81880  0.56770  Biso   1.000  C
  H78      1.0000 0.25520  0.82940  0.56190  Biso   1.000  H
  Cu27     1.0000 0.55912  0.21592  0.11457  Biso   1.000  Cu
  Cu28     1.0000 0.64849  0.20257  0.01311  Biso   1.000  Cu
  O92      1.0000 0.33018  0.05669  0.12898  Biso   1.000  O
  O93      1.0000 0.57903  0.18629  0.04521  Biso   1.000  O
  O94      1.0000 0.48236  0.19405  0.10710  Biso   1.000  O
  O95      1.0000 0.21072  0.25755  0.01985  Biso   1.000  O
  O96      1.0000 0.26742  0.32553  0.04344  Biso   1.000  O
  O97      1.0000 0.46143  0.27640  0.07360  Biso   1.000  O
  O98      1.0000 0.25250  0.07340  0.08780  Biso   1.000  O
  N27      1.0000 0.63800  0.22640  0.12801  Biso   1.000  N
  N28      1.0000 0.67311  0.22340  0.08564  Biso   1.000  N
  C157     1.0000 0.66700  0.23160  0.17410  Biso   1.000  C
  H79      1.0000 0.65230  0.23490  0.20910  Biso   1.000  H
  C158     1.0000 0.72400  0.22660  0.10590  Biso   1.000  C
  H80      1.0000 0.75590  0.22580  0.08510  Biso   1.000  H
  C159     1.0000 0.38960  0.21210  0.08260  Biso   1.000  C
  C160     1.0000 0.72210  0.23140  0.16190  Biso   1.000  C
  H81      1.0000 0.75130  0.23390  0.18620  Biso   1.000  H
  C161     1.0000 0.25510  0.27610  0.03850  Biso   1.000  C
  C162     1.0000 0.29810  0.08800  0.10170  Biso   1.000  C
  C163     1.0000 0.31900  0.14350  0.08740  Biso   1.000  C
  C164     1.0000 0.29710  0.23460  0.05650  Biso   1.000  C
  C165     1.0000 0.44850  0.22960  0.08830  Biso   1.000  C
  C166     1.0000 0.37280  0.15850  0.09480  Biso   1.000  C
  H82      1.0000 0.39810  0.13320  0.10790  Biso   1.000  H
  C167     1.0000 0.35090  0.24980  0.06400  Biso   1.000  C
  H83      1.0000 0.36160  0.28560  0.05660  Biso   1.000  H
  C168     1.0000 0.28090  0.18120  0.06770  Biso   1.000  C
  H84      1.0000 0.24480  0.17060  0.06190  Biso   1.000  H
  Cu29     1.0000 0.05912  0.28408  0.88543  Biso   1.000  Cu
  Cu30     1.0000 0.14849  0.29743  0.98689  Biso   1.000  Cu
  O99      1.0000 0.83018  0.44331  0.87102  Biso   1.000  O
  O100     1.0000 0.07903  0.31371  0.95479  Biso   1.000  O
  O101     1.0000 0.98236  0.30595  0.89290  Biso   1.000  O
  O102     1.0000 0.71072  0.24245  0.98015  Biso   1.000  O
  O103     1.0000 0.76742  0.17447  0.95656  Biso   1.000  O
  O104     1.0000 0.96143  0.22360  0.92640  Biso   1.000  O
  O105     1.0000 0.75250  0.42660  0.91220  Biso   1.000  O
  N29      1.0000 0.13800  0.27360  0.87199  Biso   1.000  N
  N30      1.0000 0.17311  0.27660  0.91436  Biso   1.000  N
  C169     1.0000 0.16700  0.26840  0.82590  Biso   1.000  C
  H85      1.0000 0.15230  0.26510  0.79090  Biso   1.000  H
  C170     1.0000 0.22400  0.27340  0.89410  Biso   1.000  C
  H86      1.0000 0.25590  0.27420  0.91490  Biso   1.000  H
  C171     1.0000 0.88960  0.28790  0.91740  Biso   1.000  C
  C172     1.0000 0.22210  0.26860  0.83810  Biso   1.000  C
  H87      1.0000 0.25130  0.26610  0.81380  Biso   1.000  H
  C173     1.0000 0.75510  0.22390  0.96150  Biso   1.000  C
  C174     1.0000 0.79810  0.41200  0.89830  Biso   1.000  C
  C175     1.0000 0.81900  0.35650  0.91260  Biso   1.000  C
  C176     1.0000 0.79710  0.26540  0.94350  Biso   1.000  C
  C177     1.0000 0.94850  0.27040  0.91170  Biso   1.000  C
  C178     1.0000 0.87280  0.34150  0.90520  Biso   1.000  C
  H88      1.0000 0.89810  0.36680  0.89210  Biso   1.000  H
  C179     1.0000 0.85090  0.25020  0.93600  Biso   1.000  C
  H89      1.0000 0.86160  0.21440  0.94340  Biso   1.000  H
  C180     1.0000 0.78090  0.31880  0.93230  Biso   1.000  C
  H90      1.0000 0.74480  0.32940  0.93810  Biso   1.000  H
  Cu31     1.0000 0.44088  0.71592  0.38543  Biso   1.000  Cu
  Cu32     1.0000 0.35151  0.70257  0.48689  Biso   1.000  Cu
  O106     1.0000 0.66982  0.55669  0.37102  Biso   1.000  O
  O107     1.0000 0.42097  0.68629  0.45479  Biso   1.000  O
  O108     1.0000 0.51764  0.69405  0.39290  Biso   1.000  O
  O109     1.0000 0.78928  0.75755  0.48015  Biso   1.000  O
  O110     1.0000 0.73258  0.82553  0.45656  Biso   1.000  O
  O111     1.0000 0.53857  0.77640  0.42640  Biso   1.000  O
  O112     1.0000 0.74750  0.57340  0.41220  Biso   1.000  O
  N31      1.0000 0.36200  0.72640  0.37199  Biso   1.000  N
  N32      1.0000 0.32689  0.72340  0.41436  Biso   1.000  N
  C181     1.0000 0.33300  0.73160  0.32590  Biso   1.000  C
  H91      1.0000 0.34770  0.73490  0.29090  Biso   1.000  H
  C182     1.0000 0.27600  0.72660  0.39410  Biso   1.000  C
  H92      1.0000 0.24410  0.72580  0.41490  Biso   1.000  H
  C183     1.0000 0.61040  0.71210  0.41740  Biso   1.000  C
  C184     1.0000 0.27790  0.73140  0.33810  Biso   1.000  C
  H93      1.0000 0.24870  0.73390  0.31380  Biso   1.000  H
  C185     1.0000 0.74490  0.77610  0.46150  Biso   1.000  C
  C186     1.0000 0.70190  0.58800  0.39830  Biso   1.000  C
  C187     1.0000 0.68100  0.64350  0.41260  Biso   1.000  C
  C188     1.0000 0.70290  0.73460  0.44350  Biso   1.000  C
  C189     1.0000 0.55150  0.72960  0.41170  Biso   1.000  C
  C190     1.0000 0.62720  0.65850  0.40520  Biso   1.000  C
  H94      1.0000 0.60190  0.63320  0.39210  Biso   1.000  H
  C191     1.0000 0.64910  0.74980  0.43600  Biso   1.000  C
  H95      1.0000 0.63840  0.78560  0.44340  Biso   1.000  H
  C192     1.0000 0.71910  0.68120  0.43230  Biso   1.000  C
  H96      1.0000 0.75520  0.67060  0.43810  Biso   1.000  H
  Cu33     1.0000 0.61457  0.94088  0.78408  Biso   1.000  Cu
  Cu34     1.0000 0.51311  0.85151  0.79743  Biso   1.000  Cu
  O113     1.0000 0.62898  0.16982  0.94331  Biso   1.000  O
  O114     1.0000 0.54521  0.92097  0.81371  Biso   1.000  O
  O115     1.0000 0.60710  0.01764  0.80595  Biso   1.000  O
  O116     1.0000 0.51985  0.28928  0.74245  Biso   1.000  O
  O117     1.0000 0.54344  0.23258  0.67447  Biso   1.000  O
  O118     1.0000 0.57360  0.03857  0.72360  Biso   1.000  O
  O119     1.0000 0.58780  0.24750  0.92660  Biso   1.000  O
  N33      1.0000 0.62801  0.86200  0.77360  Biso   1.000  N
  N34      1.0000 0.58564  0.82689  0.77660  Biso   1.000  N
  C193     1.0000 0.67410  0.83300  0.76840  Biso   1.000  C
  H97      1.0000 0.70910  0.84770  0.76510  Biso   1.000  H
  C194     1.0000 0.60590  0.77600  0.77340  Biso   1.000  C
  H98      1.0000 0.58510  0.74410  0.77420  Biso   1.000  H
  C195     1.0000 0.58260  0.11040  0.78790  Biso   1.000  C
  C196     1.0000 0.66190  0.77790  0.76860  Biso   1.000  C
  H99      1.0000 0.68620  0.74870  0.76610  Biso   1.000  H
  C197     1.0000 0.53850  0.24490  0.72390  Biso   1.000  C
  C198     1.0000 0.60170  0.20190  0.91200  Biso   1.000  C
  C199     1.0000 0.58740  0.18100  0.85650  Biso   1.000  C
  C200     1.0000 0.55650  0.20290  0.76540  Biso   1.000  C
  C201     1.0000 0.58830  0.05150  0.77040  Biso   1.000  C
  C202     1.0000 0.59480  0.12720  0.84150  Biso   1.000  C
  H100     1.0000 0.60790  0.10190  0.86680  Biso   1.000  H
  C203     1.0000 0.56400  0.14910  0.75020  Biso   1.000  C
  H101     1.0000 0.55660  0.13840  0.71440  Biso   1.000  H
  C204     1.0000 0.56770  0.21910  0.81880  Biso   1.000  C
  H102     1.0000 0.56190  0.25520  0.82940  Biso   1.000  H
  Cu35     1.0000 0.11457  0.55912  0.21592  Biso   1.000  Cu
  Cu36     1.0000 0.01311  0.64849  0.20257  Biso   1.000  Cu
  O120     1.0000 0.12898  0.33018  0.05669  Biso   1.000  O
  O121     1.0000 0.04521  0.57903  0.18629  Biso   1.000  O
  O122     1.0000 0.10710  0.48236  0.19405  Biso   1.000  O
  O123     1.0000 0.01985  0.21072  0.25755  Biso   1.000  O
  O124     1.0000 0.04344  0.26742  0.32553  Biso   1.000  O
  O125     1.0000 0.07360  0.46143  0.27640  Biso   1.000  O
  O126     1.0000 0.08780  0.25250  0.07340  Biso   1.000  O
  N35      1.0000 0.12801  0.63800  0.22640  Biso   1.000  N
  N36      1.0000 0.08564  0.67311  0.22340  Biso   1.000  N
  C205     1.0000 0.17410  0.66700  0.23160  Biso   1.000  C
  H103     1.0000 0.20910  0.65230  0.23490  Biso   1.000  H
  C206     1.0000 0.10590  0.72400  0.22660  Biso   1.000  C
  H104     1.0000 0.08510  0.75590  0.22580  Biso   1.000  H
  C207     1.0000 0.08260  0.38960  0.21210  Biso   1.000  C
  C208     1.0000 0.16190  0.72210  0.23140  Biso   1.000  C
  H105     1.0000 0.18620  0.75130  0.23390  Biso   1.000  H
  C209     1.0000 0.03850  0.25510  0.27610  Biso   1.000  C
  C210     1.0000 0.10170  0.29810  0.08800  Biso   1.000  C
  C211     1.0000 0.08740  0.31900  0.14350  Biso   1.000  C
  C212     1.0000 0.05650  0.29710  0.23460  Biso   1.000  C
  C213     1.0000 0.08830  0.44850  0.22960  Biso   1.000  C
  C214     1.0000 0.09480  0.37280  0.15850  Biso   1.000  C
  H106     1.0000 0.10790  0.39810  0.13320  Biso   1.000  H
  C215     1.0000 0.06400  0.35090  0.24980  Biso   1.000  C
  H107     1.0000 0.05660  0.36160  0.28560  Biso   1.000  H
  C216     1.0000 0.06770  0.28090  0.18120  Biso   1.000  C
  H108     1.0000 0.06190  0.24480  0.17060  Biso   1.000  H
  Cu37     1.0000 0.88543  0.05912  0.28408  Biso   1.000  Cu
  Cu38     1.0000 0.98689  0.14849  0.29743  Biso   1.000  Cu
  O127     1.0000 0.87102  0.83018  0.44331  Biso   1.000  O
  O128     1.0000 0.95479  0.07903  0.31371  Biso   1.000  O
  O129     1.0000 0.89290  0.98236  0.30595  Biso   1.000  O
  O130     1.0000 0.98015  0.71072  0.24245  Biso   1.000  O
  O131     1.0000 0.95656  0.76742  0.17447  Biso   1.000  O
  O132     1.0000 0.92640  0.96143  0.22360  Biso   1.000  O
  O133     1.0000 0.91220  0.75250  0.42660  Biso   1.000  O
  N37      1.0000 0.87199  0.13800  0.27360  Biso   1.000  N
  N38      1.0000 0.91436  0.17311  0.27660  Biso   1.000  N
  C217     1.0000 0.82590  0.16700  0.26840  Biso   1.000  C
  H109     1.0000 0.79090  0.15230  0.26510  Biso   1.000  H
  C218     1.0000 0.89410  0.22400  0.27340  Biso   1.000  C
  H110     1.0000 0.91490  0.25590  0.27420  Biso   1.000  H
  C219     1.0000 0.91740  0.88960  0.28790  Biso   1.000  C
  C220     1.0000 0.83810  0.22210  0.26860  Biso   1.000  C
  H111     1.0000 0.81380  0.25130  0.26610  Biso   1.000  H
  C221     1.0000 0.96150  0.75510  0.22390  Biso   1.000  C
  C222     1.0000 0.89830  0.79810  0.41200  Biso   1.000  C
  C223     1.0000 0.91260  0.81900  0.35650  Biso   1.000  C
  C224     1.0000 0.94350  0.79710  0.26540  Biso   1.000  C
  C225     1.0000 0.91170  0.94850  0.27040  Biso   1.000  C
  C226     1.0000 0.90520  0.87280  0.34150  Biso   1.000  C
  H112     1.0000 0.89210  0.89810  0.36680  Biso   1.000  H
  C227     1.0000 0.93600  0.85090  0.25020  Biso   1.000  C
  H113     1.0000 0.94340  0.86160  0.21440  Biso   1.000  H
  C228     1.0000 0.93230  0.78090  0.31880  Biso   1.000  C
  H114     1.0000 0.93810  0.74480  0.32940  Biso   1.000  H
  Cu39     1.0000 0.38543  0.44088  0.71592  Biso   1.000  Cu
  Cu40     1.0000 0.48689  0.35151  0.70257  Biso   1.000  Cu
  O134     1.0000 0.37102  0.66982  0.55669  Biso   1.000  O
  O135     1.0000 0.45479  0.42097  0.68629  Biso   1.000  O
  O136     1.0000 0.39290  0.51764  0.69405  Biso   1.000  O
  O137     1.0000 0.48015  0.78928  0.75755  Biso   1.000  O
  O138     1.0000 0.45656  0.73258  0.82553  Biso   1.000  O
  O139     1.0000 0.42640  0.53857  0.77640  Biso   1.000  O
  O140     1.0000 0.41220  0.74750  0.57340  Biso   1.000  O
  N39      1.0000 0.37199  0.36200  0.72640  Biso   1.000  N
  N40      1.0000 0.41436  0.32689  0.72340  Biso   1.000  N
  C229     1.0000 0.32590  0.33300  0.73160  Biso   1.000  C
  H115     1.0000 0.29090  0.34770  0.73490  Biso   1.000  H
  C230     1.0000 0.39410  0.27600  0.72660  Biso   1.000  C
  H116     1.0000 0.41490  0.24410  0.72580  Biso   1.000  H
  C231     1.0000 0.41740  0.61040  0.71210  Biso   1.000  C
  C232     1.0000 0.33810  0.27790  0.73140  Biso   1.000  C
  H117     1.0000 0.31380  0.24870  0.73390  Biso   1.000  H
  C233     1.0000 0.46150  0.74490  0.77610  Biso   1.000  C
  C234     1.0000 0.39830  0.70190  0.58800  Biso   1.000  C
  C235     1.0000 0.41260  0.68100  0.64350  Biso   1.000  C
  C236     1.0000 0.44350  0.70290  0.73460  Biso   1.000  C
  C237     1.0000 0.41170  0.55150  0.72960  Biso   1.000  C
  C238     1.0000 0.40520  0.62720  0.65850  Biso   1.000  C
  H118     1.0000 0.39210  0.60190  0.63320  Biso   1.000  H
  C239     1.0000 0.43600  0.64910  0.74980  Biso   1.000  C
  H119     1.0000 0.44340  0.63840  0.78560  Biso   1.000  H
  C240     1.0000 0.43230  0.71910  0.68120  Biso   1.000  C
  H120     1.0000 0.43810  0.75520  0.67060  Biso   1.000  H
  Cu41     1.0000 0.78408  0.61457  0.94088  Biso   1.000  Cu
  Cu42     1.0000 0.79743  0.51311  0.85151  Biso   1.000  Cu
  O141     1.0000 0.94331  0.62898  0.16982  Biso   1.000  O
  O142     1.0000 0.81371  0.54521  0.92097  Biso   1.000  O
  O143     1.0000 0.80595  0.60710  0.01764  Biso   1.000  O
  O144     1.0000 0.74245  0.51985  0.28928  Biso   1.000  O
  O145     1.0000 0.67447  0.54344  0.23258  Biso   1.000  O
  O146     1.0000 0.72360  0.57360  0.03857  Biso   1.000  O
  O147     1.0000 0.92660  0.58780  0.24750  Biso   1.000  O
  N41      1.0000 0.77360  0.62801  0.86200  Biso   1.000  N
  N42      1.0000 0.77660  0.58564  0.82689  Biso   1.000  N
  C241     1.0000 0.76840  0.67410  0.83300  Biso   1.000  C
  H121     1.0000 0.76510  0.70910  0.84770  Biso   1.000  H
  C242     1.0000 0.77340  0.60590  0.77600  Biso   1.000  C
  H122     1.0000 0.77420  0.58510  0.74410  Biso   1.000  H
  C243     1.0000 0.78790  0.58260  0.11040  Biso   1.000  C
  C244     1.0000 0.76860  0.66190  0.77790  Biso   1.000  C
  H123     1.0000 0.76610  0.68620  0.74870  Biso   1.000  H
  C245     1.0000 0.72390  0.53850  0.24490  Biso   1.000  C
  C246     1.0000 0.91200  0.60170  0.20190  Biso   1.000  C
  C247     1.0000 0.85650  0.58740  0.18100  Biso   1.000  C
  C248     1.0000 0.76540  0.55650  0.20290  Biso   1.000  C
  C249     1.0000 0.77040  0.58830  0.05150  Biso   1.000  C
  C250     1.0000 0.84150  0.59480  0.12720  Biso   1.000  C
  H124     1.0000 0.86680  0.60790  0.10190  Biso   1.000  H
  C251     1.0000 0.75020  0.56400  0.14910  Biso   1.000  C
  H125     1.0000 0.71440  0.55660  0.13840  Biso   1.000  H
  C252     1.0000 0.81880  0.56770  0.21910  Biso   1.000  C
  H126     1.0000 0.82940  0.56190  0.25520  Biso   1.000  H
  Cu43     1.0000 0.21592  0.11457  0.55912  Biso   1.000  Cu
  Cu44     1.0000 0.20257  0.01311  0.64849  Biso   1.000  Cu
  O148     1.0000 0.05669  0.12898  0.33018  Biso   1.000  O
  O149     1.0000 0.18629  0.04521  0.57903  Biso   1.000  O
  O150     1.0000 0.19405  0.10710  0.48236  Biso   1.000  O
  O151     1.0000 0.25755  0.01985  0.21072  Biso   1.000  O
  O152     1.0000 0.32553  0.04344  0.26742  Biso   1.000  O
  O153     1.0000 0.27640  0.07360  0.46143  Biso   1.000  O
  O154     1.0000 0.07340  0.08780  0.25250  Biso   1.000  O
  N43      1.0000 0.22640  0.12801  0.63800  Biso   1.000  N
  N44      1.0000 0.22340  0.08564  0.67311  Biso   1.000  N
  C253     1.0000 0.23160  0.17410  0.66700  Biso   1.000  C
  H127     1.0000 0.23490  0.20910  0.65230  Biso   1.000  H
  C254     1.0000 0.22660  0.10590  0.72400  Biso   1.000  C
  H128     1.0000 0.22580  0.08510  0.75590  Biso   1.000  H
  C255     1.0000 0.21210  0.08260  0.38960  Biso   1.000  C
  C256     1.0000 0.23140  0.16190  0.72210  Biso   1.000  C
  H129     1.0000 0.23390  0.18620  0.75130  Biso   1.000  H
  C257     1.0000 0.27610  0.03850  0.25510  Biso   1.000  C
  C258     1.0000 0.08800  0.10170  0.29810  Biso   1.000  C
  C259     1.0000 0.14350  0.08740  0.31900  Biso   1.000  C
  C260     1.0000 0.23460  0.05650  0.29710  Biso   1.000  C
  C261     1.0000 0.22960  0.08830  0.44850  Biso   1.000  C
  C262     1.0000 0.15850  0.09480  0.37280  Biso   1.000  C
  H130     1.0000 0.13320  0.10790  0.39810  Biso   1.000  H
  C263     1.0000 0.24980  0.06400  0.35090  Biso   1.000  C
  H131     1.0000 0.28560  0.05660  0.36160  Biso   1.000  H
  C264     1.0000 0.18120  0.06770  0.28090  Biso   1.000  C
  H132     1.0000 0.17060  0.06190  0.24480  Biso   1.000  H
  Cu45     1.0000 0.28408  0.88543  0.05912  Biso   1.000  Cu
  Cu46     1.0000 0.29743  0.98689  0.14849  Biso   1.000  Cu
  O155     1.0000 0.44331  0.87102  0.83018  Biso   1.000  O
  O156     1.0000 0.31371  0.95479  0.07903  Biso   1.000  O
  O157     1.0000 0.30595  0.89290  0.98236  Biso   1.000  O
  O158     1.0000 0.24245  0.98015  0.71072  Biso   1.000  O
  O159     1.0000 0.17447  0.95656  0.76742  Biso   1.000  O
  O160     1.0000 0.22360  0.92640  0.96143  Biso   1.000  O
  O161     1.0000 0.42660  0.91220  0.75250  Biso   1.000  O
  N45      1.0000 0.27360  0.87199  0.13800  Biso   1.000  N
  N46      1.0000 0.27660  0.91436  0.17311  Biso   1.000  N
  C265     1.0000 0.26840  0.82590  0.16700  Biso   1.000  C
  H133     1.0000 0.26510  0.79090  0.15230  Biso   1.000  H
  C266     1.0000 0.27340  0.89410  0.22400  Biso   1.000  C
  H134     1.0000 0.27420  0.91490  0.25590  Biso   1.000  H
  C267     1.0000 0.28790  0.91740  0.88960  Biso   1.000  C
  C268     1.0000 0.26860  0.83810  0.22210  Biso   1.000  C
  H135     1.0000 0.26610  0.81380  0.25130  Biso   1.000  H
  C269     1.0000 0.22390  0.96150  0.75510  Biso   1.000  C
  C270     1.0000 0.41200  0.89830  0.79810  Biso   1.000  C
  C271     1.0000 0.35650  0.91260  0.81900  Biso   1.000  C
  C272     1.0000 0.26540  0.94350  0.79710  Biso   1.000  C
  C273     1.0000 0.27040  0.91170  0.94850  Biso   1.000  C
  C274     1.0000 0.34150  0.90520  0.87280  Biso   1.000  C
  H136     1.0000 0.36680  0.89210  0.89810  Biso   1.000  H
  C275     1.0000 0.25020  0.93600  0.85090  Biso   1.000  C
  H137     1.0000 0.21440  0.94340  0.86160  Biso   1.000  H
  C276     1.0000 0.31880  0.93230  0.78090  Biso   1.000  C
  H138     1.0000 0.32940  0.93810  0.74480  Biso   1.000  H
  Cu47     1.0000 0.71592  0.38543  0.44088  Biso   1.000  Cu
  Cu48     1.0000 0.70257  0.48689  0.35151  Biso   1.000  Cu
  O162     1.0000 0.55669  0.37102  0.66982  Biso   1.000  O
  O163     1.0000 0.68629  0.45479  0.42097  Biso   1.000  O
  O164     1.0000 0.69405  0.39290  0.51764  Biso   1.000  O
  O165     1.0000 0.75755  0.48015  0.78928  Biso   1.000  O
  O166     1.0000 0.82553  0.45656  0.73258  Biso   1.000  O
  O167     1.0000 0.77640  0.42640  0.53857  Biso   1.000  O
  O168     1.0000 0.57340  0.41220  0.74750  Biso   1.000  O
  N47      1.0000 0.72640  0.37199  0.36200  Biso   1.000  N
  N48      1.0000 0.72340  0.41436  0.32689  Biso   1.000  N
  C277     1.0000 0.73160  0.32590  0.33300  Biso   1.000  C
  H139     1.0000 0.73490  0.29090  0.34770  Biso   1.000  H
  C278     1.0000 0.72660  0.39410  0.27600  Biso   1.000  C
  H140     1.0000 0.72580  0.41490  0.24410  Biso   1.000  H
  C279     1.0000 0.71210  0.41740  0.61040  Biso   1.000  C
  C280     1.0000 0.73140  0.33810  0.27790  Biso   1.000  C
  H141     1.0000 0.73390  0.31380  0.24870  Biso   1.000  H
  C281     1.0000 0.77610  0.46150  0.74490  Biso   1.000  C
  C282     1.0000 0.58800  0.39830  0.70190  Biso   1.000  C
  C283     1.0000 0.64350  0.41260  0.68100  Biso   1.000  C
  C284     1.0000 0.73460  0.44350  0.70290  Biso   1.000  C
  C285     1.0000 0.72960  0.41170  0.55150  Biso   1.000  C
  C286     1.0000 0.65850  0.40520  0.62720  Biso   1.000  C
  H142     1.0000 0.63320  0.39210  0.60190  Biso   1.000  H
  C287     1.0000 0.74980  0.43600  0.64910  Biso   1.000  C
  H143     1.0000 0.78560  0.44340  0.63840  Biso   1.000  H
  C288     1.0000 0.68120  0.43230  0.71910  Biso   1.000  C
  H144     1.0000 0.67060  0.43810  0.75520  Biso   1.000  H
