data_image0
_cell_length_a       13.529
_cell_length_b       32.896
_cell_length_c       39.785
_cell_angle_alpha    90
_cell_angle_beta     90
_cell_angle_gamma    90

_symmetry_space_group_name_H-M    "P 1"
_symmetry_int_tables_number       1

loop_
  _symmetry_equiv_pos_as_xyz
  'x, y, z'

loop_
  _atom_site_label
  _atom_site_occupancy
  _atom_site_fract_x
  _atom_site_fract_y
  _atom_site_fract_z
  _atom_site_thermal_displace_type
  _atom_site_B_iso_or_equiv
  _atom_site_type_symbol
  Cd1      1.0000 0.00907  0.69450  0.26054  Biso   1.000  Cd
  N1       1.0000 0.23490  0.69912  0.28652  Biso   1.000  N
  N2       1.0000 0.01170  0.66765  0.20671  Biso   1.000  N
  O1       1.0000 0.09790  0.75518  0.25421  Biso   1.000  O
  O2       1.0000 0.20310  0.80314  0.26396  Biso   1.000  O
  O3       1.0000 0.17630  0.67984  0.26554  Biso   1.000  O
  O4       1.0000 0.30500  0.61407  0.27843  Biso   1.000  O
  O5       1.0000 0.24020  0.54339  0.31663  Biso   1.000  O
  C1       1.0000 0.17720  0.76830  0.26667  Biso   1.000  C
  C2       1.0000 0.24190  0.74070  0.28755  Biso   1.000  C
  C3       1.0000 0.30950  0.75880  0.30900  Biso   1.000  C
  H1       1.0000 0.31580  0.78690  0.30900  Biso   1.000  H
  C4       1.0000 0.36750  0.73590  0.33010  Biso   1.000  C
  H2       1.0000 0.41200  0.74820  0.34480  Biso   1.000  H
  C5       1.0000 0.35760  0.69420  0.32890  Biso   1.000  C
  H3       1.0000 0.39690  0.67830  0.34280  Biso   1.000  H
  C6       1.0000 0.29180  0.67560  0.30788  Biso   1.000  C
  C7       1.0000 0.27990  0.63050  0.30623  Biso   1.000  C
  C8       1.0000 0.25030  0.61170  0.33528  Biso   1.000  C
  H4       1.0000 0.23930  0.62820  0.35390  Biso   1.000  H
  C9       1.0000 0.23480  0.56960  0.33965  Biso   1.000  C
  C10      1.0000 0.21040  0.55370  0.37355  Biso   1.000  C
  C11      1.0000 0.24570  0.57260  0.40220  Biso   1.000  C
  H5       1.0000 0.28100  0.59670  0.40030  Biso   1.000  H
  C12      1.0000 0.01800  0.69100  0.17949  Biso   1.000  C
  H6       1.0000 0.02450  0.71900  0.18230  Biso   1.000  H
  C13      1.0000 0.01510  0.67540  0.14716  Biso   1.000  C
  H7       1.0000 0.02180  0.69270  0.12880  Biso   1.000  H
  C14      1.0000 0.00220  0.63400  0.14215  Biso   1.000  C
  C15      1.0000 0.99450  0.61010  0.17100  Biso   1.000  C
  H8       1.0000 0.98550  0.58220  0.16910  Biso   1.000  H
  C16      1.0000 0.00010  0.62770  0.20234  Biso   1.000  C
  H9       1.0000 0.99570  0.61110  0.22120  Biso   1.000  H
  C17      1.0000 0.17110  0.52240  0.43690  Biso   1.000  C
  H10      1.0000 0.15670  0.51260  0.45830  Biso   1.000  H
  C18      1.0000 0.15340  0.51870  0.37640  Biso   1.000  C
  H11      1.0000 0.12880  0.50620  0.35720  Biso   1.000  H
  C19      1.0000 0.13290  0.50230  0.40830  Biso   1.000  C
  H12      1.0000 0.09510  0.47880  0.41050  Biso   1.000  H
  C20      1.0000 0.22950  0.55620  0.43330  Biso   1.000  C
  H13      1.0000 0.25820  0.56800  0.45210  Biso   1.000  H
  Cd2      1.0000 0.00907  0.19450  0.76054  Biso   1.000  Cd
  N3       1.0000 0.23490  0.19912  0.78652  Biso   1.000  N
  N4       1.0000 0.01170  0.16765  0.70671  Biso   1.000  N
  O6       1.0000 0.09790  0.25518  0.75421  Biso   1.000  O
  O7       1.0000 0.20310  0.30314  0.76396  Biso   1.000  O
  O8       1.0000 0.17630  0.17984  0.76554  Biso   1.000  O
  O9       1.0000 0.30500  0.11407  0.77843  Biso   1.000  O
  O10      1.0000 0.24020  0.04339  0.81663  Biso   1.000  O
  C21      1.0000 0.17720  0.26830  0.76667  Biso   1.000  C
  C22      1.0000 0.24190  0.24070  0.78755  Biso   1.000  C
  C23      1.0000 0.30950  0.25880  0.80900  Biso   1.000  C
  H14      1.0000 0.31580  0.28690  0.80900  Biso   1.000  H
  C24      1.0000 0.36750  0.23590  0.83010  Biso   1.000  C
  H15      1.0000 0.41200  0.24820  0.84480  Biso   1.000  H
  C25      1.0000 0.35760  0.19420  0.82890  Biso   1.000  C
  H16      1.0000 0.39690  0.17830  0.84280  Biso   1.000  H
  C26      1.0000 0.29180  0.17560  0.80788  Biso   1.000  C
  C27      1.0000 0.27990  0.13050  0.80623  Biso   1.000  C
  C28      1.0000 0.25030  0.11170  0.83528  Biso   1.000  C
  H17      1.0000 0.23930  0.12820  0.85390  Biso   1.000  H
  C29      1.0000 0.23480  0.06960  0.83965  Biso   1.000  C
  C30      1.0000 0.21040  0.05370  0.87355  Biso   1.000  C
  C31      1.0000 0.24570  0.07260  0.90220  Biso   1.000  C
  H18      1.0000 0.28100  0.09670  0.90030  Biso   1.000  H
  C32      1.0000 0.01800  0.19100  0.67949  Biso   1.000  C
  H19      1.0000 0.02450  0.21900  0.68230  Biso   1.000  H
  C33      1.0000 0.01510  0.17540  0.64716  Biso   1.000  C
  H20      1.0000 0.02180  0.19270  0.62880  Biso   1.000  H
  C34      1.0000 0.00220  0.13400  0.64215  Biso   1.000  C
  C35      1.0000 0.99450  0.11010  0.67100  Biso   1.000  C
  H21      1.0000 0.98550  0.08220  0.66910  Biso   1.000  H
  C36      1.0000 0.00010  0.12770  0.70234  Biso   1.000  C
  H22      1.0000 0.99570  0.11110  0.72120  Biso   1.000  H
  C37      1.0000 0.17110  0.02240  0.93690  Biso   1.000  C
  H23      1.0000 0.15670  0.01260  0.95830  Biso   1.000  H
  C38      1.0000 0.15340  0.01870  0.87640  Biso   1.000  C
  H24      1.0000 0.12880  0.00620  0.85720  Biso   1.000  H
  C39      1.0000 0.13290  0.00230  0.90830  Biso   1.000  C
  H25      1.0000 0.09510  0.97880  0.91050  Biso   1.000  H
  C40      1.0000 0.22950  0.05620  0.93330  Biso   1.000  C
  H26      1.0000 0.25820  0.06800  0.95210  Biso   1.000  H
  Cd3      1.0000 0.50907  0.69450  0.76054  Biso   1.000  Cd
  N5       1.0000 0.73490  0.69912  0.78652  Biso   1.000  N
  N6       1.0000 0.51170  0.66765  0.70671  Biso   1.000  N
  O11      1.0000 0.59790  0.75518  0.75421  Biso   1.000  O
  O12      1.0000 0.70310  0.80314  0.76396  Biso   1.000  O
  O13      1.0000 0.67630  0.67984  0.76554  Biso   1.000  O
  O14      1.0000 0.80500  0.61407  0.77843  Biso   1.000  O
  O15      1.0000 0.74020  0.54339  0.81663  Biso   1.000  O
  C41      1.0000 0.67720  0.76830  0.76667  Biso   1.000  C
  C42      1.0000 0.74190  0.74070  0.78755  Biso   1.000  C
  C43      1.0000 0.80950  0.75880  0.80900  Biso   1.000  C
  H27      1.0000 0.81580  0.78690  0.80900  Biso   1.000  H
  C44      1.0000 0.86750  0.73590  0.83010  Biso   1.000  C
  H28      1.0000 0.91200  0.74820  0.84480  Biso   1.000  H
  C45      1.0000 0.85760  0.69420  0.82890  Biso   1.000  C
  H29      1.0000 0.89690  0.67830  0.84280  Biso   1.000  H
  C46      1.0000 0.79180  0.67560  0.80788  Biso   1.000  C
  C47      1.0000 0.77990  0.63050  0.80623  Biso   1.000  C
  C48      1.0000 0.75030  0.61170  0.83528  Biso   1.000  C
  H30      1.0000 0.73930  0.62820  0.85390  Biso   1.000  H
  C49      1.0000 0.73480  0.56960  0.83965  Biso   1.000  C
  C50      1.0000 0.71040  0.55370  0.87355  Biso   1.000  C
  C51      1.0000 0.74570  0.57260  0.90220  Biso   1.000  C
  H31      1.0000 0.78100  0.59670  0.90030  Biso   1.000  H
  C52      1.0000 0.51800  0.69100  0.67949  Biso   1.000  C
  H32      1.0000 0.52450  0.71900  0.68230  Biso   1.000  H
  C53      1.0000 0.51510  0.67540  0.64716  Biso   1.000  C
  H33      1.0000 0.52180  0.69270  0.62880  Biso   1.000  H
  C54      1.0000 0.50220  0.63400  0.64215  Biso   1.000  C
  C55      1.0000 0.49450  0.61010  0.67100  Biso   1.000  C
  H34      1.0000 0.48550  0.58220  0.66910  Biso   1.000  H
  C56      1.0000 0.50010  0.62770  0.70234  Biso   1.000  C
  H35      1.0000 0.49570  0.61110  0.72120  Biso   1.000  H
  C57      1.0000 0.67110  0.52240  0.93690  Biso   1.000  C
  H36      1.0000 0.65670  0.51260  0.95830  Biso   1.000  H
  C58      1.0000 0.65340  0.51870  0.87640  Biso   1.000  C
  H37      1.0000 0.62880  0.50620  0.85720  Biso   1.000  H
  C59      1.0000 0.63290  0.50230  0.90830  Biso   1.000  C
  H38      1.0000 0.59510  0.47880  0.91050  Biso   1.000  H
  C60      1.0000 0.72950  0.55620  0.93330  Biso   1.000  C
  H39      1.0000 0.75820  0.56800  0.95210  Biso   1.000  H
  Cd4      1.0000 0.50907  0.19450  0.26054  Biso   1.000  Cd
  N7       1.0000 0.73490  0.19912  0.28652  Biso   1.000  N
  N8       1.0000 0.51170  0.16765  0.20671  Biso   1.000  N
  O16      1.0000 0.59790  0.25518  0.25421  Biso   1.000  O
  O17      1.0000 0.70310  0.30314  0.26396  Biso   1.000  O
  O18      1.0000 0.67630  0.17984  0.26554  Biso   1.000  O
  O19      1.0000 0.80500  0.11407  0.27843  Biso   1.000  O
  O20      1.0000 0.74020  0.04339  0.31663  Biso   1.000  O
  C61      1.0000 0.67720  0.26830  0.26667  Biso   1.000  C
  C62      1.0000 0.74190  0.24070  0.28755  Biso   1.000  C
  C63      1.0000 0.80950  0.25880  0.30900  Biso   1.000  C
  H40      1.0000 0.81580  0.28690  0.30900  Biso   1.000  H
  C64      1.0000 0.86750  0.23590  0.33010  Biso   1.000  C
  H41      1.0000 0.91200  0.24820  0.34480  Biso   1.000  H
  C65      1.0000 0.85760  0.19420  0.32890  Biso   1.000  C
  H42      1.0000 0.89690  0.17830  0.34280  Biso   1.000  H
  C66      1.0000 0.79180  0.17560  0.30788  Biso   1.000  C
  C67      1.0000 0.77990  0.13050  0.30623  Biso   1.000  C
  C68      1.0000 0.75030  0.11170  0.33528  Biso   1.000  C
  H43      1.0000 0.73930  0.12820  0.35390  Biso   1.000  H
  C69      1.0000 0.73480  0.06960  0.33965  Biso   1.000  C
  C70      1.0000 0.71040  0.05370  0.37355  Biso   1.000  C
  C71      1.0000 0.74570  0.07260  0.40220  Biso   1.000  C
  H44      1.0000 0.78100  0.09670  0.40030  Biso   1.000  H
  C72      1.0000 0.51800  0.19100  0.17949  Biso   1.000  C
  H45      1.0000 0.52450  0.21900  0.18230  Biso   1.000  H
  C73      1.0000 0.51510  0.17540  0.14716  Biso   1.000  C
  H46      1.0000 0.52180  0.19270  0.12880  Biso   1.000  H
  C74      1.0000 0.50220  0.13400  0.14215  Biso   1.000  C
  C75      1.0000 0.49450  0.11010  0.17100  Biso   1.000  C
  H47      1.0000 0.48550  0.08220  0.16910  Biso   1.000  H
  C76      1.0000 0.50010  0.12770  0.20234  Biso   1.000  C
  H48      1.0000 0.49570  0.11110  0.22120  Biso   1.000  H
  C77      1.0000 0.67110  0.02240  0.43690  Biso   1.000  C
  H49      1.0000 0.65670  0.01260  0.45830  Biso   1.000  H
  C78      1.0000 0.65340  0.01870  0.37640  Biso   1.000  C
  H50      1.0000 0.62880  0.00620  0.35720  Biso   1.000  H
  C79      1.0000 0.63290  0.00230  0.40830  Biso   1.000  C
  H51      1.0000 0.59510  0.97880  0.41050  Biso   1.000  H
  C80      1.0000 0.72950  0.05620  0.43330  Biso   1.000  C
  H52      1.0000 0.75820  0.06800  0.45210  Biso   1.000  H
  Cd5      1.0000 0.74093  0.05550  0.26054  Biso   1.000  Cd
  N9       1.0000 0.51510  0.05088  0.28652  Biso   1.000  N
  N10      1.0000 0.73830  0.08235  0.20671  Biso   1.000  N
  O21      1.0000 0.65210  0.99482  0.25421  Biso   1.000  O
  O22      1.0000 0.54690  0.94686  0.26396  Biso   1.000  O
  O23      1.0000 0.57370  0.07016  0.26554  Biso   1.000  O
  O24      1.0000 0.44500  0.13593  0.27843  Biso   1.000  O
  O25      1.0000 0.50980  0.20661  0.31663  Biso   1.000  O
  C81      1.0000 0.57280  0.98170  0.26667  Biso   1.000  C
  C82      1.0000 0.50810  0.00930  0.28755  Biso   1.000  C
  C83      1.0000 0.44050  0.99120  0.30900  Biso   1.000  C
  H53      1.0000 0.43420  0.96310  0.30900  Biso   1.000  H
  C84      1.0000 0.38250  0.01410  0.33010  Biso   1.000  C
  H54      1.0000 0.33800  0.00180  0.34480  Biso   1.000  H
  C85      1.0000 0.39240  0.05580  0.32890  Biso   1.000  C
  H55      1.0000 0.35310  0.07170  0.34280  Biso   1.000  H
  C86      1.0000 0.45820  0.07440  0.30788  Biso   1.000  C
  C87      1.0000 0.47010  0.11950  0.30623  Biso   1.000  C
  C88      1.0000 0.49970  0.13830  0.33528  Biso   1.000  C
  H56      1.0000 0.51070  0.12180  0.35390  Biso   1.000  H
  C89      1.0000 0.51520  0.18040  0.33965  Biso   1.000  C
  C90      1.0000 0.53960  0.19630  0.37355  Biso   1.000  C
  C91      1.0000 0.50430  0.17740  0.40220  Biso   1.000  C
  H57      1.0000 0.46900  0.15330  0.40030  Biso   1.000  H
  C92      1.0000 0.73200  0.05900  0.17949  Biso   1.000  C
  H58      1.0000 0.72550  0.03100  0.18230  Biso   1.000  H
  C93      1.0000 0.73490  0.07460  0.14716  Biso   1.000  C
  H59      1.0000 0.72820  0.05730  0.12880  Biso   1.000  H
  C94      1.0000 0.74780  0.11600  0.14215  Biso   1.000  C
  C95      1.0000 0.75550  0.13990  0.17100  Biso   1.000  C
  H60      1.0000 0.76450  0.16780  0.16910  Biso   1.000  H
  C96      1.0000 0.74990  0.12230  0.20234  Biso   1.000  C
  H61      1.0000 0.75430  0.13890  0.22120  Biso   1.000  H
  C97      1.0000 0.57890  0.22760  0.43690  Biso   1.000  C
  H62      1.0000 0.59330  0.23740  0.45830  Biso   1.000  H
  C98      1.0000 0.59660  0.23130  0.37640  Biso   1.000  C
  H63      1.0000 0.62120  0.24380  0.35720  Biso   1.000  H
  C99      1.0000 0.61710  0.24770  0.40830  Biso   1.000  C
  H64      1.0000 0.65490  0.27120  0.41050  Biso   1.000  H
  C100     1.0000 0.52050  0.19380  0.43330  Biso   1.000  C
  H65      1.0000 0.49180  0.18200  0.45210  Biso   1.000  H
  Cd6      1.0000 0.74093  0.55550  0.76054  Biso   1.000  Cd
  N11      1.0000 0.51510  0.55088  0.78652  Biso   1.000  N
  N12      1.0000 0.73830  0.58235  0.70671  Biso   1.000  N
  O26      1.0000 0.65210  0.49482  0.75421  Biso   1.000  O
  O27      1.0000 0.54690  0.44686  0.76396  Biso   1.000  O
  O28      1.0000 0.57370  0.57016  0.76554  Biso   1.000  O
  O29      1.0000 0.44500  0.63593  0.77843  Biso   1.000  O
  O30      1.0000 0.50980  0.70661  0.81663  Biso   1.000  O
  C101     1.0000 0.57280  0.48170  0.76667  Biso   1.000  C
  C102     1.0000 0.50810  0.50930  0.78755  Biso   1.000  C
  C103     1.0000 0.44050  0.49120  0.80900  Biso   1.000  C
  H66      1.0000 0.43420  0.46310  0.80900  Biso   1.000  H
  C104     1.0000 0.38250  0.51410  0.83010  Biso   1.000  C
  H67      1.0000 0.33800  0.50180  0.84480  Biso   1.000  H
  C105     1.0000 0.39240  0.55580  0.82890  Biso   1.000  C
  H68      1.0000 0.35310  0.57170  0.84280  Biso   1.000  H
  C106     1.0000 0.45820  0.57440  0.80788  Biso   1.000  C
  C107     1.0000 0.47010  0.61950  0.80623  Biso   1.000  C
  C108     1.0000 0.49970  0.63830  0.83528  Biso   1.000  C
  H69      1.0000 0.51070  0.62180  0.85390  Biso   1.000  H
  C109     1.0000 0.51520  0.68040  0.83965  Biso   1.000  C
  C110     1.0000 0.53960  0.69630  0.87355  Biso   1.000  C
  C111     1.0000 0.50430  0.67740  0.90220  Biso   1.000  C
  H70      1.0000 0.46900  0.65330  0.90030  Biso   1.000  H
  C112     1.0000 0.73200  0.55900  0.67949  Biso   1.000  C
  H71      1.0000 0.72550  0.53100  0.68230  Biso   1.000  H
  C113     1.0000 0.73490  0.57460  0.64716  Biso   1.000  C
  H72      1.0000 0.72820  0.55730  0.62880  Biso   1.000  H
  C114     1.0000 0.74780  0.61600  0.64215  Biso   1.000  C
  C115     1.0000 0.75550  0.63990  0.67100  Biso   1.000  C
  H73      1.0000 0.76450  0.66780  0.66910  Biso   1.000  H
  C116     1.0000 0.74990  0.62230  0.70234  Biso   1.000  C
  H74      1.0000 0.75430  0.63890  0.72120  Biso   1.000  H
  C117     1.0000 0.57890  0.72760  0.93690  Biso   1.000  C
  H75      1.0000 0.59330  0.73740  0.95830  Biso   1.000  H
  C118     1.0000 0.59660  0.73130  0.87640  Biso   1.000  C
  H76      1.0000 0.62120  0.74380  0.85720  Biso   1.000  H
  C119     1.0000 0.61710  0.74770  0.90830  Biso   1.000  C
  H77      1.0000 0.65490  0.77120  0.91050  Biso   1.000  H
  C120     1.0000 0.52050  0.69380  0.93330  Biso   1.000  C
  H78      1.0000 0.49180  0.68200  0.95210  Biso   1.000  H
  Cd7      1.0000 0.24093  0.05550  0.76054  Biso   1.000  Cd
  N13      1.0000 0.01510  0.05088  0.78652  Biso   1.000  N
  N14      1.0000 0.23830  0.08235  0.70671  Biso   1.000  N
  O31      1.0000 0.15210  0.99482  0.75421  Biso   1.000  O
  O32      1.0000 0.04690  0.94686  0.76396  Biso   1.000  O
  O33      1.0000 0.07370  0.07016  0.76554  Biso   1.000  O
  O34      1.0000 0.94500  0.13593  0.77843  Biso   1.000  O
  O35      1.0000 0.00980  0.20661  0.81663  Biso   1.000  O
  C121     1.0000 0.07280  0.98170  0.76667  Biso   1.000  C
  C122     1.0000 0.00810  0.00930  0.78755  Biso   1.000  C
  C123     1.0000 0.94050  0.99120  0.80900  Biso   1.000  C
  H79      1.0000 0.93420  0.96310  0.80900  Biso   1.000  H
  C124     1.0000 0.88250  0.01410  0.83010  Biso   1.000  C
  H80      1.0000 0.83800  0.00180  0.84480  Biso   1.000  H
  C125     1.0000 0.89240  0.05580  0.82890  Biso   1.000  C
  H81      1.0000 0.85310  0.07170  0.84280  Biso   1.000  H
  C126     1.0000 0.95820  0.07440  0.80788  Biso   1.000  C
  C127     1.0000 0.97010  0.11950  0.80623  Biso   1.000  C
  C128     1.0000 0.99970  0.13830  0.83528  Biso   1.000  C
  H82      1.0000 0.01070  0.12180  0.85390  Biso   1.000  H
  C129     1.0000 0.01520  0.18040  0.83965  Biso   1.000  C
  C130     1.0000 0.03960  0.19630  0.87355  Biso   1.000  C
  C131     1.0000 0.00430  0.17740  0.90220  Biso   1.000  C
  H83      1.0000 0.96900  0.15330  0.90030  Biso   1.000  H
  C132     1.0000 0.23200  0.05900  0.67949  Biso   1.000  C
  H84      1.0000 0.22550  0.03100  0.68230  Biso   1.000  H
  C133     1.0000 0.23490  0.07460  0.64716  Biso   1.000  C
  H85      1.0000 0.22820  0.05730  0.62880  Biso   1.000  H
  C134     1.0000 0.24780  0.11600  0.64215  Biso   1.000  C
  C135     1.0000 0.25550  0.13990  0.67100  Biso   1.000  C
  H86      1.0000 0.26450  0.16780  0.66910  Biso   1.000  H
  C136     1.0000 0.24990  0.12230  0.70234  Biso   1.000  C
  H87      1.0000 0.25430  0.13890  0.72120  Biso   1.000  H
  C137     1.0000 0.07890  0.22760  0.93690  Biso   1.000  C
  H88      1.0000 0.09330  0.23740  0.95830  Biso   1.000  H
  C138     1.0000 0.09660  0.23130  0.87640  Biso   1.000  C
  H89      1.0000 0.12120  0.24380  0.85720  Biso   1.000  H
  C139     1.0000 0.11710  0.24770  0.90830  Biso   1.000  C
  H90      1.0000 0.15490  0.27120  0.91050  Biso   1.000  H
  C140     1.0000 0.02050  0.19380  0.93330  Biso   1.000  C
  H91      1.0000 0.99180  0.18200  0.95210  Biso   1.000  H
  Cd8      1.0000 0.24093  0.55550  0.26054  Biso   1.000  Cd
  N15      1.0000 0.01510  0.55088  0.28652  Biso   1.000  N
  N16      1.0000 0.23830  0.58235  0.20671  Biso   1.000  N
  O36      1.0000 0.15210  0.49482  0.25421  Biso   1.000  O
  O37      1.0000 0.04690  0.44686  0.26396  Biso   1.000  O
  O38      1.0000 0.07370  0.57016  0.26554  Biso   1.000  O
  O39      1.0000 0.94500  0.63593  0.27843  Biso   1.000  O
  O40      1.0000 0.00980  0.70661  0.31663  Biso   1.000  O
  C141     1.0000 0.07280  0.48170  0.26667  Biso   1.000  C
  C142     1.0000 0.00810  0.50930  0.28755  Biso   1.000  C
  C143     1.0000 0.94050  0.49120  0.30900  Biso   1.000  C
  H92      1.0000 0.93420  0.46310  0.30900  Biso   1.000  H
  C144     1.0000 0.88250  0.51410  0.33010  Biso   1.000  C
  H93      1.0000 0.83800  0.50180  0.34480  Biso   1.000  H
  C145     1.0000 0.89240  0.55580  0.32890  Biso   1.000  C
  H94      1.0000 0.85310  0.57170  0.34280  Biso   1.000  H
  C146     1.0000 0.95820  0.57440  0.30788  Biso   1.000  C
  C147     1.0000 0.97010  0.61950  0.30623  Biso   1.000  C
  C148     1.0000 0.99970  0.63830  0.33528  Biso   1.000  C
  H95      1.0000 0.01070  0.62180  0.35390  Biso   1.000  H
  C149     1.0000 0.01520  0.68040  0.33965  Biso   1.000  C
  C150     1.0000 0.03960  0.69630  0.37355  Biso   1.000  C
  C151     1.0000 0.00430  0.67740  0.40220  Biso   1.000  C
  H96      1.0000 0.96900  0.65330  0.40030  Biso   1.000  H
  C152     1.0000 0.23200  0.55900  0.17949  Biso   1.000  C
  H97      1.0000 0.22550  0.53100  0.18230  Biso   1.000  H
  C153     1.0000 0.23490  0.57460  0.14716  Biso   1.000  C
  H98      1.0000 0.22820  0.55730  0.12880  Biso   1.000  H
  C154     1.0000 0.24780  0.61600  0.14215  Biso   1.000  C
  C155     1.0000 0.25550  0.63990  0.17100  Biso   1.000  C
  H99      1.0000 0.26450  0.66780  0.16910  Biso   1.000  H
  C156     1.0000 0.24990  0.62230  0.20234  Biso   1.000  C
  H100     1.0000 0.25430  0.63890  0.22120  Biso   1.000  H
  C157     1.0000 0.07890  0.72760  0.43690  Biso   1.000  C
  H101     1.0000 0.09330  0.73740  0.45830  Biso   1.000  H
  C158     1.0000 0.09660  0.73130  0.37640  Biso   1.000  C
  H102     1.0000 0.12120  0.74380  0.35720  Biso   1.000  H
  C159     1.0000 0.11710  0.74770  0.40830  Biso   1.000  C
  H103     1.0000 0.15490  0.77120  0.41050  Biso   1.000  H
  C160     1.0000 0.02050  0.69380  0.43330  Biso   1.000  C
  H104     1.0000 0.99180  0.68200  0.45210  Biso   1.000  H
  Cd9      1.0000 0.74093  0.69450  0.48946  Biso   1.000  Cd
  N17      1.0000 0.51510  0.69912  0.46348  Biso   1.000  N
  N18      1.0000 0.73830  0.66765  0.54329  Biso   1.000  N
  O41      1.0000 0.65210  0.75518  0.49579  Biso   1.000  O
  O42      1.0000 0.54690  0.80314  0.48604  Biso   1.000  O
  O43      1.0000 0.57370  0.67984  0.48446  Biso   1.000  O
  O44      1.0000 0.44500  0.61407  0.47157  Biso   1.000  O
  O45      1.0000 0.50980  0.54339  0.43337  Biso   1.000  O
  C161     1.0000 0.57280  0.76830  0.48333  Biso   1.000  C
  C162     1.0000 0.50810  0.74070  0.46245  Biso   1.000  C
  C163     1.0000 0.44050  0.75880  0.44100  Biso   1.000  C
  H105     1.0000 0.43420  0.78690  0.44100  Biso   1.000  H
  C164     1.0000 0.38250  0.73590  0.41990  Biso   1.000  C
  H106     1.0000 0.33800  0.74820  0.40520  Biso   1.000  H
  C165     1.0000 0.39240  0.69420  0.42110  Biso   1.000  C
  H107     1.0000 0.35310  0.67830  0.40720  Biso   1.000  H
  C166     1.0000 0.45820  0.67560  0.44212  Biso   1.000  C
  C167     1.0000 0.47010  0.63050  0.44377  Biso   1.000  C
  C168     1.0000 0.49970  0.61170  0.41472  Biso   1.000  C
  H108     1.0000 0.51070  0.62820  0.39610  Biso   1.000  H
  C169     1.0000 0.51520  0.56960  0.41035  Biso   1.000  C
  C170     1.0000 0.53960  0.55370  0.37645  Biso   1.000  C
  C171     1.0000 0.50430  0.57260  0.34780  Biso   1.000  C
  H109     1.0000 0.46900  0.59670  0.34970  Biso   1.000  H
  C172     1.0000 0.73200  0.69100  0.57051  Biso   1.000  C
  H110     1.0000 0.72550  0.71900  0.56770  Biso   1.000  H
  C173     1.0000 0.73490  0.67540  0.60284  Biso   1.000  C
  H111     1.0000 0.72820  0.69270  0.62120  Biso   1.000  H
  C174     1.0000 0.74780  0.63400  0.60785  Biso   1.000  C
  C175     1.0000 0.75550  0.61010  0.57900  Biso   1.000  C
  H112     1.0000 0.76450  0.58220  0.58090  Biso   1.000  H
  C176     1.0000 0.74990  0.62770  0.54766  Biso   1.000  C
  H113     1.0000 0.75430  0.61110  0.52880  Biso   1.000  H
  C177     1.0000 0.57890  0.52240  0.31310  Biso   1.000  C
  H114     1.0000 0.59330  0.51260  0.29170  Biso   1.000  H
  C178     1.0000 0.59660  0.51870  0.37360  Biso   1.000  C
  H115     1.0000 0.62120  0.50620  0.39280  Biso   1.000  H
  C179     1.0000 0.61710  0.50230  0.34170  Biso   1.000  C
  H116     1.0000 0.65490  0.47880  0.33950  Biso   1.000  H
  C180     1.0000 0.52050  0.55620  0.31670  Biso   1.000  C
  H117     1.0000 0.49180  0.56800  0.29790  Biso   1.000  H
  Cd10     1.0000 0.74093  0.19450  0.98946  Biso   1.000  Cd
  N19      1.0000 0.51510  0.19912  0.96348  Biso   1.000  N
  N20      1.0000 0.73830  0.16765  0.04329  Biso   1.000  N
  O46      1.0000 0.65210  0.25518  0.99579  Biso   1.000  O
  O47      1.0000 0.54690  0.30314  0.98604  Biso   1.000  O
  O48      1.0000 0.57370  0.17984  0.98446  Biso   1.000  O
  O49      1.0000 0.44500  0.11407  0.97157  Biso   1.000  O
  O50      1.0000 0.50980  0.04339  0.93337  Biso   1.000  O
  C181     1.0000 0.57280  0.26830  0.98333  Biso   1.000  C
  C182     1.0000 0.50810  0.24070  0.96245  Biso   1.000  C
  C183     1.0000 0.44050  0.25880  0.94100  Biso   1.000  C
  H118     1.0000 0.43420  0.28690  0.94100  Biso   1.000  H
  C184     1.0000 0.38250  0.23590  0.91990  Biso   1.000  C
  H119     1.0000 0.33800  0.24820  0.90520  Biso   1.000  H
  C185     1.0000 0.39240  0.19420  0.92110  Biso   1.000  C
  H120     1.0000 0.35310  0.17830  0.90720  Biso   1.000  H
  C186     1.0000 0.45820  0.17560  0.94212  Biso   1.000  C
  C187     1.0000 0.47010  0.13050  0.94377  Biso   1.000  C
  C188     1.0000 0.49970  0.11170  0.91472  Biso   1.000  C
  H121     1.0000 0.51070  0.12820  0.89610  Biso   1.000  H
  C189     1.0000 0.51520  0.06960  0.91035  Biso   1.000  C
  C190     1.0000 0.53960  0.05370  0.87645  Biso   1.000  C
  C191     1.0000 0.50430  0.07260  0.84780  Biso   1.000  C
  H122     1.0000 0.46900  0.09670  0.84970  Biso   1.000  H
  C192     1.0000 0.73200  0.19100  0.07051  Biso   1.000  C
  H123     1.0000 0.72550  0.21900  0.06770  Biso   1.000  H
  C193     1.0000 0.73490  0.17540  0.10284  Biso   1.000  C
  H124     1.0000 0.72820  0.19270  0.12120  Biso   1.000  H
  C194     1.0000 0.74780  0.13400  0.10785  Biso   1.000  C
  C195     1.0000 0.75550  0.11010  0.07900  Biso   1.000  C
  H125     1.0000 0.76450  0.08220  0.08090  Biso   1.000  H
  C196     1.0000 0.74990  0.12770  0.04766  Biso   1.000  C
  H126     1.0000 0.75430  0.11110  0.02880  Biso   1.000  H
  C197     1.0000 0.57890  0.02240  0.81310  Biso   1.000  C
  H127     1.0000 0.59330  0.01260  0.79170  Biso   1.000  H
  C198     1.0000 0.59660  0.01870  0.87360  Biso   1.000  C
  H128     1.0000 0.62120  0.00620  0.89280  Biso   1.000  H
  C199     1.0000 0.61710  0.00230  0.84170  Biso   1.000  C
  H129     1.0000 0.65490  0.97880  0.83950  Biso   1.000  H
  C200     1.0000 0.52050  0.05620  0.81670  Biso   1.000  C
  H130     1.0000 0.49180  0.06800  0.79790  Biso   1.000  H
  Cd11     1.0000 0.24093  0.69450  0.98946  Biso   1.000  Cd
  N21      1.0000 0.01510  0.69912  0.96348  Biso   1.000  N
  N22      1.0000 0.23830  0.66765  0.04329  Biso   1.000  N
  O51      1.0000 0.15210  0.75518  0.99579  Biso   1.000  O
  O52      1.0000 0.04690  0.80314  0.98604  Biso   1.000  O
  O53      1.0000 0.07370  0.67984  0.98446  Biso   1.000  O
  O54      1.0000 0.94500  0.61407  0.97157  Biso   1.000  O
  O55      1.0000 0.00980  0.54339  0.93337  Biso   1.000  O
  C201     1.0000 0.07280  0.76830  0.98333  Biso   1.000  C
  C202     1.0000 0.00810  0.74070  0.96245  Biso   1.000  C
  C203     1.0000 0.94050  0.75880  0.94100  Biso   1.000  C
  H131     1.0000 0.93420  0.78690  0.94100  Biso   1.000  H
  C204     1.0000 0.88250  0.73590  0.91990  Biso   1.000  C
  H132     1.0000 0.83800  0.74820  0.90520  Biso   1.000  H
  C205     1.0000 0.89240  0.69420  0.92110  Biso   1.000  C
  H133     1.0000 0.85310  0.67830  0.90720  Biso   1.000  H
  C206     1.0000 0.95820  0.67560  0.94212  Biso   1.000  C
  C207     1.0000 0.97010  0.63050  0.94377  Biso   1.000  C
  C208     1.0000 0.99970  0.61170  0.91472  Biso   1.000  C
  H134     1.0000 0.01070  0.62820  0.89610  Biso   1.000  H
  C209     1.0000 0.01520  0.56960  0.91035  Biso   1.000  C
  C210     1.0000 0.03960  0.55370  0.87645  Biso   1.000  C
  C211     1.0000 0.00430  0.57260  0.84780  Biso   1.000  C
  H135     1.0000 0.96900  0.59670  0.84970  Biso   1.000  H
  C212     1.0000 0.23200  0.69100  0.07051  Biso   1.000  C
  H136     1.0000 0.22550  0.71900  0.06770  Biso   1.000  H
  C213     1.0000 0.23490  0.67540  0.10284  Biso   1.000  C
  H137     1.0000 0.22820  0.69270  0.12120  Biso   1.000  H
  C214     1.0000 0.24780  0.63400  0.10785  Biso   1.000  C
  C215     1.0000 0.25550  0.61010  0.07900  Biso   1.000  C
  H138     1.0000 0.26450  0.58220  0.08090  Biso   1.000  H
  C216     1.0000 0.24990  0.62770  0.04766  Biso   1.000  C
  H139     1.0000 0.25430  0.61110  0.02880  Biso   1.000  H
  C217     1.0000 0.07890  0.52240  0.81310  Biso   1.000  C
  H140     1.0000 0.09330  0.51260  0.79170  Biso   1.000  H
  C218     1.0000 0.09660  0.51870  0.87360  Biso   1.000  C
  H141     1.0000 0.12120  0.50620  0.89280  Biso   1.000  H
  C219     1.0000 0.11710  0.50230  0.84170  Biso   1.000  C
  H142     1.0000 0.15490  0.47880  0.83950  Biso   1.000  H
  C220     1.0000 0.02050  0.55620  0.81670  Biso   1.000  C
  H143     1.0000 0.99180  0.56800  0.79790  Biso   1.000  H
  Cd12     1.0000 0.24093  0.19450  0.48946  Biso   1.000  Cd
  N23      1.0000 0.01510  0.19912  0.46348  Biso   1.000  N
  N24      1.0000 0.23830  0.16765  0.54329  Biso   1.000  N
  O56      1.0000 0.15210  0.25518  0.49579  Biso   1.000  O
  O57      1.0000 0.04690  0.30314  0.48604  Biso   1.000  O
  O58      1.0000 0.07370  0.17984  0.48446  Biso   1.000  O
  O59      1.0000 0.94500  0.11407  0.47157  Biso   1.000  O
  O60      1.0000 0.00980  0.04339  0.43337  Biso   1.000  O
  C221     1.0000 0.07280  0.26830  0.48333  Biso   1.000  C
  C222     1.0000 0.00810  0.24070  0.46245  Biso   1.000  C
  C223     1.0000 0.94050  0.25880  0.44100  Biso   1.000  C
  H144     1.0000 0.93420  0.28690  0.44100  Biso   1.000  H
  C224     1.0000 0.88250  0.23590  0.41990  Biso   1.000  C
  H145     1.0000 0.83800  0.24820  0.40520  Biso   1.000  H
  C225     1.0000 0.89240  0.19420  0.42110  Biso   1.000  C
  H146     1.0000 0.85310  0.17830  0.40720  Biso   1.000  H
  C226     1.0000 0.95820  0.17560  0.44212  Biso   1.000  C
  C227     1.0000 0.97010  0.13050  0.44377  Biso   1.000  C
  C228     1.0000 0.99970  0.11170  0.41472  Biso   1.000  C
  H147     1.0000 0.01070  0.12820  0.39610  Biso   1.000  H
  C229     1.0000 0.01520  0.06960  0.41035  Biso   1.000  C
  C230     1.0000 0.03960  0.05370  0.37645  Biso   1.000  C
  C231     1.0000 0.00430  0.07260  0.34780  Biso   1.000  C
  H148     1.0000 0.96900  0.09670  0.34970  Biso   1.000  H
  C232     1.0000 0.23200  0.19100  0.57051  Biso   1.000  C
  H149     1.0000 0.22550  0.21900  0.56770  Biso   1.000  H
  C233     1.0000 0.23490  0.17540  0.60284  Biso   1.000  C
  H150     1.0000 0.22820  0.19270  0.62120  Biso   1.000  H
  C234     1.0000 0.24780  0.13400  0.60785  Biso   1.000  C
  C235     1.0000 0.25550  0.11010  0.57900  Biso   1.000  C
  H151     1.0000 0.26450  0.08220  0.58090  Biso   1.000  H
  C236     1.0000 0.24990  0.12770  0.54766  Biso   1.000  C
  H152     1.0000 0.25430  0.11110  0.52880  Biso   1.000  H
  C237     1.0000 0.07890  0.02240  0.31310  Biso   1.000  C
  H153     1.0000 0.09330  0.01260  0.29170  Biso   1.000  H
  C238     1.0000 0.09660  0.01870  0.37360  Biso   1.000  C
  H154     1.0000 0.12120  0.00620  0.39280  Biso   1.000  H
  C239     1.0000 0.11710  0.00230  0.34170  Biso   1.000  C
  H155     1.0000 0.15490  0.97880  0.33950  Biso   1.000  H
  C240     1.0000 0.02050  0.05620  0.31670  Biso   1.000  C
  H156     1.0000 0.99180  0.06800  0.29790  Biso   1.000  H
  Cd13     1.0000 0.00907  0.05550  0.48946  Biso   1.000  Cd
  N25      1.0000 0.23490  0.05088  0.46348  Biso   1.000  N
  N26      1.0000 0.01170  0.08235  0.54329  Biso   1.000  N
  O61      1.0000 0.09790  0.99482  0.49579  Biso   1.000  O
  O62      1.0000 0.20310  0.94686  0.48604  Biso   1.000  O
  O63      1.0000 0.17630  0.07016  0.48446  Biso   1.000  O
  O64      1.0000 0.30500  0.13593  0.47157  Biso   1.000  O
  O65      1.0000 0.24020  0.20661  0.43337  Biso   1.000  O
  C241     1.0000 0.17720  0.98170  0.48333  Biso   1.000  C
  C242     1.0000 0.24190  0.00930  0.46245  Biso   1.000  C
  C243     1.0000 0.30950  0.99120  0.44100  Biso   1.000  C
  H157     1.0000 0.31580  0.96310  0.44100  Biso   1.000  H
  C244     1.0000 0.36750  0.01410  0.41990  Biso   1.000  C
  H158     1.0000 0.41200  0.00180  0.40520  Biso   1.000  H
  C245     1.0000 0.35760  0.05580  0.42110  Biso   1.000  C
  H159     1.0000 0.39690  0.07170  0.40720  Biso   1.000  H
  C246     1.0000 0.29180  0.07440  0.44212  Biso   1.000  C
  C247     1.0000 0.27990  0.11950  0.44377  Biso   1.000  C
  C248     1.0000 0.25030  0.13830  0.41472  Biso   1.000  C
  H160     1.0000 0.23930  0.12180  0.39610  Biso   1.000  H
  C249     1.0000 0.23480  0.18040  0.41035  Biso   1.000  C
  C250     1.0000 0.21040  0.19630  0.37645  Biso   1.000  C
  C251     1.0000 0.24570  0.17740  0.34780  Biso   1.000  C
  H161     1.0000 0.28100  0.15330  0.34970  Biso   1.000  H
  C252     1.0000 0.01800  0.05900  0.57051  Biso   1.000  C
  H162     1.0000 0.02450  0.03100  0.56770  Biso   1.000  H
  C253     1.0000 0.01510  0.07460  0.60284  Biso   1.000  C
  H163     1.0000 0.02180  0.05730  0.62120  Biso   1.000  H
  C254     1.0000 0.00220  0.11600  0.60785  Biso   1.000  C
  C255     1.0000 0.99450  0.13990  0.57900  Biso   1.000  C
  H164     1.0000 0.98550  0.16780  0.58090  Biso   1.000  H
  C256     1.0000 0.00010  0.12230  0.54766  Biso   1.000  C
  H165     1.0000 0.99570  0.13890  0.52880  Biso   1.000  H
  C257     1.0000 0.17110  0.22760  0.31310  Biso   1.000  C
  H166     1.0000 0.15670  0.23740  0.29170  Biso   1.000  H
  C258     1.0000 0.15340  0.23130  0.37360  Biso   1.000  C
  H167     1.0000 0.12880  0.24380  0.39280  Biso   1.000  H
  C259     1.0000 0.13290  0.24770  0.34170  Biso   1.000  C
  H168     1.0000 0.09510  0.27120  0.33950  Biso   1.000  H
  C260     1.0000 0.22950  0.19380  0.31670  Biso   1.000  C
  H169     1.0000 0.25820  0.18200  0.29790  Biso   1.000  H
  Cd14     1.0000 0.00907  0.55550  0.98946  Biso   1.000  Cd
  N27      1.0000 0.23490  0.55088  0.96348  Biso   1.000  N
  N28      1.0000 0.01170  0.58235  0.04329  Biso   1.000  N
  O66      1.0000 0.09790  0.49482  0.99579  Biso   1.000  O
  O67      1.0000 0.20310  0.44686  0.98604  Biso   1.000  O
  O68      1.0000 0.17630  0.57016  0.98446  Biso   1.000  O
  O69      1.0000 0.30500  0.63593  0.97157  Biso   1.000  O
  O70      1.0000 0.24020  0.70661  0.93337  Biso   1.000  O
  C261     1.0000 0.17720  0.48170  0.98333  Biso   1.000  C
  C262     1.0000 0.24190  0.50930  0.96245  Biso   1.000  C
  C263     1.0000 0.30950  0.49120  0.94100  Biso   1.000  C
  H170     1.0000 0.31580  0.46310  0.94100  Biso   1.000  H
  C264     1.0000 0.36750  0.51410  0.91990  Biso   1.000  C
  H171     1.0000 0.41200  0.50180  0.90520  Biso   1.000  H
  C265     1.0000 0.35760  0.55580  0.92110  Biso   1.000  C
  H172     1.0000 0.39690  0.57170  0.90720  Biso   1.000  H
  C266     1.0000 0.29180  0.57440  0.94212  Biso   1.000  C
  C267     1.0000 0.27990  0.61950  0.94377  Biso   1.000  C
  C268     1.0000 0.25030  0.63830  0.91472  Biso   1.000  C
  H173     1.0000 0.23930  0.62180  0.89610  Biso   1.000  H
  C269     1.0000 0.23480  0.68040  0.91035  Biso   1.000  C
  C270     1.0000 0.21040  0.69630  0.87645  Biso   1.000  C
  C271     1.0000 0.24570  0.67740  0.84780  Biso   1.000  C
  H174     1.0000 0.28100  0.65330  0.84970  Biso   1.000  H
  C272     1.0000 0.01800  0.55900  0.07051  Biso   1.000  C
  H175     1.0000 0.02450  0.53100  0.06770  Biso   1.000  H
  C273     1.0000 0.01510  0.57460  0.10284  Biso   1.000  C
  H176     1.0000 0.02180  0.55730  0.12120  Biso   1.000  H
  C274     1.0000 0.00220  0.61600  0.10785  Biso   1.000  C
  C275     1.0000 0.99450  0.63990  0.07900  Biso   1.000  C
  H177     1.0000 0.98550  0.66780  0.08090  Biso   1.000  H
  C276     1.0000 0.00010  0.62230  0.04766  Biso   1.000  C
  H178     1.0000 0.99570  0.63890  0.02880  Biso   1.000  H
  C277     1.0000 0.17110  0.72760  0.81310  Biso   1.000  C
  H179     1.0000 0.15670  0.73740  0.79170  Biso   1.000  H
  C278     1.0000 0.15340  0.73130  0.87360  Biso   1.000  C
  H180     1.0000 0.12880  0.74380  0.89280  Biso   1.000  H
  C279     1.0000 0.13290  0.74770  0.84170  Biso   1.000  C
  H181     1.0000 0.09510  0.77120  0.83950  Biso   1.000  H
  C280     1.0000 0.22950  0.69380  0.81670  Biso   1.000  C
  H182     1.0000 0.25820  0.68200  0.79790  Biso   1.000  H
  Cd15     1.0000 0.50907  0.05550  0.98946  Biso   1.000  Cd
  N29      1.0000 0.73490  0.05088  0.96348  Biso   1.000  N
  N30      1.0000 0.51170  0.08235  0.04329  Biso   1.000  N
  O71      1.0000 0.59790  0.99482  0.99579  Biso   1.000  O
  O72      1.0000 0.70310  0.94686  0.98604  Biso   1.000  O
  O73      1.0000 0.67630  0.07016  0.98446  Biso   1.000  O
  O74      1.0000 0.80500  0.13593  0.97157  Biso   1.000  O
  O75      1.0000 0.74020  0.20661  0.93337  Biso   1.000  O
  C281     1.0000 0.67720  0.98170  0.98333  Biso   1.000  C
  C282     1.0000 0.74190  0.00930  0.96245  Biso   1.000  C
  C283     1.0000 0.80950  0.99120  0.94100  Biso   1.000  C
  H183     1.0000 0.81580  0.96310  0.94100  Biso   1.000  H
  C284     1.0000 0.86750  0.01410  0.91990  Biso   1.000  C
  H184     1.0000 0.91200  0.00180  0.90520  Biso   1.000  H
  C285     1.0000 0.85760  0.05580  0.92110  Biso   1.000  C
  H185     1.0000 0.89690  0.07170  0.90720  Biso   1.000  H
  C286     1.0000 0.79180  0.07440  0.94212  Biso   1.000  C
  C287     1.0000 0.77990  0.11950  0.94377  Biso   1.000  C
  C288     1.0000 0.75030  0.13830  0.91472  Biso   1.000  C
  H186     1.0000 0.73930  0.12180  0.89610  Biso   1.000  H
  C289     1.0000 0.73480  0.18040  0.91035  Biso   1.000  C
  C290     1.0000 0.71040  0.19630  0.87645  Biso   1.000  C
  C291     1.0000 0.74570  0.17740  0.84780  Biso   1.000  C
  H187     1.0000 0.78100  0.15330  0.84970  Biso   1.000  H
  C292     1.0000 0.51800  0.05900  0.07051  Biso   1.000  C
  H188     1.0000 0.52450  0.03100  0.06770  Biso   1.000  H
  C293     1.0000 0.51510  0.07460  0.10284  Biso   1.000  C
  H189     1.0000 0.52180  0.05730  0.12120  Biso   1.000  H
  C294     1.0000 0.50220  0.11600  0.10785  Biso   1.000  C
  C295     1.0000 0.49450  0.13990  0.07900  Biso   1.000  C
  H190     1.0000 0.48550  0.16780  0.08090  Biso   1.000  H
  C296     1.0000 0.50010  0.12230  0.04766  Biso   1.000  C
  H191     1.0000 0.49570  0.13890  0.02880  Biso   1.000  H
  C297     1.0000 0.67110  0.22760  0.81310  Biso   1.000  C
  H192     1.0000 0.65670  0.23740  0.79170  Biso   1.000  H
  C298     1.0000 0.65340  0.23130  0.87360  Biso   1.000  C
  H193     1.0000 0.62880  0.24380  0.89280  Biso   1.000  H
  C299     1.0000 0.63290  0.24770  0.84170  Biso   1.000  C
  H194     1.0000 0.59510  0.27120  0.83950  Biso   1.000  H
  C300     1.0000 0.72950  0.19380  0.81670  Biso   1.000  C
  H195     1.0000 0.75820  0.18200  0.79790  Biso   1.000  H
  Cd16     1.0000 0.50907  0.55550  0.48946  Biso   1.000  Cd
  N31      1.0000 0.73490  0.55088  0.46348  Biso   1.000  N
  N32      1.0000 0.51170  0.58235  0.54329  Biso   1.000  N
  O76      1.0000 0.59790  0.49482  0.49579  Biso   1.000  O
  O77      1.0000 0.70310  0.44686  0.48604  Biso   1.000  O
  O78      1.0000 0.67630  0.57016  0.48446  Biso   1.000  O
  O79      1.0000 0.80500  0.63593  0.47157  Biso   1.000  O
  O80      1.0000 0.74020  0.70661  0.43337  Biso   1.000  O
  C301     1.0000 0.67720  0.48170  0.48333  Biso   1.000  C
  C302     1.0000 0.74190  0.50930  0.46245  Biso   1.000  C
  C303     1.0000 0.80950  0.49120  0.44100  Biso   1.000  C
  H196     1.0000 0.81580  0.46310  0.44100  Biso   1.000  H
  C304     1.0000 0.86750  0.51410  0.41990  Biso   1.000  C
  H197     1.0000 0.91200  0.50180  0.40520  Biso   1.000  H
  C305     1.0000 0.85760  0.55580  0.42110  Biso   1.000  C
  H198     1.0000 0.89690  0.57170  0.40720  Biso   1.000  H
  C306     1.0000 0.79180  0.57440  0.44212  Biso   1.000  C
  C307     1.0000 0.77990  0.61950  0.44377  Biso   1.000  C
  C308     1.0000 0.75030  0.63830  0.41472  Biso   1.000  C
  H199     1.0000 0.73930  0.62180  0.39610  Biso   1.000  H
  C309     1.0000 0.73480  0.68040  0.41035  Biso   1.000  C
  C310     1.0000 0.71040  0.69630  0.37645  Biso   1.000  C
  C311     1.0000 0.74570  0.67740  0.34780  Biso   1.000  C
  H200     1.0000 0.78100  0.65330  0.34970  Biso   1.000  H
  C312     1.0000 0.51800  0.55900  0.57051  Biso   1.000  C
  H201     1.0000 0.52450  0.53100  0.56770  Biso   1.000  H
  C313     1.0000 0.51510  0.57460  0.60284  Biso   1.000  C
  H202     1.0000 0.52180  0.55730  0.62120  Biso   1.000  H
  C314     1.0000 0.50220  0.61600  0.60785  Biso   1.000  C
  C315     1.0000 0.49450  0.63990  0.57900  Biso   1.000  C
  H203     1.0000 0.48550  0.66780  0.58090  Biso   1.000  H
  C316     1.0000 0.50010  0.62230  0.54766  Biso   1.000  C
  H204     1.0000 0.49570  0.63890  0.52880  Biso   1.000  H
  C317     1.0000 0.67110  0.72760  0.31310  Biso   1.000  C
  H205     1.0000 0.65670  0.73740  0.29170  Biso   1.000  H
  C318     1.0000 0.65340  0.73130  0.37360  Biso   1.000  C
  H206     1.0000 0.62880  0.74380  0.39280  Biso   1.000  H
  C319     1.0000 0.63290  0.74770  0.34170  Biso   1.000  C
  H207     1.0000 0.59510  0.77120  0.33950  Biso   1.000  H
  C320     1.0000 0.72950  0.69380  0.31670  Biso   1.000  C
  H208     1.0000 0.75820  0.68200  0.29790  Biso   1.000  H
  Cd17     1.0000 0.99093  0.30550  0.73946  Biso   1.000  Cd
  N33      1.0000 0.76510  0.30088  0.71348  Biso   1.000  N
  N34      1.0000 0.98830  0.33235  0.79329  Biso   1.000  N
  O81      1.0000 0.90210  0.24482  0.74579  Biso   1.000  O
  O82      1.0000 0.79690  0.19686  0.73604  Biso   1.000  O
  O83      1.0000 0.82370  0.32016  0.73446  Biso   1.000  O
  O84      1.0000 0.69500  0.38593  0.72157  Biso   1.000  O
  O85      1.0000 0.75980  0.45661  0.68337  Biso   1.000  O
  C321     1.0000 0.82280  0.23170  0.73333  Biso   1.000  C
  C322     1.0000 0.75810  0.25930  0.71245  Biso   1.000  C
  C323     1.0000 0.69050  0.24120  0.69100  Biso   1.000  C
  H209     1.0000 0.68420  0.21310  0.69100  Biso   1.000  H
  C324     1.0000 0.63250  0.26410  0.66990  Biso   1.000  C
  H210     1.0000 0.58800  0.25180  0.65520  Biso   1.000  H
  C325     1.0000 0.64240  0.30580  0.67110  Biso   1.000  C
  H211     1.0000 0.60310  0.32170  0.65720  Biso   1.000  H
  C326     1.0000 0.70820  0.32440  0.69212  Biso   1.000  C
  C327     1.0000 0.72010  0.36950  0.69377  Biso   1.000  C
  C328     1.0000 0.74970  0.38830  0.66472  Biso   1.000  C
  H212     1.0000 0.76070  0.37180  0.64610  Biso   1.000  H
  C329     1.0000 0.76520  0.43040  0.66035  Biso   1.000  C
  C330     1.0000 0.78960  0.44630  0.62645  Biso   1.000  C
  C331     1.0000 0.75430  0.42740  0.59780  Biso   1.000  C
  H213     1.0000 0.71900  0.40330  0.59970  Biso   1.000  H
  C332     1.0000 0.98200  0.30900  0.82051  Biso   1.000  C
  H214     1.0000 0.97550  0.28100  0.81770  Biso   1.000  H
  C333     1.0000 0.98490  0.32460  0.85284  Biso   1.000  C
  H215     1.0000 0.97820  0.30730  0.87120  Biso   1.000  H
  C334     1.0000 0.99780  0.36600  0.85785  Biso   1.000  C
  C335     1.0000 0.00550  0.38990  0.82900  Biso   1.000  C
  H216     1.0000 0.01450  0.41780  0.83090  Biso   1.000  H
  C336     1.0000 0.99990  0.37230  0.79766  Biso   1.000  C
  H217     1.0000 0.00430  0.38890  0.77880  Biso   1.000  H
  C337     1.0000 0.82890  0.47760  0.56310  Biso   1.000  C
  H218     1.0000 0.84330  0.48740  0.54170  Biso   1.000  H
  C338     1.0000 0.84660  0.48130  0.62360  Biso   1.000  C
  H219     1.0000 0.87120  0.49380  0.64280  Biso   1.000  H
  C339     1.0000 0.86710  0.49770  0.59170  Biso   1.000  C
  H220     1.0000 0.90490  0.52120  0.58950  Biso   1.000  H
  C340     1.0000 0.77050  0.44380  0.56670  Biso   1.000  C
  H221     1.0000 0.74180  0.43200  0.54790  Biso   1.000  H
  Cd18     1.0000 0.99093  0.80550  0.23946  Biso   1.000  Cd
  N35      1.0000 0.76510  0.80088  0.21348  Biso   1.000  N
  N36      1.0000 0.98830  0.83235  0.29329  Biso   1.000  N
  O86      1.0000 0.90210  0.74482  0.24579  Biso   1.000  O
  O87      1.0000 0.79690  0.69686  0.23604  Biso   1.000  O
  O88      1.0000 0.82370  0.82016  0.23446  Biso   1.000  O
  O89      1.0000 0.69500  0.88593  0.22157  Biso   1.000  O
  O90      1.0000 0.75980  0.95661  0.18337  Biso   1.000  O
  C341     1.0000 0.82280  0.73170  0.23333  Biso   1.000  C
  C342     1.0000 0.75810  0.75930  0.21245  Biso   1.000  C
  C343     1.0000 0.69050  0.74120  0.19100  Biso   1.000  C
  H222     1.0000 0.68420  0.71310  0.19100  Biso   1.000  H
  C344     1.0000 0.63250  0.76410  0.16990  Biso   1.000  C
  H223     1.0000 0.58800  0.75180  0.15520  Biso   1.000  H
  C345     1.0000 0.64240  0.80580  0.17110  Biso   1.000  C
  H224     1.0000 0.60310  0.82170  0.15720  Biso   1.000  H
  C346     1.0000 0.70820  0.82440  0.19212  Biso   1.000  C
  C347     1.0000 0.72010  0.86950  0.19377  Biso   1.000  C
  C348     1.0000 0.74970  0.88830  0.16472  Biso   1.000  C
  H225     1.0000 0.76070  0.87180  0.14610  Biso   1.000  H
  C349     1.0000 0.76520  0.93040  0.16035  Biso   1.000  C
  C350     1.0000 0.78960  0.94630  0.12645  Biso   1.000  C
  C351     1.0000 0.75430  0.92740  0.09780  Biso   1.000  C
  H226     1.0000 0.71900  0.90330  0.09970  Biso   1.000  H
  C352     1.0000 0.98200  0.80900  0.32051  Biso   1.000  C
  H227     1.0000 0.97550  0.78100  0.31770  Biso   1.000  H
  C353     1.0000 0.98490  0.82460  0.35284  Biso   1.000  C
  H228     1.0000 0.97820  0.80730  0.37120  Biso   1.000  H
  C354     1.0000 0.99780  0.86600  0.35785  Biso   1.000  C
  C355     1.0000 0.00550  0.88990  0.32900  Biso   1.000  C
  H229     1.0000 0.01450  0.91780  0.33090  Biso   1.000  H
  C356     1.0000 0.99990  0.87230  0.29766  Biso   1.000  C
  H230     1.0000 0.00430  0.88890  0.27880  Biso   1.000  H
  C357     1.0000 0.82890  0.97760  0.06310  Biso   1.000  C
  H231     1.0000 0.84330  0.98740  0.04170  Biso   1.000  H
  C358     1.0000 0.84660  0.98130  0.12360  Biso   1.000  C
  H232     1.0000 0.87120  0.99380  0.14280  Biso   1.000  H
  C359     1.0000 0.86710  0.99770  0.09170  Biso   1.000  C
  H233     1.0000 0.90490  0.02120  0.08950  Biso   1.000  H
  C360     1.0000 0.77050  0.94380  0.06670  Biso   1.000  C
  H234     1.0000 0.74180  0.93200  0.04790  Biso   1.000  H
  Cd19     1.0000 0.49093  0.30550  0.23946  Biso   1.000  Cd
  N37      1.0000 0.26510  0.30088  0.21348  Biso   1.000  N
  N38      1.0000 0.48830  0.33235  0.29329  Biso   1.000  N
  O91      1.0000 0.40210  0.24482  0.24579  Biso   1.000  O
  O92      1.0000 0.29690  0.19686  0.23604  Biso   1.000  O
  O93      1.0000 0.32370  0.32016  0.23446  Biso   1.000  O
  O94      1.0000 0.19500  0.38593  0.22157  Biso   1.000  O
  O95      1.0000 0.25980  0.45661  0.18337  Biso   1.000  O
  C361     1.0000 0.32280  0.23170  0.23333  Biso   1.000  C
  C362     1.0000 0.25810  0.25930  0.21245  Biso   1.000  C
  C363     1.0000 0.19050  0.24120  0.19100  Biso   1.000  C
  H235     1.0000 0.18420  0.21310  0.19100  Biso   1.000  H
  C364     1.0000 0.13250  0.26410  0.16990  Biso   1.000  C
  H236     1.0000 0.08800  0.25180  0.15520  Biso   1.000  H
  C365     1.0000 0.14240  0.30580  0.17110  Biso   1.000  C
  H237     1.0000 0.10310  0.32170  0.15720  Biso   1.000  H
  C366     1.0000 0.20820  0.32440  0.19212  Biso   1.000  C
  C367     1.0000 0.22010  0.36950  0.19377  Biso   1.000  C
  C368     1.0000 0.24970  0.38830  0.16472  Biso   1.000  C
  H238     1.0000 0.26070  0.37180  0.14610  Biso   1.000  H
  C369     1.0000 0.26520  0.43040  0.16035  Biso   1.000  C
  C370     1.0000 0.28960  0.44630  0.12645  Biso   1.000  C
  C371     1.0000 0.25430  0.42740  0.09780  Biso   1.000  C
  H239     1.0000 0.21900  0.40330  0.09970  Biso   1.000  H
  C372     1.0000 0.48200  0.30900  0.32051  Biso   1.000  C
  H240     1.0000 0.47550  0.28100  0.31770  Biso   1.000  H
  C373     1.0000 0.48490  0.32460  0.35284  Biso   1.000  C
  H241     1.0000 0.47820  0.30730  0.37120  Biso   1.000  H
  C374     1.0000 0.49780  0.36600  0.35785  Biso   1.000  C
  C375     1.0000 0.50550  0.38990  0.32900  Biso   1.000  C
  H242     1.0000 0.51450  0.41780  0.33090  Biso   1.000  H
  C376     1.0000 0.49990  0.37230  0.29766  Biso   1.000  C
  H243     1.0000 0.50430  0.38890  0.27880  Biso   1.000  H
  C377     1.0000 0.32890  0.47760  0.06310  Biso   1.000  C
  H244     1.0000 0.34330  0.48740  0.04170  Biso   1.000  H
  C378     1.0000 0.34660  0.48130  0.12360  Biso   1.000  C
  H245     1.0000 0.37120  0.49380  0.14280  Biso   1.000  H
  C379     1.0000 0.36710  0.49770  0.09170  Biso   1.000  C
  H246     1.0000 0.40490  0.52120  0.08950  Biso   1.000  H
  C380     1.0000 0.27050  0.44380  0.06670  Biso   1.000  C
  H247     1.0000 0.24180  0.43200  0.04790  Biso   1.000  H
  Cd20     1.0000 0.49093  0.80550  0.73946  Biso   1.000  Cd
  N39      1.0000 0.26510  0.80088  0.71348  Biso   1.000  N
  N40      1.0000 0.48830  0.83235  0.79329  Biso   1.000  N
  O96      1.0000 0.40210  0.74482  0.74579  Biso   1.000  O
  O97      1.0000 0.29690  0.69686  0.73604  Biso   1.000  O
  O98      1.0000 0.32370  0.82016  0.73446  Biso   1.000  O
  O99      1.0000 0.19500  0.88593  0.72157  Biso   1.000  O
  O100     1.0000 0.25980  0.95661  0.68337  Biso   1.000  O
  C381     1.0000 0.32280  0.73170  0.73333  Biso   1.000  C
  C382     1.0000 0.25810  0.75930  0.71245  Biso   1.000  C
  C383     1.0000 0.19050  0.74120  0.69100  Biso   1.000  C
  H248     1.0000 0.18420  0.71310  0.69100  Biso   1.000  H
  C384     1.0000 0.13250  0.76410  0.66990  Biso   1.000  C
  H249     1.0000 0.08800  0.75180  0.65520  Biso   1.000  H
  C385     1.0000 0.14240  0.80580  0.67110  Biso   1.000  C
  H250     1.0000 0.10310  0.82170  0.65720  Biso   1.000  H
  C386     1.0000 0.20820  0.82440  0.69212  Biso   1.000  C
  C387     1.0000 0.22010  0.86950  0.69377  Biso   1.000  C
  C388     1.0000 0.24970  0.88830  0.66472  Biso   1.000  C
  H251     1.0000 0.26070  0.87180  0.64610  Biso   1.000  H
  C389     1.0000 0.26520  0.93040  0.66035  Biso   1.000  C
  C390     1.0000 0.28960  0.94630  0.62645  Biso   1.000  C
  C391     1.0000 0.25430  0.92740  0.59780  Biso   1.000  C
  H252     1.0000 0.21900  0.90330  0.59970  Biso   1.000  H
  C392     1.0000 0.48200  0.80900  0.82051  Biso   1.000  C
  H253     1.0000 0.47550  0.78100  0.81770  Biso   1.000  H
  C393     1.0000 0.48490  0.82460  0.85284  Biso   1.000  C
  H254     1.0000 0.47820  0.80730  0.87120  Biso   1.000  H
  C394     1.0000 0.49780  0.86600  0.85785  Biso   1.000  C
  C395     1.0000 0.50550  0.88990  0.82900  Biso   1.000  C
  H255     1.0000 0.51450  0.91780  0.83090  Biso   1.000  H
  C396     1.0000 0.49990  0.87230  0.79766  Biso   1.000  C
  H256     1.0000 0.50430  0.88890  0.77880  Biso   1.000  H
  C397     1.0000 0.32890  0.97760  0.56310  Biso   1.000  C
  H257     1.0000 0.34330  0.98740  0.54170  Biso   1.000  H
  C398     1.0000 0.34660  0.98130  0.62360  Biso   1.000  C
  H258     1.0000 0.37120  0.99380  0.64280  Biso   1.000  H
  C399     1.0000 0.36710  0.99770  0.59170  Biso   1.000  C
  H259     1.0000 0.40490  0.02120  0.58950  Biso   1.000  H
  C400     1.0000 0.27050  0.94380  0.56670  Biso   1.000  C
  H260     1.0000 0.24180  0.93200  0.54790  Biso   1.000  H
  Cd21     1.0000 0.25907  0.94450  0.73946  Biso   1.000  Cd
  N41      1.0000 0.48490  0.94912  0.71348  Biso   1.000  N
  N42      1.0000 0.26170  0.91765  0.79329  Biso   1.000  N
  O101     1.0000 0.34790  0.00518  0.74579  Biso   1.000  O
  O102     1.0000 0.45310  0.05314  0.73604  Biso   1.000  O
  O103     1.0000 0.42630  0.92984  0.73446  Biso   1.000  O
  O104     1.0000 0.55500  0.86407  0.72157  Biso   1.000  O
  O105     1.0000 0.49020  0.79339  0.68337  Biso   1.000  O
  C401     1.0000 0.42720  0.01830  0.73333  Biso   1.000  C
  C402     1.0000 0.49190  0.99070  0.71245  Biso   1.000  C
  C403     1.0000 0.55950  0.00880  0.69100  Biso   1.000  C
  H261     1.0000 0.56580  0.03690  0.69100  Biso   1.000  H
  C404     1.0000 0.61750  0.98590  0.66990  Biso   1.000  C
  H262     1.0000 0.66200  0.99820  0.65520  Biso   1.000  H
  C405     1.0000 0.60760  0.94420  0.67110  Biso   1.000  C
  H263     1.0000 0.64690  0.92830  0.65720  Biso   1.000  H
  C406     1.0000 0.54180  0.92560  0.69212  Biso   1.000  C
  C407     1.0000 0.52990  0.88050  0.69377  Biso   1.000  C
  C408     1.0000 0.50030  0.86170  0.66472  Biso   1.000  C
  H264     1.0000 0.48930  0.87820  0.64610  Biso   1.000  H
  C409     1.0000 0.48480  0.81960  0.66035  Biso   1.000  C
  C410     1.0000 0.46040  0.80370  0.62645  Biso   1.000  C
  C411     1.0000 0.49570  0.82260  0.59780  Biso   1.000  C
  H265     1.0000 0.53100  0.84670  0.59970  Biso   1.000  H
  C412     1.0000 0.26800  0.94100  0.82051  Biso   1.000  C
  H266     1.0000 0.27450  0.96900  0.81770  Biso   1.000  H
  C413     1.0000 0.26510  0.92540  0.85284  Biso   1.000  C
  H267     1.0000 0.27180  0.94270  0.87120  Biso   1.000  H
  C414     1.0000 0.25220  0.88400  0.85785  Biso   1.000  C
  C415     1.0000 0.24450  0.86010  0.82900  Biso   1.000  C
  H268     1.0000 0.23550  0.83220  0.83090  Biso   1.000  H
  C416     1.0000 0.25010  0.87770  0.79766  Biso   1.000  C
  H269     1.0000 0.24570  0.86110  0.77880  Biso   1.000  H
  C417     1.0000 0.42110  0.77240  0.56310  Biso   1.000  C
  H270     1.0000 0.40670  0.76260  0.54170  Biso   1.000  H
  C418     1.0000 0.40340  0.76870  0.62360  Biso   1.000  C
  H271     1.0000 0.37880  0.75620  0.64280  Biso   1.000  H
  C419     1.0000 0.38290  0.75230  0.59170  Biso   1.000  C
  H272     1.0000 0.34510  0.72880  0.58950  Biso   1.000  H
  C420     1.0000 0.47950  0.80620  0.56670  Biso   1.000  C
  H273     1.0000 0.50820  0.81800  0.54790  Biso   1.000  H
  Cd22     1.0000 0.25907  0.44450  0.23946  Biso   1.000  Cd
  N43      1.0000 0.48490  0.44912  0.21348  Biso   1.000  N
  N44      1.0000 0.26170  0.41765  0.29329  Biso   1.000  N
  O106     1.0000 0.34790  0.50518  0.24579  Biso   1.000  O
  O107     1.0000 0.45310  0.55314  0.23604  Biso   1.000  O
  O108     1.0000 0.42630  0.42984  0.23446  Biso   1.000  O
  O109     1.0000 0.55500  0.36407  0.22157  Biso   1.000  O
  O110     1.0000 0.49020  0.29339  0.18337  Biso   1.000  O
  C421     1.0000 0.42720  0.51830  0.23333  Biso   1.000  C
  C422     1.0000 0.49190  0.49070  0.21245  Biso   1.000  C
  C423     1.0000 0.55950  0.50880  0.19100  Biso   1.000  C
  H274     1.0000 0.56580  0.53690  0.19100  Biso   1.000  H
  C424     1.0000 0.61750  0.48590  0.16990  Biso   1.000  C
  H275     1.0000 0.66200  0.49820  0.15520  Biso   1.000  H
  C425     1.0000 0.60760  0.44420  0.17110  Biso   1.000  C
  H276     1.0000 0.64690  0.42830  0.15720  Biso   1.000  H
  C426     1.0000 0.54180  0.42560  0.19212  Biso   1.000  C
  C427     1.0000 0.52990  0.38050  0.19377  Biso   1.000  C
  C428     1.0000 0.50030  0.36170  0.16472  Biso   1.000  C
  H277     1.0000 0.48930  0.37820  0.14610  Biso   1.000  H
  C429     1.0000 0.48480  0.31960  0.16035  Biso   1.000  C
  C430     1.0000 0.46040  0.30370  0.12645  Biso   1.000  C
  C431     1.0000 0.49570  0.32260  0.09780  Biso   1.000  C
  H278     1.0000 0.53100  0.34670  0.09970  Biso   1.000  H
  C432     1.0000 0.26800  0.44100  0.32051  Biso   1.000  C
  H279     1.0000 0.27450  0.46900  0.31770  Biso   1.000  H
  C433     1.0000 0.26510  0.42540  0.35284  Biso   1.000  C
  H280     1.0000 0.27180  0.44270  0.37120  Biso   1.000  H
  C434     1.0000 0.25220  0.38400  0.35785  Biso   1.000  C
  C435     1.0000 0.24450  0.36010  0.32900  Biso   1.000  C
  H281     1.0000 0.23550  0.33220  0.33090  Biso   1.000  H
  C436     1.0000 0.25010  0.37770  0.29766  Biso   1.000  C
  H282     1.0000 0.24570  0.36110  0.27880  Biso   1.000  H
  C437     1.0000 0.42110  0.27240  0.06310  Biso   1.000  C
  H283     1.0000 0.40670  0.26260  0.04170  Biso   1.000  H
  C438     1.0000 0.40340  0.26870  0.12360  Biso   1.000  C
  H284     1.0000 0.37880  0.25620  0.14280  Biso   1.000  H
  C439     1.0000 0.38290  0.25230  0.09170  Biso   1.000  C
  H285     1.0000 0.34510  0.22880  0.08950  Biso   1.000  H
  C440     1.0000 0.47950  0.30620  0.06670  Biso   1.000  C
  H286     1.0000 0.50820  0.31800  0.04790  Biso   1.000  H
  Cd23     1.0000 0.75907  0.94450  0.23946  Biso   1.000  Cd
  N45      1.0000 0.98490  0.94912  0.21348  Biso   1.000  N
  N46      1.0000 0.76170  0.91765  0.29329  Biso   1.000  N
  O111     1.0000 0.84790  0.00518  0.24579  Biso   1.000  O
  O112     1.0000 0.95310  0.05314  0.23604  Biso   1.000  O
  O113     1.0000 0.92630  0.92984  0.23446  Biso   1.000  O
  O114     1.0000 0.05500  0.86407  0.22157  Biso   1.000  O
  O115     1.0000 0.99020  0.79339  0.18337  Biso   1.000  O
  C441     1.0000 0.92720  0.01830  0.23333  Biso   1.000  C
  C442     1.0000 0.99190  0.99070  0.21245  Biso   1.000  C
  C443     1.0000 0.05950  0.00880  0.19100  Biso   1.000  C
  H287     1.0000 0.06580  0.03690  0.19100  Biso   1.000  H
  C444     1.0000 0.11750  0.98590  0.16990  Biso   1.000  C
  H288     1.0000 0.16200  0.99820  0.15520  Biso   1.000  H
  C445     1.0000 0.10760  0.94420  0.17110  Biso   1.000  C
  H289     1.0000 0.14690  0.92830  0.15720  Biso   1.000  H
  C446     1.0000 0.04180  0.92560  0.19212  Biso   1.000  C
  C447     1.0000 0.02990  0.88050  0.19377  Biso   1.000  C
  C448     1.0000 0.00030  0.86170  0.16472  Biso   1.000  C
  H290     1.0000 0.98930  0.87820  0.14610  Biso   1.000  H
  C449     1.0000 0.98480  0.81960  0.16035  Biso   1.000  C
  C450     1.0000 0.96040  0.80370  0.12645  Biso   1.000  C
  C451     1.0000 0.99570  0.82260  0.09780  Biso   1.000  C
  H291     1.0000 0.03100  0.84670  0.09970  Biso   1.000  H
  C452     1.0000 0.76800  0.94100  0.32051  Biso   1.000  C
  H292     1.0000 0.77450  0.96900  0.31770  Biso   1.000  H
  C453     1.0000 0.76510  0.92540  0.35284  Biso   1.000  C
  H293     1.0000 0.77180  0.94270  0.37120  Biso   1.000  H
  C454     1.0000 0.75220  0.88400  0.35785  Biso   1.000  C
  C455     1.0000 0.74450  0.86010  0.32900  Biso   1.000  C
  H294     1.0000 0.73550  0.83220  0.33090  Biso   1.000  H
  C456     1.0000 0.75010  0.87770  0.29766  Biso   1.000  C
  H295     1.0000 0.74570  0.86110  0.27880  Biso   1.000  H
  C457     1.0000 0.92110  0.77240  0.06310  Biso   1.000  C
  H296     1.0000 0.90670  0.76260  0.04170  Biso   1.000  H
  C458     1.0000 0.90340  0.76870  0.12360  Biso   1.000  C
  H297     1.0000 0.87880  0.75620  0.14280  Biso   1.000  H
  C459     1.0000 0.88290  0.75230  0.09170  Biso   1.000  C
  H298     1.0000 0.84510  0.72880  0.08950  Biso   1.000  H
  C460     1.0000 0.97950  0.80620  0.06670  Biso   1.000  C
  H299     1.0000 0.00820  0.81800  0.04790  Biso   1.000  H
  Cd24     1.0000 0.75907  0.44450  0.73946  Biso   1.000  Cd
  N47      1.0000 0.98490  0.44912  0.71348  Biso   1.000  N
  N48      1.0000 0.76170  0.41765  0.79329  Biso   1.000  N
  O116     1.0000 0.84790  0.50518  0.74579  Biso   1.000  O
  O117     1.0000 0.95310  0.55314  0.73604  Biso   1.000  O
  O118     1.0000 0.92630  0.42984  0.73446  Biso   1.000  O
  O119     1.0000 0.05500  0.36407  0.72157  Biso   1.000  O
  O120     1.0000 0.99020  0.29339  0.68337  Biso   1.000  O
  C461     1.0000 0.92720  0.51830  0.73333  Biso   1.000  C
  C462     1.0000 0.99190  0.49070  0.71245  Biso   1.000  C
  C463     1.0000 0.05950  0.50880  0.69100  Biso   1.000  C
  H300     1.0000 0.06580  0.53690  0.69100  Biso   1.000  H
  C464     1.0000 0.11750  0.48590  0.66990  Biso   1.000  C
  H301     1.0000 0.16200  0.49820  0.65520  Biso   1.000  H
  C465     1.0000 0.10760  0.44420  0.67110  Biso   1.000  C
  H302     1.0000 0.14690  0.42830  0.65720  Biso   1.000  H
  C466     1.0000 0.04180  0.42560  0.69212  Biso   1.000  C
  C467     1.0000 0.02990  0.38050  0.69377  Biso   1.000  C
  C468     1.0000 0.00030  0.36170  0.66472  Biso   1.000  C
  H303     1.0000 0.98930  0.37820  0.64610  Biso   1.000  H
  C469     1.0000 0.98480  0.31960  0.66035  Biso   1.000  C
  C470     1.0000 0.96040  0.30370  0.62645  Biso   1.000  C
  C471     1.0000 0.99570  0.32260  0.59780  Biso   1.000  C
  H304     1.0000 0.03100  0.34670  0.59970  Biso   1.000  H
  C472     1.0000 0.76800  0.44100  0.82051  Biso   1.000  C
  H305     1.0000 0.77450  0.46900  0.81770  Biso   1.000  H
  C473     1.0000 0.76510  0.42540  0.85284  Biso   1.000  C
  H306     1.0000 0.77180  0.44270  0.87120  Biso   1.000  H
  C474     1.0000 0.75220  0.38400  0.85785  Biso   1.000  C
  C475     1.0000 0.74450  0.36010  0.82900  Biso   1.000  C
  H307     1.0000 0.73550  0.33220  0.83090  Biso   1.000  H
  C476     1.0000 0.75010  0.37770  0.79766  Biso   1.000  C
  H308     1.0000 0.74570  0.36110  0.77880  Biso   1.000  H
  C477     1.0000 0.92110  0.27240  0.56310  Biso   1.000  C
  H309     1.0000 0.90670  0.26260  0.54170  Biso   1.000  H
  C478     1.0000 0.90340  0.26870  0.62360  Biso   1.000  C
  H310     1.0000 0.87880  0.25620  0.64280  Biso   1.000  H
  C479     1.0000 0.88290  0.25230  0.59170  Biso   1.000  C
  H311     1.0000 0.84510  0.22880  0.58950  Biso   1.000  H
  C480     1.0000 0.97950  0.30620  0.56670  Biso   1.000  C
  H312     1.0000 0.00820  0.31800  0.54790  Biso   1.000  H
  Cd25     1.0000 0.25907  0.30550  0.51054  Biso   1.000  Cd
  N49      1.0000 0.48490  0.30088  0.53652  Biso   1.000  N
  N50      1.0000 0.26170  0.33235  0.45671  Biso   1.000  N
  O121     1.0000 0.34790  0.24482  0.50421  Biso   1.000  O
  O122     1.0000 0.45310  0.19686  0.51396  Biso   1.000  O
  O123     1.0000 0.42630  0.32016  0.51554  Biso   1.000  O
  O124     1.0000 0.55500  0.38593  0.52843  Biso   1.000  O
  O125     1.0000 0.49020  0.45661  0.56663  Biso   1.000  O
  C481     1.0000 0.42720  0.23170  0.51667  Biso   1.000  C
  C482     1.0000 0.49190  0.25930  0.53755  Biso   1.000  C
  C483     1.0000 0.55950  0.24120  0.55900  Biso   1.000  C
  H313     1.0000 0.56580  0.21310  0.55900  Biso   1.000  H
  C484     1.0000 0.61750  0.26410  0.58010  Biso   1.000  C
  H314     1.0000 0.66200  0.25180  0.59480  Biso   1.000  H
  C485     1.0000 0.60760  0.30580  0.57890  Biso   1.000  C
  H315     1.0000 0.64690  0.32170  0.59280  Biso   1.000  H
  C486     1.0000 0.54180  0.32440  0.55788  Biso   1.000  C
  C487     1.0000 0.52990  0.36950  0.55623  Biso   1.000  C
  C488     1.0000 0.50030  0.38830  0.58528  Biso   1.000  C
  H316     1.0000 0.48930  0.37180  0.60390  Biso   1.000  H
  C489     1.0000 0.48480  0.43040  0.58965  Biso   1.000  C
  C490     1.0000 0.46040  0.44630  0.62355  Biso   1.000  C
  C491     1.0000 0.49570  0.42740  0.65220  Biso   1.000  C
  H317     1.0000 0.53100  0.40330  0.65030  Biso   1.000  H
  C492     1.0000 0.26800  0.30900  0.42949  Biso   1.000  C
  H318     1.0000 0.27450  0.28100  0.43230  Biso   1.000  H
  C493     1.0000 0.26510  0.32460  0.39716  Biso   1.000  C
  H319     1.0000 0.27180  0.30730  0.37880  Biso   1.000  H
  C494     1.0000 0.25220  0.36600  0.39215  Biso   1.000  C
  C495     1.0000 0.24450  0.38990  0.42100  Biso   1.000  C
  H320     1.0000 0.23550  0.41780  0.41910  Biso   1.000  H
  C496     1.0000 0.25010  0.37230  0.45234  Biso   1.000  C
  H321     1.0000 0.24570  0.38890  0.47120  Biso   1.000  H
  C497     1.0000 0.42110  0.47760  0.68690  Biso   1.000  C
  H322     1.0000 0.40670  0.48740  0.70830  Biso   1.000  H
  C498     1.0000 0.40340  0.48130  0.62640  Biso   1.000  C
  H323     1.0000 0.37880  0.49380  0.60720  Biso   1.000  H
  C499     1.0000 0.38290  0.49770  0.65830  Biso   1.000  C
  H324     1.0000 0.34510  0.52120  0.66050  Biso   1.000  H
  C500     1.0000 0.47950  0.44380  0.68330  Biso   1.000  C
  H325     1.0000 0.50820  0.43200  0.70210  Biso   1.000  H
  Cd26     1.0000 0.25907  0.80550  0.01054  Biso   1.000  Cd
  N51      1.0000 0.48490  0.80088  0.03652  Biso   1.000  N
  N52      1.0000 0.26170  0.83235  0.95671  Biso   1.000  N
  O126     1.0000 0.34790  0.74482  0.00421  Biso   1.000  O
  O127     1.0000 0.45310  0.69686  0.01396  Biso   1.000  O
  O128     1.0000 0.42630  0.82016  0.01554  Biso   1.000  O
  O129     1.0000 0.55500  0.88593  0.02843  Biso   1.000  O
  O130     1.0000 0.49020  0.95661  0.06663  Biso   1.000  O
  C501     1.0000 0.42720  0.73170  0.01667  Biso   1.000  C
  C502     1.0000 0.49190  0.75930  0.03755  Biso   1.000  C
  C503     1.0000 0.55950  0.74120  0.05900  Biso   1.000  C
  H326     1.0000 0.56580  0.71310  0.05900  Biso   1.000  H
  C504     1.0000 0.61750  0.76410  0.08010  Biso   1.000  C
  H327     1.0000 0.66200  0.75180  0.09480  Biso   1.000  H
  C505     1.0000 0.60760  0.80580  0.07890  Biso   1.000  C
  H328     1.0000 0.64690  0.82170  0.09280  Biso   1.000  H
  C506     1.0000 0.54180  0.82440  0.05788  Biso   1.000  C
  C507     1.0000 0.52990  0.86950  0.05623  Biso   1.000  C
  C508     1.0000 0.50030  0.88830  0.08528  Biso   1.000  C
  H329     1.0000 0.48930  0.87180  0.10390  Biso   1.000  H
  C509     1.0000 0.48480  0.93040  0.08965  Biso   1.000  C
  C510     1.0000 0.46040  0.94630  0.12355  Biso   1.000  C
  C511     1.0000 0.49570  0.92740  0.15220  Biso   1.000  C
  H330     1.0000 0.53100  0.90330  0.15030  Biso   1.000  H
  C512     1.0000 0.26800  0.80900  0.92949  Biso   1.000  C
  H331     1.0000 0.27450  0.78100  0.93230  Biso   1.000  H
  C513     1.0000 0.26510  0.82460  0.89716  Biso   1.000  C
  H332     1.0000 0.27180  0.80730  0.87880  Biso   1.000  H
  C514     1.0000 0.25220  0.86600  0.89215  Biso   1.000  C
  C515     1.0000 0.24450  0.88990  0.92100  Biso   1.000  C
  H333     1.0000 0.23550  0.91780  0.91910  Biso   1.000  H
  C516     1.0000 0.25010  0.87230  0.95234  Biso   1.000  C
  H334     1.0000 0.24570  0.88890  0.97120  Biso   1.000  H
  C517     1.0000 0.42110  0.97760  0.18690  Biso   1.000  C
  H335     1.0000 0.40670  0.98740  0.20830  Biso   1.000  H
  C518     1.0000 0.40340  0.98130  0.12640  Biso   1.000  C
  H336     1.0000 0.37880  0.99380  0.10720  Biso   1.000  H
  C519     1.0000 0.38290  0.99770  0.15830  Biso   1.000  C
  H337     1.0000 0.34510  0.02120  0.16050  Biso   1.000  H
  C520     1.0000 0.47950  0.94380  0.18330  Biso   1.000  C
  H338     1.0000 0.50820  0.93200  0.20210  Biso   1.000  H
  Cd27     1.0000 0.75907  0.30550  0.01054  Biso   1.000  Cd
  N53      1.0000 0.98490  0.30088  0.03652  Biso   1.000  N
  N54      1.0000 0.76170  0.33235  0.95671  Biso   1.000  N
  O131     1.0000 0.84790  0.24482  0.00421  Biso   1.000  O
  O132     1.0000 0.95310  0.19686  0.01396  Biso   1.000  O
  O133     1.0000 0.92630  0.32016  0.01554  Biso   1.000  O
  O134     1.0000 0.05500  0.38593  0.02843  Biso   1.000  O
  O135     1.0000 0.99020  0.45661  0.06663  Biso   1.000  O
  C521     1.0000 0.92720  0.23170  0.01667  Biso   1.000  C
  C522     1.0000 0.99190  0.25930  0.03755  Biso   1.000  C
  C523     1.0000 0.05950  0.24120  0.05900  Biso   1.000  C
  H339     1.0000 0.06580  0.21310  0.05900  Biso   1.000  H
  C524     1.0000 0.11750  0.26410  0.08010  Biso   1.000  C
  H340     1.0000 0.16200  0.25180  0.09480  Biso   1.000  H
  C525     1.0000 0.10760  0.30580  0.07890  Biso   1.000  C
  H341     1.0000 0.14690  0.32170  0.09280  Biso   1.000  H
  C526     1.0000 0.04180  0.32440  0.05788  Biso   1.000  C
  C527     1.0000 0.02990  0.36950  0.05623  Biso   1.000  C
  C528     1.0000 0.00030  0.38830  0.08528  Biso   1.000  C
  H342     1.0000 0.98930  0.37180  0.10390  Biso   1.000  H
  C529     1.0000 0.98480  0.43040  0.08965  Biso   1.000  C
  C530     1.0000 0.96040  0.44630  0.12355  Biso   1.000  C
  C531     1.0000 0.99570  0.42740  0.15220  Biso   1.000  C
  H343     1.0000 0.03100  0.40330  0.15030  Biso   1.000  H
  C532     1.0000 0.76800  0.30900  0.92949  Biso   1.000  C
  H344     1.0000 0.77450  0.28100  0.93230  Biso   1.000  H
  C533     1.0000 0.76510  0.32460  0.89716  Biso   1.000  C
  H345     1.0000 0.77180  0.30730  0.87880  Biso   1.000  H
  C534     1.0000 0.75220  0.36600  0.89215  Biso   1.000  C
  C535     1.0000 0.74450  0.38990  0.92100  Biso   1.000  C
  H346     1.0000 0.73550  0.41780  0.91910  Biso   1.000  H
  C536     1.0000 0.75010  0.37230  0.95234  Biso   1.000  C
  H347     1.0000 0.74570  0.38890  0.97120  Biso   1.000  H
  C537     1.0000 0.92110  0.47760  0.18690  Biso   1.000  C
  H348     1.0000 0.90670  0.48740  0.20830  Biso   1.000  H
  C538     1.0000 0.90340  0.48130  0.12640  Biso   1.000  C
  H349     1.0000 0.87880  0.49380  0.10720  Biso   1.000  H
  C539     1.0000 0.88290  0.49770  0.15830  Biso   1.000  C
  H350     1.0000 0.84510  0.52120  0.16050  Biso   1.000  H
  C540     1.0000 0.97950  0.44380  0.18330  Biso   1.000  C
  H351     1.0000 0.00820  0.43200  0.20210  Biso   1.000  H
  Cd28     1.0000 0.75907  0.80550  0.51054  Biso   1.000  Cd
  N55      1.0000 0.98490  0.80088  0.53652  Biso   1.000  N
  N56      1.0000 0.76170  0.83235  0.45671  Biso   1.000  N
  O136     1.0000 0.84790  0.74482  0.50421  Biso   1.000  O
  O137     1.0000 0.95310  0.69686  0.51396  Biso   1.000  O
  O138     1.0000 0.92630  0.82016  0.51554  Biso   1.000  O
  O139     1.0000 0.05500  0.88593  0.52843  Biso   1.000  O
  O140     1.0000 0.99020  0.95661  0.56663  Biso   1.000  O
  C541     1.0000 0.92720  0.73170  0.51667  Biso   1.000  C
  C542     1.0000 0.99190  0.75930  0.53755  Biso   1.000  C
  C543     1.0000 0.05950  0.74120  0.55900  Biso   1.000  C
  H352     1.0000 0.06580  0.71310  0.55900  Biso   1.000  H
  C544     1.0000 0.11750  0.76410  0.58010  Biso   1.000  C
  H353     1.0000 0.16200  0.75180  0.59480  Biso   1.000  H
  C545     1.0000 0.10760  0.80580  0.57890  Biso   1.000  C
  H354     1.0000 0.14690  0.82170  0.59280  Biso   1.000  H
  C546     1.0000 0.04180  0.82440  0.55788  Biso   1.000  C
  C547     1.0000 0.02990  0.86950  0.55623  Biso   1.000  C
  C548     1.0000 0.00030  0.88830  0.58528  Biso   1.000  C
  H355     1.0000 0.98930  0.87180  0.60390  Biso   1.000  H
  C549     1.0000 0.98480  0.93040  0.58965  Biso   1.000  C
  C550     1.0000 0.96040  0.94630  0.62355  Biso   1.000  C
  C551     1.0000 0.99570  0.92740  0.65220  Biso   1.000  C
  H356     1.0000 0.03100  0.90330  0.65030  Biso   1.000  H
  C552     1.0000 0.76800  0.80900  0.42949  Biso   1.000  C
  H357     1.0000 0.77450  0.78100  0.43230  Biso   1.000  H
  C553     1.0000 0.76510  0.82460  0.39716  Biso   1.000  C
  H358     1.0000 0.77180  0.80730  0.37880  Biso   1.000  H
  C554     1.0000 0.75220  0.86600  0.39215  Biso   1.000  C
  C555     1.0000 0.74450  0.88990  0.42100  Biso   1.000  C
  H359     1.0000 0.73550  0.91780  0.41910  Biso   1.000  H
  C556     1.0000 0.75010  0.87230  0.45234  Biso   1.000  C
  H360     1.0000 0.74570  0.88890  0.47120  Biso   1.000  H
  C557     1.0000 0.92110  0.97760  0.68690  Biso   1.000  C
  H361     1.0000 0.90670  0.98740  0.70830  Biso   1.000  H
  C558     1.0000 0.90340  0.98130  0.62640  Biso   1.000  C
  H362     1.0000 0.87880  0.99380  0.60720  Biso   1.000  H
  C559     1.0000 0.88290  0.99770  0.65830  Biso   1.000  C
  H363     1.0000 0.84510  0.02120  0.66050  Biso   1.000  H
  C560     1.0000 0.97950  0.94380  0.68330  Biso   1.000  C
  H364     1.0000 0.00820  0.93200  0.70210  Biso   1.000  H
  Cd29     1.0000 0.99093  0.94450  0.51054  Biso   1.000  Cd
  N57      1.0000 0.76510  0.94912  0.53652  Biso   1.000  N
  N58      1.0000 0.98830  0.91765  0.45671  Biso   1.000  N
  O141     1.0000 0.90210  0.00518  0.50421  Biso   1.000  O
  O142     1.0000 0.79690  0.05314  0.51396  Biso   1.000  O
  O143     1.0000 0.82370  0.92984  0.51554  Biso   1.000  O
  O144     1.0000 0.69500  0.86407  0.52843  Biso   1.000  O
  O145     1.0000 0.75980  0.79339  0.56663  Biso   1.000  O
  C561     1.0000 0.82280  0.01830  0.51667  Biso   1.000  C
  C562     1.0000 0.75810  0.99070  0.53755  Biso   1.000  C
  C563     1.0000 0.69050  0.00880  0.55900  Biso   1.000  C
  H365     1.0000 0.68420  0.03690  0.55900  Biso   1.000  H
  C564     1.0000 0.63250  0.98590  0.58010  Biso   1.000  C
  H366     1.0000 0.58800  0.99820  0.59480  Biso   1.000  H
  C565     1.0000 0.64240  0.94420  0.57890  Biso   1.000  C
  H367     1.0000 0.60310  0.92830  0.59280  Biso   1.000  H
  C566     1.0000 0.70820  0.92560  0.55788  Biso   1.000  C
  C567     1.0000 0.72010  0.88050  0.55623  Biso   1.000  C
  C568     1.0000 0.74970  0.86170  0.58528  Biso   1.000  C
  H368     1.0000 0.76070  0.87820  0.60390  Biso   1.000  H
  C569     1.0000 0.76520  0.81960  0.58965  Biso   1.000  C
  C570     1.0000 0.78960  0.80370  0.62355  Biso   1.000  C
  C571     1.0000 0.75430  0.82260  0.65220  Biso   1.000  C
  H369     1.0000 0.71900  0.84670  0.65030  Biso   1.000  H
  C572     1.0000 0.98200  0.94100  0.42949  Biso   1.000  C
  H370     1.0000 0.97550  0.96900  0.43230  Biso   1.000  H
  C573     1.0000 0.98490  0.92540  0.39716  Biso   1.000  C
  H371     1.0000 0.97820  0.94270  0.37880  Biso   1.000  H
  C574     1.0000 0.99780  0.88400  0.39215  Biso   1.000  C
  C575     1.0000 0.00550  0.86010  0.42100  Biso   1.000  C
  H372     1.0000 0.01450  0.83220  0.41910  Biso   1.000  H
  C576     1.0000 0.99990  0.87770  0.45234  Biso   1.000  C
  H373     1.0000 0.00430  0.86110  0.47120  Biso   1.000  H
  C577     1.0000 0.82890  0.77240  0.68690  Biso   1.000  C
  H374     1.0000 0.84330  0.76260  0.70830  Biso   1.000  H
  C578     1.0000 0.84660  0.76870  0.62640  Biso   1.000  C
  H375     1.0000 0.87120  0.75620  0.60720  Biso   1.000  H
  C579     1.0000 0.86710  0.75230  0.65830  Biso   1.000  C
  H376     1.0000 0.90490  0.72880  0.66050  Biso   1.000  H
  C580     1.0000 0.77050  0.80620  0.68330  Biso   1.000  C
  H377     1.0000 0.74180  0.81800  0.70210  Biso   1.000  H
  Cd30     1.0000 0.99093  0.44450  0.01054  Biso   1.000  Cd
  N59      1.0000 0.76510  0.44912  0.03652  Biso   1.000  N
  N60      1.0000 0.98830  0.41765  0.95671  Biso   1.000  N
  O146     1.0000 0.90210  0.50518  0.00421  Biso   1.000  O
  O147     1.0000 0.79690  0.55314  0.01396  Biso   1.000  O
  O148     1.0000 0.82370  0.42984  0.01554  Biso   1.000  O
  O149     1.0000 0.69500  0.36407  0.02843  Biso   1.000  O
  O150     1.0000 0.75980  0.29339  0.06663  Biso   1.000  O
  C581     1.0000 0.82280  0.51830  0.01667  Biso   1.000  C
  C582     1.0000 0.75810  0.49070  0.03755  Biso   1.000  C
  C583     1.0000 0.69050  0.50880  0.05900  Biso   1.000  C
  H378     1.0000 0.68420  0.53690  0.05900  Biso   1.000  H
  C584     1.0000 0.63250  0.48590  0.08010  Biso   1.000  C
  H379     1.0000 0.58800  0.49820  0.09480  Biso   1.000  H
  C585     1.0000 0.64240  0.44420  0.07890  Biso   1.000  C
  H380     1.0000 0.60310  0.42830  0.09280  Biso   1.000  H
  C586     1.0000 0.70820  0.42560  0.05788  Biso   1.000  C
  C587     1.0000 0.72010  0.38050  0.05623  Biso   1.000  C
  C588     1.0000 0.74970  0.36170  0.08528  Biso   1.000  C
  H381     1.0000 0.76070  0.37820  0.10390  Biso   1.000  H
  C589     1.0000 0.76520  0.31960  0.08965  Biso   1.000  C
  C590     1.0000 0.78960  0.30370  0.12355  Biso   1.000  C
  C591     1.0000 0.75430  0.32260  0.15220  Biso   1.000  C
  H382     1.0000 0.71900  0.34670  0.15030  Biso   1.000  H
  C592     1.0000 0.98200  0.44100  0.92949  Biso   1.000  C
  H383     1.0000 0.97550  0.46900  0.93230  Biso   1.000  H
  C593     1.0000 0.98490  0.42540  0.89716  Biso   1.000  C
  H384     1.0000 0.97820  0.44270  0.87880  Biso   1.000  H
  C594     1.0000 0.99780  0.38400  0.89215  Biso   1.000  C
  C595     1.0000 0.00550  0.36010  0.92100  Biso   1.000  C
  H385     1.0000 0.01450  0.33220  0.91910  Biso   1.000  H
  C596     1.0000 0.99990  0.37770  0.95234  Biso   1.000  C
  H386     1.0000 0.00430  0.36110  0.97120  Biso   1.000  H
  C597     1.0000 0.82890  0.27240  0.18690  Biso   1.000  C
  H387     1.0000 0.84330  0.26260  0.20830  Biso   1.000  H
  C598     1.0000 0.84660  0.26870  0.12640  Biso   1.000  C
  H388     1.0000 0.87120  0.25620  0.10720  Biso   1.000  H
  C599     1.0000 0.86710  0.25230  0.15830  Biso   1.000  C
  H389     1.0000 0.90490  0.22880  0.16050  Biso   1.000  H
  C600     1.0000 0.77050  0.30620  0.18330  Biso   1.000  C
  H390     1.0000 0.74180  0.31800  0.20210  Biso   1.000  H
  Cd31     1.0000 0.49093  0.94450  0.01054  Biso   1.000  Cd
  N61      1.0000 0.26510  0.94912  0.03652  Biso   1.000  N
  N62      1.0000 0.48830  0.91765  0.95671  Biso   1.000  N
  O151     1.0000 0.40210  0.00518  0.00421  Biso   1.000  O
  O152     1.0000 0.29690  0.05314  0.01396  Biso   1.000  O
  O153     1.0000 0.32370  0.92984  0.01554  Biso   1.000  O
  O154     1.0000 0.19500  0.86407  0.02843  Biso   1.000  O
  O155     1.0000 0.25980  0.79339  0.06663  Biso   1.000  O
  C601     1.0000 0.32280  0.01830  0.01667  Biso   1.000  C
  C602     1.0000 0.25810  0.99070  0.03755  Biso   1.000  C
  C603     1.0000 0.19050  0.00880  0.05900  Biso   1.000  C
  H391     1.0000 0.18420  0.03690  0.05900  Biso   1.000  H
  C604     1.0000 0.13250  0.98590  0.08010  Biso   1.000  C
  H392     1.0000 0.08800  0.99820  0.09480  Biso   1.000  H
  C605     1.0000 0.14240  0.94420  0.07890  Biso   1.000  C
  H393     1.0000 0.10310  0.92830  0.09280  Biso   1.000  H
  C606     1.0000 0.20820  0.92560  0.05788  Biso   1.000  C
  C607     1.0000 0.22010  0.88050  0.05623  Biso   1.000  C
  C608     1.0000 0.24970  0.86170  0.08528  Biso   1.000  C
  H394     1.0000 0.26070  0.87820  0.10390  Biso   1.000  H
  C609     1.0000 0.26520  0.81960  0.08965  Biso   1.000  C
  C610     1.0000 0.28960  0.80370  0.12355  Biso   1.000  C
  C611     1.0000 0.25430  0.82260  0.15220  Biso   1.000  C
  H395     1.0000 0.21900  0.84670  0.15030  Biso   1.000  H
  C612     1.0000 0.48200  0.94100  0.92949  Biso   1.000  C
  H396     1.0000 0.47550  0.96900  0.93230  Biso   1.000  H
  C613     1.0000 0.48490  0.92540  0.89716  Biso   1.000  C
  H397     1.0000 0.47820  0.94270  0.87880  Biso   1.000  H
  C614     1.0000 0.49780  0.88400  0.89215  Biso   1.000  C
  C615     1.0000 0.50550  0.86010  0.92100  Biso   1.000  C
  H398     1.0000 0.51450  0.83220  0.91910  Biso   1.000  H
  C616     1.0000 0.49990  0.87770  0.95234  Biso   1.000  C
  H399     1.0000 0.50430  0.86110  0.97120  Biso   1.000  H
  C617     1.0000 0.32890  0.77240  0.18690  Biso   1.000  C
  H400     1.0000 0.34330  0.76260  0.20830  Biso   1.000  H
  C618     1.0000 0.34660  0.76870  0.12640  Biso   1.000  C
  H401     1.0000 0.37120  0.75620  0.10720  Biso   1.000  H
  C619     1.0000 0.36710  0.75230  0.15830  Biso   1.000  C
  H402     1.0000 0.40490  0.72880  0.16050  Biso   1.000  H
  C620     1.0000 0.27050  0.80620  0.18330  Biso   1.000  C
  H403     1.0000 0.24180  0.81800  0.20210  Biso   1.000  H
  Cd32     1.0000 0.49093  0.44450  0.51054  Biso   1.000  Cd
  N63      1.0000 0.26510  0.44912  0.53652  Biso   1.000  N
  N64      1.0000 0.48830  0.41765  0.45671  Biso   1.000  N
  O156     1.0000 0.40210  0.50518  0.50421  Biso   1.000  O
  O157     1.0000 0.29690  0.55314  0.51396  Biso   1.000  O
  O158     1.0000 0.32370  0.42984  0.51554  Biso   1.000  O
  O159     1.0000 0.19500  0.36407  0.52843  Biso   1.000  O
  O160     1.0000 0.25980  0.29339  0.56663  Biso   1.000  O
  C621     1.0000 0.32280  0.51830  0.51667  Biso   1.000  C
  C622     1.0000 0.25810  0.49070  0.53755  Biso   1.000  C
  C623     1.0000 0.19050  0.50880  0.55900  Biso   1.000  C
  H404     1.0000 0.18420  0.53690  0.55900  Biso   1.000  H
  C624     1.0000 0.13250  0.48590  0.58010  Biso   1.000  C
  H405     1.0000 0.08800  0.49820  0.59480  Biso   1.000  H
  C625     1.0000 0.14240  0.44420  0.57890  Biso   1.000  C
  H406     1.0000 0.10310  0.42830  0.59280  Biso   1.000  H
  C626     1.0000 0.20820  0.42560  0.55788  Biso   1.000  C
  C627     1.0000 0.22010  0.38050  0.55623  Biso   1.000  C
  C628     1.0000 0.24970  0.36170  0.58528  Biso   1.000  C
  H407     1.0000 0.26070  0.37820  0.60390  Biso   1.000  H
  C629     1.0000 0.26520  0.31960  0.58965  Biso   1.000  C
  C630     1.0000 0.28960  0.30370  0.62355  Biso   1.000  C
  C631     1.0000 0.25430  0.32260  0.65220  Biso   1.000  C
  H408     1.0000 0.21900  0.34670  0.65030  Biso   1.000  H
  C632     1.0000 0.48200  0.44100  0.42949  Biso   1.000  C
  H409     1.0000 0.47550  0.46900  0.43230  Biso   1.000  H
  C633     1.0000 0.48490  0.42540  0.39716  Biso   1.000  C
  H410     1.0000 0.47820  0.44270  0.37880  Biso   1.000  H
  C634     1.0000 0.49780  0.38400  0.39215  Biso   1.000  C
  C635     1.0000 0.50550  0.36010  0.42100  Biso   1.000  C
  H411     1.0000 0.51450  0.33220  0.41910  Biso   1.000  H
  C636     1.0000 0.49990  0.37770  0.45234  Biso   1.000  C
  H412     1.0000 0.50430  0.36110  0.47120  Biso   1.000  H
  C637     1.0000 0.32890  0.27240  0.68690  Biso   1.000  C
  H413     1.0000 0.34330  0.26260  0.70830  Biso   1.000  H
  C638     1.0000 0.34660  0.26870  0.62640  Biso   1.000  C
  H414     1.0000 0.37120  0.25620  0.60720  Biso   1.000  H
  C639     1.0000 0.36710  0.25230  0.65830  Biso   1.000  C
  H415     1.0000 0.40490  0.22880  0.66050  Biso   1.000  H
  C640     1.0000 0.27050  0.30620  0.68330  Biso   1.000  C
  H416     1.0000 0.24180  0.31800  0.70210  Biso   1.000  H
