data_image0
_cell_length_a       38.596
_cell_length_b       15.279
_cell_length_c       23.6
_cell_angle_alpha    90
_cell_angle_beta     101.29
_cell_angle_gamma    90

_symmetry_space_group_name_H-M    "P 1"
_symmetry_int_tables_number       1

loop_
  _symmetry_equiv_pos_as_xyz
  'x, y, z'

loop_
  _atom_site_label
  _atom_site_occupancy
  _atom_site_fract_x
  _atom_site_fract_y
  _atom_site_fract_z
  _atom_site_thermal_displace_type
  _atom_site_B_iso_or_equiv
  _atom_site_type_symbol
  Zn1      1.0000 0.25603  0.87902  0.37174  Biso   1.000  Zn
  Zn2      1.0000 0.18682  0.99616  0.30468  Biso   1.000  Zn
  C1       1.0000 0.20455  0.76810  0.21220  Biso   1.000  C
  C2       1.0000 0.22564  0.69670  0.20870  Biso   1.000  C
  H1       1.0000 0.24630  0.68910  0.23600  Biso   1.000  H
  C3       1.0000 0.21646  0.63620  0.16500  Biso   1.000  C
  C4       1.0000 0.18606  0.64850  0.12460  Biso   1.000  C
  H2       1.0000 0.17930  0.60780  0.09520  Biso   1.000  H
  C5       1.0000 0.16590  0.72030  0.12770  Biso   1.000  C
  C6       1.0000 0.17420  0.78000  0.17040  Biso   1.000  C
  H3       1.0000 0.15980  0.82840  0.17170  Biso   1.000  H
  C7       1.0000 0.21391  0.83280  0.26050  Biso   1.000  C
  C8       1.0000 0.23834  0.55650  0.16300  Biso   1.000  C
  C9       1.0000 0.13757  0.79090  0.03810  Biso   1.000  C
  C10      1.0000 0.10614  0.81020  0.99440  Biso   1.000  C
  C11      1.0000 0.10838  0.86760  0.95170  Biso   1.000  C
  H4       1.0000 0.12970  0.89470  0.95010  Biso   1.000  H
  C12      1.0000 0.07770  0.88600  0.90940  Biso   1.000  C
  H5       1.0000 0.07910  0.92510  0.87970  Biso   1.000  H
  C13      1.0000 0.04616  0.84630  0.91190  Biso   1.000  C
  C14      1.0000 0.01518  0.86110  0.86700  Biso   1.000  C
  C15      1.0000 0.98093  0.76090  0.91580  Biso   1.000  C
  C16      1.0000 0.01206  0.74500  0.96070  Biso   1.000  C
  C17      1.0000 0.01065  0.68910  0.00520  Biso   1.000  C
  H6       1.0000 0.98960  0.66140  0.00780  Biso   1.000  H
  C18      1.0000 0.04110  0.67360  0.04700  Biso   1.000  C
  H7       1.0000 0.03980  0.63630  0.07760  Biso   1.000  H
  C19      1.0000 0.07219  0.71120  0.04410  Biso   1.000  C
  C20      1.0000 0.10351  0.68950  0.08840  Biso   1.000  C
  C21      1.0000 0.07485  0.76940  0.00000  Biso   1.000  C
  C22      1.0000 0.04397  0.78780  0.95730  Biso   1.000  C
  C23      1.0000 0.95617  0.81450  0.81990  Biso   1.000  C
  C24      1.0000 0.95828  0.75570  0.77660  Biso   1.000  C
  H8       1.0000 0.97750  0.71810  0.77980  Biso   1.000  H
  C25      1.0000 0.93162  0.75320  0.72870  Biso   1.000  C
  C26      1.0000 0.90389  0.81230  0.72540  Biso   1.000  C
  H9       1.0000 0.88550  0.81100  0.69340  Biso   1.000  H
  C27      1.0000 0.90310  0.87180  0.76780  Biso   1.000  C
  C28      1.0000 0.92983  0.87400  0.81590  Biso   1.000  C
  H10      1.0000 0.92980  0.91520  0.84490  Biso   1.000  H
  C29      1.0000 0.93320  0.69110  0.68150  Biso   1.000  C
  C30      1.0000 0.87330  0.93850  0.76060  Biso   1.000  C
  C31      1.0000 0.16767  0.86960  0.45400  Biso   1.000  C
  C32      1.0000 0.13454  0.90250  0.45540  Biso   1.000  C
  H11      1.0000 0.12410  0.94380  0.42840  Biso   1.000  H
  C33      1.0000 0.11724  0.87300  0.49770  Biso   1.000  C
  C34      1.0000 0.13239  0.81430  0.53840  Biso   1.000  C
  H12      1.0000 0.12030  0.79600  0.56670  Biso   1.000  H
  C35      1.0000 0.16572  0.78170  0.53780  Biso   1.000  C
  C36      1.0000 0.18301  0.81130  0.49510  Biso   1.000  C
  H13      1.0000 0.20560  0.79080  0.49460  Biso   1.000  H
  C37      1.0000 0.18668  0.90140  0.40860  Biso   1.000  C
  C38      1.0000 0.18316  0.71950  0.58180  Biso   1.000  C
  C39      1.0000 0.05400  0.87630  0.45970  Biso   1.000  C
  C40      1.0000 0.01998  0.91680  0.45930  Biso   1.000  C
  C41      1.0000 0.99118  0.88970  0.42020  Biso   1.000  C
  H14      1.0000 0.99330  0.84660  0.39330  Biso   1.000  H
  C42      1.0000 0.04246  0.07100  0.57860  Biso   1.000  C
  H15      1.0000 0.06220  0.08780  0.60580  Biso   1.000  H
  C43      1.0000 0.04578  0.01060  0.53900  Biso   1.000  C
  C44      1.0000 0.08136  0.97360  0.53860  Biso   1.000  C
  C45      1.0000 0.01651  0.98120  0.49900  Biso   1.000  C
  N1       1.0000 0.13421  0.73550  0.08330  Biso   1.000  N
  N2       1.0000 0.98496  0.81430  0.87070  Biso   1.000  N
  N3       1.0000 0.08242  0.90920  0.49980  Biso   1.000  N
  O1       1.0000 0.24125  0.82070  0.29768  Biso   1.000  O
  O2       1.0000 0.19257  0.89470  0.26049  Biso   1.000  O
  O3       1.0000 0.22394  0.48990  0.13819  Biso   1.000  O
  O4       1.0000 0.27044  0.56400  0.18630  Biso   1.000  O
  O5       1.0000 0.95995  0.65380  0.67790  Biso   1.000  O
  O6       1.0000 0.90455  0.68640  0.64420  Biso   1.000  O
  H16      1.0000 0.90690  0.65090  0.61910  Biso   1.000  H
  O7       1.0000 0.84787  0.92210  0.72140  Biso   1.000  O
  O8       1.0000 0.87560  0.00180  0.79060  Biso   1.000  O
  O9       1.0000 0.10388  0.63920  0.12700  Biso   1.000  O
  O10      1.0000 0.16563  0.82310  0.03630  Biso   1.000  O
  O11      1.0000 0.01544  0.91190  0.82820  Biso   1.000  O
  O12      1.0000 0.95293  0.72830  0.91720  Biso   1.000  O
  O13      1.0000 0.21646  0.87020  0.40931  Biso   1.000  O
  O14      1.0000 0.17253  0.95730  0.37370  Biso   1.000  O
  O15      1.0000 0.21411  0.69850  0.57949  Biso   1.000  O
  O16      1.0000 0.16765  0.69130  0.61850  Biso   1.000  O
  O17      1.0000 0.10763  0.00030  0.56920  Biso   1.000  O
  O18      1.0000 0.05796  0.81990  0.42680  Biso   1.000  O
  Zn3      1.0000 0.75603  0.37902  0.37174  Biso   1.000  Zn
  Zn4      1.0000 0.68682  0.49616  0.30468  Biso   1.000  Zn
  C46      1.0000 0.70455  0.26810  0.21220  Biso   1.000  C
  C47      1.0000 0.72564  0.19670  0.20870  Biso   1.000  C
  H17      1.0000 0.74630  0.18910  0.23600  Biso   1.000  H
  C48      1.0000 0.71646  0.13620  0.16500  Biso   1.000  C
  C49      1.0000 0.68606  0.14850  0.12460  Biso   1.000  C
  H18      1.0000 0.67930  0.10780  0.09520  Biso   1.000  H
  C50      1.0000 0.66590  0.22030  0.12770  Biso   1.000  C
  C51      1.0000 0.67420  0.28000  0.17040  Biso   1.000  C
  H19      1.0000 0.65980  0.32840  0.17170  Biso   1.000  H
  C52      1.0000 0.71391  0.33280  0.26050  Biso   1.000  C
  C53      1.0000 0.73834  0.05650  0.16300  Biso   1.000  C
  C54      1.0000 0.63757  0.29090  0.03810  Biso   1.000  C
  C55      1.0000 0.60614  0.31020  0.99440  Biso   1.000  C
  C56      1.0000 0.60838  0.36760  0.95170  Biso   1.000  C
  H20      1.0000 0.62970  0.39470  0.95010  Biso   1.000  H
  C57      1.0000 0.57770  0.38600  0.90940  Biso   1.000  C
  H21      1.0000 0.57910  0.42510  0.87970  Biso   1.000  H
  C58      1.0000 0.54616  0.34630  0.91190  Biso   1.000  C
  C59      1.0000 0.51518  0.36110  0.86700  Biso   1.000  C
  C60      1.0000 0.48093  0.26090  0.91580  Biso   1.000  C
  C61      1.0000 0.51206  0.24500  0.96070  Biso   1.000  C
  C62      1.0000 0.51065  0.18910  0.00520  Biso   1.000  C
  H22      1.0000 0.48960  0.16140  0.00780  Biso   1.000  H
  C63      1.0000 0.54110  0.17360  0.04700  Biso   1.000  C
  H23      1.0000 0.53980  0.13630  0.07760  Biso   1.000  H
  C64      1.0000 0.57219  0.21120  0.04410  Biso   1.000  C
  C65      1.0000 0.60351  0.18950  0.08840  Biso   1.000  C
  C66      1.0000 0.57485  0.26940  0.00000  Biso   1.000  C
  C67      1.0000 0.54397  0.28780  0.95730  Biso   1.000  C
  C68      1.0000 0.45617  0.31450  0.81990  Biso   1.000  C
  C69      1.0000 0.45828  0.25570  0.77660  Biso   1.000  C
  H24      1.0000 0.47750  0.21810  0.77980  Biso   1.000  H
  C70      1.0000 0.43162  0.25320  0.72870  Biso   1.000  C
  C71      1.0000 0.40389  0.31230  0.72540  Biso   1.000  C
  H25      1.0000 0.38550  0.31100  0.69340  Biso   1.000  H
  C72      1.0000 0.40310  0.37180  0.76780  Biso   1.000  C
  C73      1.0000 0.42983  0.37400  0.81590  Biso   1.000  C
  H26      1.0000 0.42980  0.41520  0.84490  Biso   1.000  H
  C74      1.0000 0.43320  0.19110  0.68150  Biso   1.000  C
  C75      1.0000 0.37330  0.43850  0.76060  Biso   1.000  C
  C76      1.0000 0.66767  0.36960  0.45400  Biso   1.000  C
  C77      1.0000 0.63454  0.40250  0.45540  Biso   1.000  C
  H27      1.0000 0.62410  0.44380  0.42840  Biso   1.000  H
  C78      1.0000 0.61724  0.37300  0.49770  Biso   1.000  C
  C79      1.0000 0.63239  0.31430  0.53840  Biso   1.000  C
  H28      1.0000 0.62030  0.29600  0.56670  Biso   1.000  H
  C80      1.0000 0.66572  0.28170  0.53780  Biso   1.000  C
  C81      1.0000 0.68301  0.31130  0.49510  Biso   1.000  C
  H29      1.0000 0.70560  0.29080  0.49460  Biso   1.000  H
  C82      1.0000 0.68668  0.40140  0.40860  Biso   1.000  C
  C83      1.0000 0.68316  0.21950  0.58180  Biso   1.000  C
  C84      1.0000 0.55400  0.37630  0.45970  Biso   1.000  C
  C85      1.0000 0.51998  0.41680  0.45930  Biso   1.000  C
  C86      1.0000 0.49118  0.38970  0.42020  Biso   1.000  C
  H30      1.0000 0.49330  0.34660  0.39330  Biso   1.000  H
  C87      1.0000 0.54246  0.57100  0.57860  Biso   1.000  C
  H31      1.0000 0.56220  0.58780  0.60580  Biso   1.000  H
  C88      1.0000 0.54578  0.51060  0.53900  Biso   1.000  C
  C89      1.0000 0.58136  0.47360  0.53860  Biso   1.000  C
  C90      1.0000 0.51651  0.48120  0.49900  Biso   1.000  C
  N4       1.0000 0.63421  0.23550  0.08330  Biso   1.000  N
  N5       1.0000 0.48496  0.31430  0.87070  Biso   1.000  N
  N6       1.0000 0.58242  0.40920  0.49980  Biso   1.000  N
  O19      1.0000 0.74125  0.32070  0.29768  Biso   1.000  O
  O20      1.0000 0.69257  0.39470  0.26049  Biso   1.000  O
  O21      1.0000 0.72394  0.98990  0.13819  Biso   1.000  O
  O22      1.0000 0.77044  0.06400  0.18630  Biso   1.000  O
  O23      1.0000 0.45995  0.15380  0.67790  Biso   1.000  O
  O24      1.0000 0.40455  0.18640  0.64420  Biso   1.000  O
  H32      1.0000 0.40690  0.15090  0.61910  Biso   1.000  H
  O25      1.0000 0.34787  0.42210  0.72140  Biso   1.000  O
  O26      1.0000 0.37560  0.50180  0.79060  Biso   1.000  O
  O27      1.0000 0.60388  0.13920  0.12700  Biso   1.000  O
  O28      1.0000 0.66563  0.32310  0.03630  Biso   1.000  O
  O29      1.0000 0.51544  0.41190  0.82820  Biso   1.000  O
  O30      1.0000 0.45293  0.22830  0.91720  Biso   1.000  O
  O31      1.0000 0.71646  0.37020  0.40931  Biso   1.000  O
  O32      1.0000 0.67253  0.45730  0.37370  Biso   1.000  O
  O33      1.0000 0.71411  0.19850  0.57949  Biso   1.000  O
  O34      1.0000 0.66765  0.19130  0.61850  Biso   1.000  O
  O35      1.0000 0.60763  0.50030  0.56920  Biso   1.000  O
  O36      1.0000 0.55796  0.31990  0.42680  Biso   1.000  O
  Zn5      1.0000 0.74397  0.87902  0.12826  Biso   1.000  Zn
  Zn6      1.0000 0.81318  0.99616  0.19532  Biso   1.000  Zn
  C91      1.0000 0.79545  0.76810  0.28780  Biso   1.000  C
  C92      1.0000 0.77436  0.69670  0.29130  Biso   1.000  C
  H33      1.0000 0.75370  0.68910  0.26400  Biso   1.000  H
  C93      1.0000 0.78354  0.63620  0.33500  Biso   1.000  C
  C94      1.0000 0.81394  0.64850  0.37540  Biso   1.000  C
  H34      1.0000 0.82070  0.60780  0.40480  Biso   1.000  H
  C95      1.0000 0.83410  0.72030  0.37230  Biso   1.000  C
  C96      1.0000 0.82580  0.78000  0.32960  Biso   1.000  C
  H35      1.0000 0.84020  0.82840  0.32830  Biso   1.000  H
  C97      1.0000 0.78609  0.83280  0.23950  Biso   1.000  C
  C98      1.0000 0.76166  0.55650  0.33700  Biso   1.000  C
  C99      1.0000 0.86243  0.79090  0.46190  Biso   1.000  C
  C100     1.0000 0.89386  0.81020  0.50560  Biso   1.000  C
  C101     1.0000 0.89162  0.86760  0.54830  Biso   1.000  C
  H36      1.0000 0.87030  0.89470  0.54990  Biso   1.000  H
  C102     1.0000 0.92230  0.88600  0.59060  Biso   1.000  C
  H37      1.0000 0.92090  0.92510  0.62030  Biso   1.000  H
  C103     1.0000 0.95384  0.84630  0.58810  Biso   1.000  C
  C104     1.0000 0.98482  0.86110  0.63300  Biso   1.000  C
  C105     1.0000 0.01907  0.76090  0.58420  Biso   1.000  C
  C106     1.0000 0.98794  0.74500  0.53930  Biso   1.000  C
  C107     1.0000 0.98935  0.68910  0.49480  Biso   1.000  C
  H38      1.0000 0.01040  0.66140  0.49220  Biso   1.000  H
  C108     1.0000 0.95890  0.67360  0.45300  Biso   1.000  C
  H39      1.0000 0.96020  0.63630  0.42240  Biso   1.000  H
  C109     1.0000 0.92781  0.71120  0.45590  Biso   1.000  C
  C110     1.0000 0.89649  0.68950  0.41160  Biso   1.000  C
  C111     1.0000 0.92515  0.76940  0.50000  Biso   1.000  C
  C112     1.0000 0.95603  0.78780  0.54270  Biso   1.000  C
  C113     1.0000 0.04383  0.81450  0.68010  Biso   1.000  C
  C114     1.0000 0.04172  0.75570  0.72340  Biso   1.000  C
  H40      1.0000 0.02250  0.71810  0.72020  Biso   1.000  H
  C115     1.0000 0.06838  0.75320  0.77130  Biso   1.000  C
  C116     1.0000 0.09611  0.81230  0.77460  Biso   1.000  C
  H41      1.0000 0.11450  0.81100  0.80660  Biso   1.000  H
  C117     1.0000 0.09690  0.87180  0.73220  Biso   1.000  C
  C118     1.0000 0.07017  0.87400  0.68410  Biso   1.000  C
  H42      1.0000 0.07020  0.91520  0.65510  Biso   1.000  H
  C119     1.0000 0.06680  0.69110  0.81850  Biso   1.000  C
  C120     1.0000 0.12670  0.93850  0.73940  Biso   1.000  C
  C121     1.0000 0.83233  0.86960  0.04600  Biso   1.000  C
  C122     1.0000 0.86546  0.90250  0.04460  Biso   1.000  C
  H43      1.0000 0.87590  0.94380  0.07160  Biso   1.000  H
  C123     1.0000 0.88276  0.87300  0.00230  Biso   1.000  C
  C124     1.0000 0.86761  0.81430  0.96160  Biso   1.000  C
  H44      1.0000 0.87970  0.79600  0.93330  Biso   1.000  H
  C125     1.0000 0.83428  0.78170  0.96220  Biso   1.000  C
  C126     1.0000 0.81699  0.81130  0.00490  Biso   1.000  C
  H45      1.0000 0.79440  0.79080  0.00540  Biso   1.000  H
  C127     1.0000 0.81332  0.90140  0.09140  Biso   1.000  C
  C128     1.0000 0.81684  0.71950  0.91820  Biso   1.000  C
  C129     1.0000 0.94600  0.87630  0.04030  Biso   1.000  C
  C130     1.0000 0.98002  0.91680  0.04070  Biso   1.000  C
  C131     1.0000 0.00882  0.88970  0.07980  Biso   1.000  C
  H46      1.0000 0.00670  0.84660  0.10670  Biso   1.000  H
  C132     1.0000 0.95754  0.07100  0.92140  Biso   1.000  C
  H47      1.0000 0.93780  0.08780  0.89420  Biso   1.000  H
  C133     1.0000 0.95422  0.01060  0.96100  Biso   1.000  C
  C134     1.0000 0.91864  0.97360  0.96140  Biso   1.000  C
  C135     1.0000 0.98349  0.98120  0.00100  Biso   1.000  C
  N7       1.0000 0.86579  0.73550  0.41670  Biso   1.000  N
  N8       1.0000 0.01504  0.81430  0.62930  Biso   1.000  N
  N9       1.0000 0.91758  0.90920  0.00020  Biso   1.000  N
  O37      1.0000 0.75875  0.82070  0.20232  Biso   1.000  O
  O38      1.0000 0.80743  0.89470  0.23951  Biso   1.000  O
  O39      1.0000 0.77606  0.48990  0.36181  Biso   1.000  O
  O40      1.0000 0.72956  0.56400  0.31370  Biso   1.000  O
  O41      1.0000 0.04005  0.65380  0.82210  Biso   1.000  O
  O42      1.0000 0.09545  0.68640  0.85580  Biso   1.000  O
  H48      1.0000 0.09310  0.65090  0.88090  Biso   1.000  H
  O43      1.0000 0.15213  0.92210  0.77860  Biso   1.000  O
  O44      1.0000 0.12440  0.00180  0.70940  Biso   1.000  O
  O45      1.0000 0.89612  0.63920  0.37300  Biso   1.000  O
  O46      1.0000 0.83437  0.82310  0.46370  Biso   1.000  O
  O47      1.0000 0.98456  0.91190  0.67180  Biso   1.000  O
  O48      1.0000 0.04707  0.72830  0.58280  Biso   1.000  O
  O49      1.0000 0.78354  0.87020  0.09069  Biso   1.000  O
  O50      1.0000 0.82747  0.95730  0.12630  Biso   1.000  O
  O51      1.0000 0.78589  0.69850  0.92051  Biso   1.000  O
  O52      1.0000 0.83235  0.69130  0.88150  Biso   1.000  O
  O53      1.0000 0.89237  0.00030  0.93080  Biso   1.000  O
  O54      1.0000 0.94204  0.81990  0.07320  Biso   1.000  O
  Zn7      1.0000 0.24397  0.37902  0.12826  Biso   1.000  Zn
  Zn8      1.0000 0.31318  0.49616  0.19532  Biso   1.000  Zn
  C136     1.0000 0.29545  0.26810  0.28780  Biso   1.000  C
  C137     1.0000 0.27436  0.19670  0.29130  Biso   1.000  C
  H49      1.0000 0.25370  0.18910  0.26400  Biso   1.000  H
  C138     1.0000 0.28354  0.13620  0.33500  Biso   1.000  C
  C139     1.0000 0.31394  0.14850  0.37540  Biso   1.000  C
  H50      1.0000 0.32070  0.10780  0.40480  Biso   1.000  H
  C140     1.0000 0.33410  0.22030  0.37230  Biso   1.000  C
  C141     1.0000 0.32580  0.28000  0.32960  Biso   1.000  C
  H51      1.0000 0.34020  0.32840  0.32830  Biso   1.000  H
  C142     1.0000 0.28609  0.33280  0.23950  Biso   1.000  C
  C143     1.0000 0.26166  0.05650  0.33700  Biso   1.000  C
  C144     1.0000 0.36243  0.29090  0.46190  Biso   1.000  C
  C145     1.0000 0.39386  0.31020  0.50560  Biso   1.000  C
  C146     1.0000 0.39162  0.36760  0.54830  Biso   1.000  C
  H52      1.0000 0.37030  0.39470  0.54990  Biso   1.000  H
  C147     1.0000 0.42230  0.38600  0.59060  Biso   1.000  C
  H53      1.0000 0.42090  0.42510  0.62030  Biso   1.000  H
  C148     1.0000 0.45384  0.34630  0.58810  Biso   1.000  C
  C149     1.0000 0.48482  0.36110  0.63300  Biso   1.000  C
  C150     1.0000 0.51907  0.26090  0.58420  Biso   1.000  C
  C151     1.0000 0.48794  0.24500  0.53930  Biso   1.000  C
  C152     1.0000 0.48935  0.18910  0.49480  Biso   1.000  C
  H54      1.0000 0.51040  0.16140  0.49220  Biso   1.000  H
  C153     1.0000 0.45890  0.17360  0.45300  Biso   1.000  C
  H55      1.0000 0.46020  0.13630  0.42240  Biso   1.000  H
  C154     1.0000 0.42781  0.21120  0.45590  Biso   1.000  C
  C155     1.0000 0.39649  0.18950  0.41160  Biso   1.000  C
  C156     1.0000 0.42515  0.26940  0.50000  Biso   1.000  C
  C157     1.0000 0.45603  0.28780  0.54270  Biso   1.000  C
  C158     1.0000 0.54383  0.31450  0.68010  Biso   1.000  C
  C159     1.0000 0.54172  0.25570  0.72340  Biso   1.000  C
  H56      1.0000 0.52250  0.21810  0.72020  Biso   1.000  H
  C160     1.0000 0.56838  0.25320  0.77130  Biso   1.000  C
  C161     1.0000 0.59611  0.31230  0.77460  Biso   1.000  C
  H57      1.0000 0.61450  0.31100  0.80660  Biso   1.000  H
  C162     1.0000 0.59690  0.37180  0.73220  Biso   1.000  C
  C163     1.0000 0.57017  0.37400  0.68410  Biso   1.000  C
  H58      1.0000 0.57020  0.41520  0.65510  Biso   1.000  H
  C164     1.0000 0.56680  0.19110  0.81850  Biso   1.000  C
  C165     1.0000 0.62670  0.43850  0.73940  Biso   1.000  C
  C166     1.0000 0.33233  0.36960  0.04600  Biso   1.000  C
  C167     1.0000 0.36546  0.40250  0.04460  Biso   1.000  C
  H59      1.0000 0.37590  0.44380  0.07160  Biso   1.000  H
  C168     1.0000 0.38276  0.37300  0.00230  Biso   1.000  C
  C169     1.0000 0.36761  0.31430  0.96160  Biso   1.000  C
  H60      1.0000 0.37970  0.29600  0.93330  Biso   1.000  H
  C170     1.0000 0.33428  0.28170  0.96220  Biso   1.000  C
  C171     1.0000 0.31699  0.31130  0.00490  Biso   1.000  C
  H61      1.0000 0.29440  0.29080  0.00540  Biso   1.000  H
  C172     1.0000 0.31332  0.40140  0.09140  Biso   1.000  C
  C173     1.0000 0.31684  0.21950  0.91820  Biso   1.000  C
  C174     1.0000 0.44600  0.37630  0.04030  Biso   1.000  C
  C175     1.0000 0.48002  0.41680  0.04070  Biso   1.000  C
  C176     1.0000 0.50882  0.38970  0.07980  Biso   1.000  C
  H62      1.0000 0.50670  0.34660  0.10670  Biso   1.000  H
  C177     1.0000 0.45754  0.57100  0.92140  Biso   1.000  C
  H63      1.0000 0.43780  0.58780  0.89420  Biso   1.000  H
  C178     1.0000 0.45422  0.51060  0.96100  Biso   1.000  C
  C179     1.0000 0.41864  0.47360  0.96140  Biso   1.000  C
  C180     1.0000 0.48349  0.48120  0.00100  Biso   1.000  C
  N10      1.0000 0.36579  0.23550  0.41670  Biso   1.000  N
  N11      1.0000 0.51504  0.31430  0.62930  Biso   1.000  N
  N12      1.0000 0.41758  0.40920  0.00020  Biso   1.000  N
  O55      1.0000 0.25875  0.32070  0.20232  Biso   1.000  O
  O56      1.0000 0.30743  0.39470  0.23951  Biso   1.000  O
  O57      1.0000 0.27606  0.98990  0.36181  Biso   1.000  O
  O58      1.0000 0.22956  0.06400  0.31370  Biso   1.000  O
  O59      1.0000 0.54005  0.15380  0.82210  Biso   1.000  O
  O60      1.0000 0.59545  0.18640  0.85580  Biso   1.000  O
  H64      1.0000 0.59310  0.15090  0.88090  Biso   1.000  H
  O61      1.0000 0.65213  0.42210  0.77860  Biso   1.000  O
  O62      1.0000 0.62440  0.50180  0.70940  Biso   1.000  O
  O63      1.0000 0.39612  0.13920  0.37300  Biso   1.000  O
  O64      1.0000 0.33437  0.32310  0.46370  Biso   1.000  O
  O65      1.0000 0.48456  0.41190  0.67180  Biso   1.000  O
  O66      1.0000 0.54707  0.22830  0.58280  Biso   1.000  O
  O67      1.0000 0.28354  0.37020  0.09069  Biso   1.000  O
  O68      1.0000 0.32747  0.45730  0.12630  Biso   1.000  O
  O69      1.0000 0.28589  0.19850  0.92051  Biso   1.000  O
  O70      1.0000 0.33235  0.19130  0.88150  Biso   1.000  O
  O71      1.0000 0.39237  0.50030  0.93080  Biso   1.000  O
  O72      1.0000 0.44204  0.31990  0.07320  Biso   1.000  O
  Zn9      1.0000 0.74397  0.12098  0.62826  Biso   1.000  Zn
  Zn10     1.0000 0.81318  0.00384  0.69532  Biso   1.000  Zn
  C181     1.0000 0.79545  0.23190  0.78780  Biso   1.000  C
  C182     1.0000 0.77436  0.30330  0.79130  Biso   1.000  C
  H65      1.0000 0.75370  0.31090  0.76400  Biso   1.000  H
  C183     1.0000 0.78354  0.36380  0.83500  Biso   1.000  C
  C184     1.0000 0.81394  0.35150  0.87540  Biso   1.000  C
  H66      1.0000 0.82070  0.39220  0.90480  Biso   1.000  H
  C185     1.0000 0.83410  0.27970  0.87230  Biso   1.000  C
  C186     1.0000 0.82580  0.22000  0.82960  Biso   1.000  C
  H67      1.0000 0.84020  0.17160  0.82830  Biso   1.000  H
  C187     1.0000 0.78609  0.16720  0.73950  Biso   1.000  C
  C188     1.0000 0.76166  0.44350  0.83700  Biso   1.000  C
  C189     1.0000 0.86243  0.20910  0.96190  Biso   1.000  C
  C190     1.0000 0.89386  0.18980  0.00560  Biso   1.000  C
  C191     1.0000 0.89162  0.13240  0.04830  Biso   1.000  C
  H68      1.0000 0.87030  0.10530  0.04990  Biso   1.000  H
  C192     1.0000 0.92230  0.11400  0.09060  Biso   1.000  C
  H69      1.0000 0.92090  0.07490  0.12030  Biso   1.000  H
  C193     1.0000 0.95384  0.15370  0.08810  Biso   1.000  C
  C194     1.0000 0.98482  0.13890  0.13300  Biso   1.000  C
  C195     1.0000 0.01907  0.23910  0.08420  Biso   1.000  C
  C196     1.0000 0.98794  0.25500  0.03930  Biso   1.000  C
  C197     1.0000 0.98935  0.31090  0.99480  Biso   1.000  C
  H70      1.0000 0.01040  0.33860  0.99220  Biso   1.000  H
  C198     1.0000 0.95890  0.32640  0.95300  Biso   1.000  C
  H71      1.0000 0.96020  0.36370  0.92240  Biso   1.000  H
  C199     1.0000 0.92781  0.28880  0.95590  Biso   1.000  C
  C200     1.0000 0.89649  0.31050  0.91160  Biso   1.000  C
  C201     1.0000 0.92515  0.23060  0.00000  Biso   1.000  C
  C202     1.0000 0.95603  0.21220  0.04270  Biso   1.000  C
  C203     1.0000 0.04383  0.18550  0.18010  Biso   1.000  C
  C204     1.0000 0.04172  0.24430  0.22340  Biso   1.000  C
  H72      1.0000 0.02250  0.28190  0.22020  Biso   1.000  H
  C205     1.0000 0.06838  0.24680  0.27130  Biso   1.000  C
  C206     1.0000 0.09611  0.18770  0.27460  Biso   1.000  C
  H73      1.0000 0.11450  0.18900  0.30660  Biso   1.000  H
  C207     1.0000 0.09690  0.12820  0.23220  Biso   1.000  C
  C208     1.0000 0.07017  0.12600  0.18410  Biso   1.000  C
  H74      1.0000 0.07020  0.08480  0.15510  Biso   1.000  H
  C209     1.0000 0.06680  0.30890  0.31850  Biso   1.000  C
  C210     1.0000 0.12670  0.06150  0.23940  Biso   1.000  C
  C211     1.0000 0.83233  0.13040  0.54600  Biso   1.000  C
  C212     1.0000 0.86546  0.09750  0.54460  Biso   1.000  C
  H75      1.0000 0.87590  0.05620  0.57160  Biso   1.000  H
  C213     1.0000 0.88276  0.12700  0.50230  Biso   1.000  C
  C214     1.0000 0.86761  0.18570  0.46160  Biso   1.000  C
  H76      1.0000 0.87970  0.20400  0.43330  Biso   1.000  H
  C215     1.0000 0.83428  0.21830  0.46220  Biso   1.000  C
  C216     1.0000 0.81699  0.18870  0.50490  Biso   1.000  C
  H77      1.0000 0.79440  0.20920  0.50540  Biso   1.000  H
  C217     1.0000 0.81332  0.09860  0.59140  Biso   1.000  C
  C218     1.0000 0.81684  0.28050  0.41820  Biso   1.000  C
  C219     1.0000 0.94600  0.12370  0.54030  Biso   1.000  C
  C220     1.0000 0.98002  0.08320  0.54070  Biso   1.000  C
  C221     1.0000 0.00882  0.11030  0.57980  Biso   1.000  C
  H78      1.0000 0.00670  0.15340  0.60670  Biso   1.000  H
  C222     1.0000 0.95754  0.92900  0.42140  Biso   1.000  C
  H79      1.0000 0.93780  0.91220  0.39420  Biso   1.000  H
  C223     1.0000 0.95422  0.98940  0.46100  Biso   1.000  C
  C224     1.0000 0.91864  0.02640  0.46140  Biso   1.000  C
  C225     1.0000 0.98349  0.01880  0.50100  Biso   1.000  C
  N13      1.0000 0.86579  0.26450  0.91670  Biso   1.000  N
  N14      1.0000 0.01504  0.18570  0.12930  Biso   1.000  N
  N15      1.0000 0.91758  0.09080  0.50020  Biso   1.000  N
  O73      1.0000 0.75875  0.17930  0.70232  Biso   1.000  O
  O74      1.0000 0.80743  0.10530  0.73951  Biso   1.000  O
  O75      1.0000 0.77606  0.51010  0.86181  Biso   1.000  O
  O76      1.0000 0.72956  0.43600  0.81370  Biso   1.000  O
  O77      1.0000 0.04005  0.34620  0.32210  Biso   1.000  O
  O78      1.0000 0.09545  0.31360  0.35580  Biso   1.000  O
  H80      1.0000 0.09310  0.34910  0.38090  Biso   1.000  H
  O79      1.0000 0.15213  0.07790  0.27860  Biso   1.000  O
  O80      1.0000 0.12440  0.99820  0.20940  Biso   1.000  O
  O81      1.0000 0.89612  0.36080  0.87300  Biso   1.000  O
  O82      1.0000 0.83437  0.17690  0.96370  Biso   1.000  O
  O83      1.0000 0.98456  0.08810  0.17180  Biso   1.000  O
  O84      1.0000 0.04707  0.27170  0.08280  Biso   1.000  O
  O85      1.0000 0.78354  0.12980  0.59069  Biso   1.000  O
  O86      1.0000 0.82747  0.04270  0.62630  Biso   1.000  O
  O87      1.0000 0.78589  0.30150  0.42051  Biso   1.000  O
  O88      1.0000 0.83235  0.30870  0.38150  Biso   1.000  O
  O89      1.0000 0.89237  0.99970  0.43080  Biso   1.000  O
  O90      1.0000 0.94204  0.18010  0.57320  Biso   1.000  O
  Zn11     1.0000 0.24397  0.62098  0.62826  Biso   1.000  Zn
  Zn12     1.0000 0.31318  0.50384  0.69532  Biso   1.000  Zn
  C226     1.0000 0.29545  0.73190  0.78780  Biso   1.000  C
  C227     1.0000 0.27436  0.80330  0.79130  Biso   1.000  C
  H81      1.0000 0.25370  0.81090  0.76400  Biso   1.000  H
  C228     1.0000 0.28354  0.86380  0.83500  Biso   1.000  C
  C229     1.0000 0.31394  0.85150  0.87540  Biso   1.000  C
  H82      1.0000 0.32070  0.89220  0.90480  Biso   1.000  H
  C230     1.0000 0.33410  0.77970  0.87230  Biso   1.000  C
  C231     1.0000 0.32580  0.72000  0.82960  Biso   1.000  C
  H83      1.0000 0.34020  0.67160  0.82830  Biso   1.000  H
  C232     1.0000 0.28609  0.66720  0.73950  Biso   1.000  C
  C233     1.0000 0.26166  0.94350  0.83700  Biso   1.000  C
  C234     1.0000 0.36243  0.70910  0.96190  Biso   1.000  C
  C235     1.0000 0.39386  0.68980  0.00560  Biso   1.000  C
  C236     1.0000 0.39162  0.63240  0.04830  Biso   1.000  C
  H84      1.0000 0.37030  0.60530  0.04990  Biso   1.000  H
  C237     1.0000 0.42230  0.61400  0.09060  Biso   1.000  C
  H85      1.0000 0.42090  0.57490  0.12030  Biso   1.000  H
  C238     1.0000 0.45384  0.65370  0.08810  Biso   1.000  C
  C239     1.0000 0.48482  0.63890  0.13300  Biso   1.000  C
  C240     1.0000 0.51907  0.73910  0.08420  Biso   1.000  C
  C241     1.0000 0.48794  0.75500  0.03930  Biso   1.000  C
  C242     1.0000 0.48935  0.81090  0.99480  Biso   1.000  C
  H86      1.0000 0.51040  0.83860  0.99220  Biso   1.000  H
  C243     1.0000 0.45890  0.82640  0.95300  Biso   1.000  C
  H87      1.0000 0.46020  0.86370  0.92240  Biso   1.000  H
  C244     1.0000 0.42781  0.78880  0.95590  Biso   1.000  C
  C245     1.0000 0.39649  0.81050  0.91160  Biso   1.000  C
  C246     1.0000 0.42515  0.73060  0.00000  Biso   1.000  C
  C247     1.0000 0.45603  0.71220  0.04270  Biso   1.000  C
  C248     1.0000 0.54383  0.68550  0.18010  Biso   1.000  C
  C249     1.0000 0.54172  0.74430  0.22340  Biso   1.000  C
  H88      1.0000 0.52250  0.78190  0.22020  Biso   1.000  H
  C250     1.0000 0.56838  0.74680  0.27130  Biso   1.000  C
  C251     1.0000 0.59611  0.68770  0.27460  Biso   1.000  C
  H89      1.0000 0.61450  0.68900  0.30660  Biso   1.000  H
  C252     1.0000 0.59690  0.62820  0.23220  Biso   1.000  C
  C253     1.0000 0.57017  0.62600  0.18410  Biso   1.000  C
  H90      1.0000 0.57020  0.58480  0.15510  Biso   1.000  H
  C254     1.0000 0.56680  0.80890  0.31850  Biso   1.000  C
  C255     1.0000 0.62670  0.56150  0.23940  Biso   1.000  C
  C256     1.0000 0.33233  0.63040  0.54600  Biso   1.000  C
  C257     1.0000 0.36546  0.59750  0.54460  Biso   1.000  C
  H91      1.0000 0.37590  0.55620  0.57160  Biso   1.000  H
  C258     1.0000 0.38276  0.62700  0.50230  Biso   1.000  C
  C259     1.0000 0.36761  0.68570  0.46160  Biso   1.000  C
  H92      1.0000 0.37970  0.70400  0.43330  Biso   1.000  H
  C260     1.0000 0.33428  0.71830  0.46220  Biso   1.000  C
  C261     1.0000 0.31699  0.68870  0.50490  Biso   1.000  C
  H93      1.0000 0.29440  0.70920  0.50540  Biso   1.000  H
  C262     1.0000 0.31332  0.59860  0.59140  Biso   1.000  C
  C263     1.0000 0.31684  0.78050  0.41820  Biso   1.000  C
  C264     1.0000 0.44600  0.62370  0.54030  Biso   1.000  C
  C265     1.0000 0.48002  0.58320  0.54070  Biso   1.000  C
  C266     1.0000 0.50882  0.61030  0.57980  Biso   1.000  C
  H94      1.0000 0.50670  0.65340  0.60670  Biso   1.000  H
  C267     1.0000 0.45754  0.42900  0.42140  Biso   1.000  C
  H95      1.0000 0.43780  0.41220  0.39420  Biso   1.000  H
  C268     1.0000 0.45422  0.48940  0.46100  Biso   1.000  C
  C269     1.0000 0.41864  0.52640  0.46140  Biso   1.000  C
  C270     1.0000 0.48349  0.51880  0.50100  Biso   1.000  C
  N16      1.0000 0.36579  0.76450  0.91670  Biso   1.000  N
  N17      1.0000 0.51504  0.68570  0.12930  Biso   1.000  N
  N18      1.0000 0.41758  0.59080  0.50020  Biso   1.000  N
  O91      1.0000 0.25875  0.67930  0.70232  Biso   1.000  O
  O92      1.0000 0.30743  0.60530  0.73951  Biso   1.000  O
  O93      1.0000 0.27606  0.01010  0.86181  Biso   1.000  O
  O94      1.0000 0.22956  0.93600  0.81370  Biso   1.000  O
  O95      1.0000 0.54005  0.84620  0.32210  Biso   1.000  O
  O96      1.0000 0.59545  0.81360  0.35580  Biso   1.000  O
  H96      1.0000 0.59310  0.84910  0.38090  Biso   1.000  H
  O97      1.0000 0.65213  0.57790  0.27860  Biso   1.000  O
  O98      1.0000 0.62440  0.49820  0.20940  Biso   1.000  O
  O99      1.0000 0.39612  0.86080  0.87300  Biso   1.000  O
  O100     1.0000 0.33437  0.67690  0.96370  Biso   1.000  O
  O101     1.0000 0.48456  0.58810  0.17180  Biso   1.000  O
  O102     1.0000 0.54707  0.77170  0.08280  Biso   1.000  O
  O103     1.0000 0.28354  0.62980  0.59069  Biso   1.000  O
  O104     1.0000 0.32747  0.54270  0.62630  Biso   1.000  O
  O105     1.0000 0.28589  0.80150  0.42051  Biso   1.000  O
  O106     1.0000 0.33235  0.80870  0.38150  Biso   1.000  O
  O107     1.0000 0.39237  0.49970  0.43080  Biso   1.000  O
  O108     1.0000 0.44204  0.68010  0.57320  Biso   1.000  O
  Zn13     1.0000 0.25603  0.12098  0.87174  Biso   1.000  Zn
  Zn14     1.0000 0.18682  0.00384  0.80468  Biso   1.000  Zn
  C271     1.0000 0.20455  0.23190  0.71220  Biso   1.000  C
  C272     1.0000 0.22564  0.30330  0.70870  Biso   1.000  C
  H97      1.0000 0.24630  0.31090  0.73600  Biso   1.000  H
  C273     1.0000 0.21646  0.36380  0.66500  Biso   1.000  C
  C274     1.0000 0.18606  0.35150  0.62460  Biso   1.000  C
  H98      1.0000 0.17930  0.39220  0.59520  Biso   1.000  H
  C275     1.0000 0.16590  0.27970  0.62770  Biso   1.000  C
  C276     1.0000 0.17420  0.22000  0.67040  Biso   1.000  C
  H99      1.0000 0.15980  0.17160  0.67170  Biso   1.000  H
  C277     1.0000 0.21391  0.16720  0.76050  Biso   1.000  C
  C278     1.0000 0.23834  0.44350  0.66300  Biso   1.000  C
  C279     1.0000 0.13757  0.20910  0.53810  Biso   1.000  C
  C280     1.0000 0.10614  0.18980  0.49440  Biso   1.000  C
  C281     1.0000 0.10838  0.13240  0.45170  Biso   1.000  C
  H100     1.0000 0.12970  0.10530  0.45010  Biso   1.000  H
  C282     1.0000 0.07770  0.11400  0.40940  Biso   1.000  C
  H101     1.0000 0.07910  0.07490  0.37970  Biso   1.000  H
  C283     1.0000 0.04616  0.15370  0.41190  Biso   1.000  C
  C284     1.0000 0.01518  0.13890  0.36700  Biso   1.000  C
  C285     1.0000 0.98093  0.23910  0.41580  Biso   1.000  C
  C286     1.0000 0.01206  0.25500  0.46070  Biso   1.000  C
  C287     1.0000 0.01065  0.31090  0.50520  Biso   1.000  C
  H102     1.0000 0.98960  0.33860  0.50780  Biso   1.000  H
  C288     1.0000 0.04110  0.32640  0.54700  Biso   1.000  C
  H103     1.0000 0.03980  0.36370  0.57760  Biso   1.000  H
  C289     1.0000 0.07219  0.28880  0.54410  Biso   1.000  C
  C290     1.0000 0.10351  0.31050  0.58840  Biso   1.000  C
  C291     1.0000 0.07485  0.23060  0.50000  Biso   1.000  C
  C292     1.0000 0.04397  0.21220  0.45730  Biso   1.000  C
  C293     1.0000 0.95617  0.18550  0.31990  Biso   1.000  C
  C294     1.0000 0.95828  0.24430  0.27660  Biso   1.000  C
  H104     1.0000 0.97750  0.28190  0.27980  Biso   1.000  H
  C295     1.0000 0.93162  0.24680  0.22870  Biso   1.000  C
  C296     1.0000 0.90389  0.18770  0.22540  Biso   1.000  C
  H105     1.0000 0.88550  0.18900  0.19340  Biso   1.000  H
  C297     1.0000 0.90310  0.12820  0.26780  Biso   1.000  C
  C298     1.0000 0.92983  0.12600  0.31590  Biso   1.000  C
  H106     1.0000 0.92980  0.08480  0.34490  Biso   1.000  H
  C299     1.0000 0.93320  0.30890  0.18150  Biso   1.000  C
  C300     1.0000 0.87330  0.06150  0.26060  Biso   1.000  C
  C301     1.0000 0.16767  0.13040  0.95400  Biso   1.000  C
  C302     1.0000 0.13454  0.09750  0.95540  Biso   1.000  C
  H107     1.0000 0.12410  0.05620  0.92840  Biso   1.000  H
  C303     1.0000 0.11724  0.12700  0.99770  Biso   1.000  C
  C304     1.0000 0.13239  0.18570  0.03840  Biso   1.000  C
  H108     1.0000 0.12030  0.20400  0.06670  Biso   1.000  H
  C305     1.0000 0.16572  0.21830  0.03780  Biso   1.000  C
  C306     1.0000 0.18301  0.18870  0.99510  Biso   1.000  C
  H109     1.0000 0.20560  0.20920  0.99460  Biso   1.000  H
  C307     1.0000 0.18668  0.09860  0.90860  Biso   1.000  C
  C308     1.0000 0.18316  0.28050  0.08180  Biso   1.000  C
  C309     1.0000 0.05400  0.12370  0.95970  Biso   1.000  C
  C310     1.0000 0.01998  0.08320  0.95930  Biso   1.000  C
  C311     1.0000 0.99118  0.11030  0.92020  Biso   1.000  C
  H110     1.0000 0.99330  0.15340  0.89330  Biso   1.000  H
  C312     1.0000 0.04246  0.92900  0.07860  Biso   1.000  C
  H111     1.0000 0.06220  0.91220  0.10580  Biso   1.000  H
  C313     1.0000 0.04578  0.98940  0.03900  Biso   1.000  C
  C314     1.0000 0.08136  0.02640  0.03860  Biso   1.000  C
  C315     1.0000 0.01651  0.01880  0.99900  Biso   1.000  C
  N19      1.0000 0.13421  0.26450  0.58330  Biso   1.000  N
  N20      1.0000 0.98496  0.18570  0.37070  Biso   1.000  N
  N21      1.0000 0.08242  0.09080  0.99980  Biso   1.000  N
  O109     1.0000 0.24125  0.17930  0.79768  Biso   1.000  O
  O110     1.0000 0.19257  0.10530  0.76049  Biso   1.000  O
  O111     1.0000 0.22394  0.51010  0.63819  Biso   1.000  O
  O112     1.0000 0.27044  0.43600  0.68630  Biso   1.000  O
  O113     1.0000 0.95995  0.34620  0.17790  Biso   1.000  O
  O114     1.0000 0.90455  0.31360  0.14420  Biso   1.000  O
  H112     1.0000 0.90690  0.34910  0.11910  Biso   1.000  H
  O115     1.0000 0.84787  0.07790  0.22140  Biso   1.000  O
  O116     1.0000 0.87560  0.99820  0.29060  Biso   1.000  O
  O117     1.0000 0.10388  0.36080  0.62700  Biso   1.000  O
  O118     1.0000 0.16563  0.17690  0.53630  Biso   1.000  O
  O119     1.0000 0.01544  0.08810  0.32820  Biso   1.000  O
  O120     1.0000 0.95293  0.27170  0.41720  Biso   1.000  O
  O121     1.0000 0.21646  0.12980  0.90931  Biso   1.000  O
  O122     1.0000 0.17253  0.04270  0.87370  Biso   1.000  O
  O123     1.0000 0.21411  0.30150  0.07949  Biso   1.000  O
  O124     1.0000 0.16765  0.30870  0.11850  Biso   1.000  O
  O125     1.0000 0.10763  0.99970  0.06920  Biso   1.000  O
  O126     1.0000 0.05796  0.18010  0.92680  Biso   1.000  O
  Zn15     1.0000 0.75603  0.62098  0.87174  Biso   1.000  Zn
  Zn16     1.0000 0.68682  0.50384  0.80468  Biso   1.000  Zn
  C316     1.0000 0.70455  0.73190  0.71220  Biso   1.000  C
  C317     1.0000 0.72564  0.80330  0.70870  Biso   1.000  C
  H113     1.0000 0.74630  0.81090  0.73600  Biso   1.000  H
  C318     1.0000 0.71646  0.86380  0.66500  Biso   1.000  C
  C319     1.0000 0.68606  0.85150  0.62460  Biso   1.000  C
  H114     1.0000 0.67930  0.89220  0.59520  Biso   1.000  H
  C320     1.0000 0.66590  0.77970  0.62770  Biso   1.000  C
  C321     1.0000 0.67420  0.72000  0.67040  Biso   1.000  C
  H115     1.0000 0.65980  0.67160  0.67170  Biso   1.000  H
  C322     1.0000 0.71391  0.66720  0.76050  Biso   1.000  C
  C323     1.0000 0.73834  0.94350  0.66300  Biso   1.000  C
  C324     1.0000 0.63757  0.70910  0.53810  Biso   1.000  C
  C325     1.0000 0.60614  0.68980  0.49440  Biso   1.000  C
  C326     1.0000 0.60838  0.63240  0.45170  Biso   1.000  C
  H116     1.0000 0.62970  0.60530  0.45010  Biso   1.000  H
  C327     1.0000 0.57770  0.61400  0.40940  Biso   1.000  C
  H117     1.0000 0.57910  0.57490  0.37970  Biso   1.000  H
  C328     1.0000 0.54616  0.65370  0.41190  Biso   1.000  C
  C329     1.0000 0.51518  0.63890  0.36700  Biso   1.000  C
  C330     1.0000 0.48093  0.73910  0.41580  Biso   1.000  C
  C331     1.0000 0.51206  0.75500  0.46070  Biso   1.000  C
  C332     1.0000 0.51065  0.81090  0.50520  Biso   1.000  C
  H118     1.0000 0.48960  0.83860  0.50780  Biso   1.000  H
  C333     1.0000 0.54110  0.82640  0.54700  Biso   1.000  C
  H119     1.0000 0.53980  0.86370  0.57760  Biso   1.000  H
  C334     1.0000 0.57219  0.78880  0.54410  Biso   1.000  C
  C335     1.0000 0.60351  0.81050  0.58840  Biso   1.000  C
  C336     1.0000 0.57485  0.73060  0.50000  Biso   1.000  C
  C337     1.0000 0.54397  0.71220  0.45730  Biso   1.000  C
  C338     1.0000 0.45617  0.68550  0.31990  Biso   1.000  C
  C339     1.0000 0.45828  0.74430  0.27660  Biso   1.000  C
  H120     1.0000 0.47750  0.78190  0.27980  Biso   1.000  H
  C340     1.0000 0.43162  0.74680  0.22870  Biso   1.000  C
  C341     1.0000 0.40389  0.68770  0.22540  Biso   1.000  C
  H121     1.0000 0.38550  0.68900  0.19340  Biso   1.000  H
  C342     1.0000 0.40310  0.62820  0.26780  Biso   1.000  C
  C343     1.0000 0.42983  0.62600  0.31590  Biso   1.000  C
  H122     1.0000 0.42980  0.58480  0.34490  Biso   1.000  H
  C344     1.0000 0.43320  0.80890  0.18150  Biso   1.000  C
  C345     1.0000 0.37330  0.56150  0.26060  Biso   1.000  C
  C346     1.0000 0.66767  0.63040  0.95400  Biso   1.000  C
  C347     1.0000 0.63454  0.59750  0.95540  Biso   1.000  C
  H123     1.0000 0.62410  0.55620  0.92840  Biso   1.000  H
  C348     1.0000 0.61724  0.62700  0.99770  Biso   1.000  C
  C349     1.0000 0.63239  0.68570  0.03840  Biso   1.000  C
  H124     1.0000 0.62030  0.70400  0.06670  Biso   1.000  H
  C350     1.0000 0.66572  0.71830  0.03780  Biso   1.000  C
  C351     1.0000 0.68301  0.68870  0.99510  Biso   1.000  C
  H125     1.0000 0.70560  0.70920  0.99460  Biso   1.000  H
  C352     1.0000 0.68668  0.59860  0.90860  Biso   1.000  C
  C353     1.0000 0.68316  0.78050  0.08180  Biso   1.000  C
  C354     1.0000 0.55400  0.62370  0.95970  Biso   1.000  C
  C355     1.0000 0.51998  0.58320  0.95930  Biso   1.000  C
  C356     1.0000 0.49118  0.61030  0.92020  Biso   1.000  C
  H126     1.0000 0.49330  0.65340  0.89330  Biso   1.000  H
  C357     1.0000 0.54246  0.42900  0.07860  Biso   1.000  C
  H127     1.0000 0.56220  0.41220  0.10580  Biso   1.000  H
  C358     1.0000 0.54578  0.48940  0.03900  Biso   1.000  C
  C359     1.0000 0.58136  0.52640  0.03860  Biso   1.000  C
  C360     1.0000 0.51651  0.51880  0.99900  Biso   1.000  C
  N22      1.0000 0.63421  0.76450  0.58330  Biso   1.000  N
  N23      1.0000 0.48496  0.68570  0.37070  Biso   1.000  N
  N24      1.0000 0.58242  0.59080  0.99980  Biso   1.000  N
  O127     1.0000 0.74125  0.67930  0.79768  Biso   1.000  O
  O128     1.0000 0.69257  0.60530  0.76049  Biso   1.000  O
  O129     1.0000 0.72394  0.01010  0.63819  Biso   1.000  O
  O130     1.0000 0.77044  0.93600  0.68630  Biso   1.000  O
  O131     1.0000 0.45995  0.84620  0.17790  Biso   1.000  O
  O132     1.0000 0.40455  0.81360  0.14420  Biso   1.000  O
  H128     1.0000 0.40690  0.84910  0.11910  Biso   1.000  H
  O133     1.0000 0.34787  0.57790  0.22140  Biso   1.000  O
  O134     1.0000 0.37560  0.49820  0.29060  Biso   1.000  O
  O135     1.0000 0.60388  0.86080  0.62700  Biso   1.000  O
  O136     1.0000 0.66563  0.67690  0.53630  Biso   1.000  O
  O137     1.0000 0.51544  0.58810  0.32820  Biso   1.000  O
  O138     1.0000 0.45293  0.77170  0.41720  Biso   1.000  O
  O139     1.0000 0.71646  0.62980  0.90931  Biso   1.000  O
  O140     1.0000 0.67253  0.54270  0.87370  Biso   1.000  O
  O141     1.0000 0.71411  0.80150  0.07949  Biso   1.000  O
  O142     1.0000 0.66765  0.80870  0.11850  Biso   1.000  O
  O143     1.0000 0.60763  0.49970  0.06920  Biso   1.000  O
  O144     1.0000 0.55796  0.68010  0.92680  Biso   1.000  O
