data_image0
_cell_length_a       44.1252
_cell_length_b       44.1252
_cell_length_c       42.2961
_cell_angle_alpha    90
_cell_angle_beta     90
_cell_angle_gamma    120

_symmetry_space_group_name_H-M    "P 1"
_symmetry_int_tables_number       1

loop_
  _symmetry_equiv_pos_as_xyz
  'x, y, z'

loop_
  _atom_site_label
  _atom_site_occupancy
  _atom_site_fract_x
  _atom_site_fract_y
  _atom_site_fract_z
  _atom_site_thermal_displace_type
  _atom_site_B_iso_or_equiv
  _atom_site_type_symbol
  In1      1.0000 0.80138  0.04043  0.95905  Biso   1.000  In
  O1       1.0000 0.82457  0.07384  0.91413  Biso   1.000  O
  O2       1.0000 0.82316  0.09836  0.95823  Biso   1.000  O
  O3       1.0000 0.77823  0.99971  0.99811  Biso   1.000  O
  O4       1.0000 0.79318  0.05293  0.00926  Biso   1.000  O
  O5       1.0000 0.82779  0.01057  0.94289  Biso   1.000  O
  O6       1.0000 0.85507  0.05389  0.97612  Biso   1.000  O
  O7       1.0000 0.74917  0.03796  0.94825  Biso   1.000  O
  O8       1.0000 0.76123  0.99963  0.92634  Biso   1.000  O
  C1       1.0000 0.83202  0.10193  0.92934  Biso   1.000  C
  C2       1.0000 0.78124  0.02156  0.01837  Biso   1.000  C
  C3       1.0000 0.85485  0.02913  0.95998  Biso   1.000  C
  C4       1.0000 0.84931  0.13598  0.91374  Biso   1.000  C
  C5       1.0000 0.77181  0.01249  0.05155  Biso   1.000  C
  C6       1.0000 0.88460  0.02306  0.95972  Biso   1.000  C
  C7       1.0000 0.86029  0.16558  0.93243  Biso   1.000  C
  C8       1.0000 0.85441  0.13938  0.88122  Biso   1.000  C
  C9       1.0000 0.76025  0.97882  0.06228  Biso   1.000  C
  C10      1.0000 0.77547  0.03815  0.07287  Biso   1.000  C
  C11      1.0000 0.88172  0.99404  0.94391  Biso   1.000  C
  C12      1.0000 0.91601  0.04631  0.97499  Biso   1.000  C
  H1       1.0000 0.85690  0.16330  0.95420  Biso   1.000  H
  C13      1.0000 0.87636  0.19857  0.91859  Biso   1.000  C
  C14      1.0000 0.87048  0.17237  0.86738  Biso   1.000  C
  H2       1.0000 0.84710  0.11960  0.86870  Biso   1.000  H
  H3       1.0000 0.75870  0.96190  0.04820  Biso   1.000  H
  C15      1.0000 0.75099  0.96977  0.09336  Biso   1.000  C
  C16      1.0000 0.76647  0.02907  0.10404  Biso   1.000  C
  H4       1.0000 0.78390  0.06110  0.06620  Biso   1.000  H
  H5       1.0000 0.86120  0.97870  0.93340  Biso   1.000  H
  C17      1.0000 0.90923  0.98846  0.94407  Biso   1.000  C
  C18      1.0000 0.94342  0.04039  0.97381  Biso   1.000  C
  H6       1.0000 0.91810  0.06560  0.98580  Biso   1.000  H
  H7       1.0000 0.88370  0.21840  0.93110  Biso   1.000  H
  C19      1.0000 0.88146  0.20196  0.88606  Biso   1.000  C
  H8       1.0000 0.87390  0.17460  0.84560  Biso   1.000  H
  H9       1.0000 0.74270  0.94690  0.10000  Biso   1.000  H
  C20      1.0000 0.75410  0.99511  0.11468  Biso   1.000  C
  H10      1.0000 0.76870  0.04610  0.11830  Biso   1.000  H
  H11      1.0000 0.90670  0.96850  0.93420  Biso   1.000  H
  C21      1.0000 0.94149  0.01159  0.95851  Biso   1.000  C
  H12      1.0000 0.96430  0.05620  0.98360  Biso   1.000  H
  C22      1.0000 0.90016  0.23783  0.87137  Biso   1.000  C
  C23      1.0000 0.74380  0.98645  0.14920  Biso   1.000  C
  C24      1.0000 0.97184  0.00614  0.95708  Biso   1.000  C
  C25      1.0000 0.89170  0.24250  0.84078  Biso   1.000  C
  C26      1.0000 0.92677  0.26586  0.88768  Biso   1.000  C
  C27      1.0000 0.74996  0.96239  0.16433  Biso   1.000  C
  C28      1.0000 0.72890  0.00304  0.16438  Biso   1.000  C
  C29      1.0000 0.00567  0.03337  0.95756  Biso   1.000  C
  H13      1.0000 0.87390  0.22380  0.82990  Biso   1.000  H
  C30      1.0000 0.90988  0.27519  0.82650  Biso   1.000  C
  C31      1.0000 0.94495  0.29855  0.87339  Biso   1.000  C
  H14      1.0000 0.93240  0.26270  0.90810  Biso   1.000  H
  H15      1.0000 0.76090  0.95200  0.15380  Biso   1.000  H
  C32      1.0000 0.73950  0.95389  0.19592  Biso   1.000  C
  C33      1.0000 0.71850  0.99518  0.19603  Biso   1.000  C
  H16      1.0000 0.72570  0.01960  0.15370  Biso   1.000  H
  H17      1.0000 0.00960  0.05610  0.95820  Biso   1.000  H
  C34      1.0000 0.93650  0.30322  0.84280  Biso   1.000  C
  C35      1.0000 0.90250  0.27993  0.79279  Biso   1.000  C
  C36      1.0000 0.97238  0.32888  0.89147  Biso   1.000  C
  C37      1.0000 0.72380  0.97048  0.21122  Biso   1.000  C
  C38      1.0000 0.74628  0.92879  0.21356  Biso   1.000  C
  C39      1.0000 0.70185  0.01260  0.21304  Biso   1.000  C
  H18      1.0000 0.94860  0.32510  0.83320  Biso   1.000  H
  C40      1.0000 0.90864  0.31127  0.78104  Biso   1.000  C
  C41      1.0000 0.88980  0.25177  0.77246  Biso   1.000  C
  C42      1.0000 0.99856  0.32719  0.90829  Biso   1.000  C
  C43      1.0000 0.97131  0.35983  0.89083  Biso   1.000  C
  H19      1.0000 0.71670  0.96480  0.23210  Biso   1.000  H
  C44      1.0000 0.73764  0.92327  0.24545  Biso   1.000  C
  C45      1.0000 0.75881  0.90933  0.19834  Biso   1.000  C
  C46      1.0000 0.67509  0.99346  0.23467  Biso   1.000  C
  C47      1.0000 0.71210  0.04657  0.20765  Biso   1.000  C
  H20      1.0000 0.91820  0.33070  0.79430  Biso   1.000  H
  C48      1.0000 0.90112  0.31505  0.75028  Biso   1.000  C
  C49      1.0000 0.88450  0.25550  0.74200  Biso   1.000  C
  H21      1.0000 0.88490  0.23000  0.78000  Biso   1.000  H
  H22      1.0000 0.99930  0.30650  0.90870  Biso   1.000  H
  C50      1.0000 0.02367  0.35645  0.92446  Biso   1.000  C
  C51      1.0000 0.99643  0.38909  0.90701  Biso   1.000  C
  H23      1.0000 0.95380  0.36100  0.87960  Biso   1.000  H
  H24      1.0000 0.72930  0.93630  0.25560  Biso   1.000  H
  C52      1.0000 0.74150  0.89830  0.26214  Biso   1.000  C
  C53      1.0000 0.76270  0.88435  0.21503  Biso   1.000  C
  H25      1.0000 0.76460  0.91300  0.17700  Biso   1.000  H
  H26      1.0000 0.66760  0.97000  0.23830  Biso   1.000  H
  C54      1.0000 0.65976  0.00975  0.25072  Biso   1.000  C
  C55      1.0000 0.69714  0.06306  0.22412  Biso   1.000  C
  H27      1.0000 0.72940  0.05910  0.19270  Biso   1.000  H
  H28      1.0000 0.90510  0.33660  0.74290  Biso   1.000  H
  C56      1.0000 0.88761  0.28640  0.73047  Biso   1.000  C
  H29      1.0000 0.87850  0.23700  0.72810  Biso   1.000  H
  H30      1.0000 0.04120  0.35530  0.93570  Biso   1.000  H
  C57      1.0000 0.02261  0.38740  0.92382  Biso   1.000  C
  H31      1.0000 0.99570  0.40980  0.90660  Biso   1.000  H
  H32      1.0000 0.73570  0.89460  0.28350  Biso   1.000  H
  C58      1.0000 0.75406  0.87883  0.24693  Biso   1.000  C
  H33      1.0000 0.77110  0.87130  0.20480  Biso   1.000  H
  H34      1.0000 0.64160  0.99690  0.26480  Biso   1.000  H
  C59      1.0000 0.67123  0.04495  0.24595  Biso   1.000  C
  H35      1.0000 0.70480  0.08650  0.22030  Biso   1.000  H
  C60      1.0000 0.87998  0.28920  0.69660  Biso   1.000  C
  C61      1.0000 0.04790  0.41734  0.94142  Biso   1.000  C
  C62      1.0000 0.75770  0.84930  0.26430  Biso   1.000  C
  C63      1.0000 0.65607  0.06335  0.26314  Biso   1.000  C
  O9       1.0000 0.86344  0.26172  0.68051  Biso   1.000  O
  O10      1.0000 0.88779  0.31838  0.68463  Biso   1.000  O
  O11      1.0000 0.04044  0.44040  0.95087  Biso   1.000  O
  O12      1.0000 0.07780  0.42435  0.94644  Biso   1.000  O
  O13      1.0000 0.77198  0.83609  0.25420  Biso   1.000  O
  O14      1.0000 0.74780  0.84740  0.29290  Biso   1.000  O
  In2      1.0000 0.85998  0.28826  0.63782  Biso   1.000  In
  O15      1.0000 0.84286  0.32739  0.62941  Biso   1.000  O
  O16      1.0000 0.81203  0.28426  0.66133  Biso   1.000  O
  C64      1.0000 0.81587  0.30988  0.64550  Biso   1.000  C
  C65      1.0000 0.78615  0.31708  0.64547  Biso   1.000  C
  C66      1.0000 0.75522  0.29412  0.66089  Biso   1.000  C
  C67      1.0000 0.78816  0.34455  0.62773  Biso   1.000  C
  H36      1.0000 0.75390  0.27570  0.67280  Biso   1.000  H
  C68      1.0000 0.72629  0.29863  0.65857  Biso   1.000  C
  C69      1.0000 0.75924  0.34905  0.62542  Biso   1.000  C
  H37      1.0000 0.80890  0.35990  0.61740  Biso   1.000  H
  H38      1.0000 0.70560  0.28330  0.66890  Biso   1.000  H
  C70      1.0000 0.72830  0.32609  0.64083  Biso   1.000  C
  H39      1.0000 0.76060  0.36740  0.61350  Biso   1.000  H
  C71      1.0000 0.69640  0.33060  0.63780  Biso   1.000  C
  C72      1.0000 0.66320  0.30080  0.63794  Biso   1.000  C
  H40      1.0000 0.66100  0.27880  0.63810  Biso   1.000  H
  In3      1.0000 0.46805  0.37376  0.29239  Biso   1.000  In
  O17      1.0000 0.49124  0.40717  0.24746  Biso   1.000  O
  O18      1.0000 0.48983  0.43169  0.29156  Biso   1.000  O
  O19      1.0000 0.44490  0.33304  0.33144  Biso   1.000  O
  O20      1.0000 0.45985  0.38626  0.34259  Biso   1.000  O
  O21      1.0000 0.49446  0.34390  0.27622  Biso   1.000  O
  O22      1.0000 0.52174  0.38722  0.30945  Biso   1.000  O
  O23      1.0000 0.41584  0.37129  0.28158  Biso   1.000  O
  O24      1.0000 0.42790  0.33296  0.25967  Biso   1.000  O
  C73      1.0000 0.49869  0.43526  0.26267  Biso   1.000  C
  C74      1.0000 0.44791  0.35489  0.35170  Biso   1.000  C
  C75      1.0000 0.52152  0.36246  0.29331  Biso   1.000  C
  C76      1.0000 0.51598  0.46931  0.24707  Biso   1.000  C
  C77      1.0000 0.43848  0.34582  0.38488  Biso   1.000  C
  C78      1.0000 0.55127  0.35639  0.29305  Biso   1.000  C
  C79      1.0000 0.52696  0.49891  0.26576  Biso   1.000  C
  C80      1.0000 0.52108  0.47271  0.21455  Biso   1.000  C
  C81      1.0000 0.42692  0.31215  0.39561  Biso   1.000  C
  C82      1.0000 0.44214  0.37148  0.40620  Biso   1.000  C
  C83      1.0000 0.54839  0.32737  0.27724  Biso   1.000  C
  C84      1.0000 0.58268  0.37964  0.30832  Biso   1.000  C
  H41      1.0000 0.52357  0.49663  0.28753  Biso   1.000  H
  C85      1.0000 0.54303  0.53190  0.25192  Biso   1.000  C
  C86      1.0000 0.53715  0.50570  0.20071  Biso   1.000  C
  H42      1.0000 0.51377  0.45293  0.20203  Biso   1.000  H
  H43      1.0000 0.42537  0.29523  0.38153  Biso   1.000  H
  C87      1.0000 0.41766  0.30310  0.42669  Biso   1.000  C
  C88      1.0000 0.43314  0.36240  0.43737  Biso   1.000  C
  H44      1.0000 0.45057  0.39443  0.39953  Biso   1.000  H
  H45      1.0000 0.52787  0.31203  0.26673  Biso   1.000  H
  C89      1.0000 0.57590  0.32179  0.27740  Biso   1.000  C
  C90      1.0000 0.61009  0.37372  0.30714  Biso   1.000  C
  H46      1.0000 0.58477  0.39893  0.31913  Biso   1.000  H
  H47      1.0000 0.55037  0.55173  0.26443  Biso   1.000  H
  C91      1.0000 0.54813  0.53529  0.21939  Biso   1.000  C
  H48      1.0000 0.54057  0.50793  0.17893  Biso   1.000  H
  H49      1.0000 0.40937  0.28023  0.43333  Biso   1.000  H
  C92      1.0000 0.42077  0.32844  0.44801  Biso   1.000  C
  H50      1.0000 0.43537  0.37943  0.45163  Biso   1.000  H
  H51      1.0000 0.57337  0.30183  0.26753  Biso   1.000  H
  C93      1.0000 0.60816  0.34492  0.29184  Biso   1.000  C
  H52      1.0000 0.63097  0.38953  0.31693  Biso   1.000  H
  C94      1.0000 0.56683  0.57116  0.20470  Biso   1.000  C
  C95      1.0000 0.41047  0.31978  0.48253  Biso   1.000  C
  C96      1.0000 0.63851  0.33947  0.29041  Biso   1.000  C
  C97      1.0000 0.55837  0.57583  0.17411  Biso   1.000  C
  C98      1.0000 0.59344  0.59919  0.22101  Biso   1.000  C
  C99      1.0000 0.41663  0.29572  0.49766  Biso   1.000  C
  C100     1.0000 0.39557  0.33637  0.49771  Biso   1.000  C
  C101     1.0000 0.67234  0.36670  0.29089  Biso   1.000  C
  H53      1.0000 0.54057  0.55713  0.16323  Biso   1.000  H
  C102     1.0000 0.57655  0.60852  0.15983  Biso   1.000  C
  C103     1.0000 0.61162  0.63188  0.20672  Biso   1.000  C
  H54      1.0000 0.59907  0.59603  0.24143  Biso   1.000  H
  H55      1.0000 0.42757  0.28533  0.48713  Biso   1.000  H
  C104     1.0000 0.40617  0.28722  0.52925  Biso   1.000  C
  C105     1.0000 0.38517  0.32851  0.52936  Biso   1.000  C
  H56      1.0000 0.39237  0.35293  0.48703  Biso   1.000  H
  H57      1.0000 0.67627  0.38943  0.29153  Biso   1.000  H
  C106     1.0000 0.60317  0.63655  0.17613  Biso   1.000  C
  C107     1.0000 0.56917  0.61326  0.12612  Biso   1.000  C
  C108     1.0000 0.63905  0.66221  0.22480  Biso   1.000  C
  C109     1.0000 0.39047  0.30381  0.54455  Biso   1.000  C
  C110     1.0000 0.41295  0.26212  0.54689  Biso   1.000  C
  C111     1.0000 0.36852  0.34593  0.54637  Biso   1.000  C
  H58      1.0000 0.61527  0.65843  0.16653  Biso   1.000  H
  C112     1.0000 0.57531  0.64460  0.11437  Biso   1.000  C
  C113     1.0000 0.55647  0.58510  0.10579  Biso   1.000  C
  C114     1.0000 0.66523  0.66052  0.24162  Biso   1.000  C
  C115     1.0000 0.63798  0.69316  0.22416  Biso   1.000  C
  H59      1.0000 0.38337  0.29813  0.56543  Biso   1.000  H
  C116     1.0000 0.40431  0.25660  0.57878  Biso   1.000  C
  C117     1.0000 0.42548  0.24266  0.53167  Biso   1.000  C
  C118     1.0000 0.34176  0.32679  0.56800  Biso   1.000  C
  C119     1.0000 0.37877  0.37990  0.54098  Biso   1.000  C
  H60      1.0000 0.58487  0.66403  0.12763  Biso   1.000  H
  C120     1.0000 0.56779  0.64838  0.08361  Biso   1.000  C
  C121     1.0000 0.55117  0.58883  0.07533  Biso   1.000  C
  H61      1.0000 0.55157  0.56333  0.11333  Biso   1.000  H
  H62      1.0000 0.66597  0.63983  0.24203  Biso   1.000  H
  C122     1.0000 0.69034  0.68978  0.25779  Biso   1.000  C
  C123     1.0000 0.66310  0.72242  0.24034  Biso   1.000  C
  H63      1.0000 0.62047  0.69433  0.21293  Biso   1.000  H
  H64      1.0000 0.39597  0.26963  0.58893  Biso   1.000  H
  C124     1.0000 0.40817  0.23163  0.59547  Biso   1.000  C
  C125     1.0000 0.42937  0.21768  0.54836  Biso   1.000  C
  H65      1.0000 0.43127  0.24633  0.51033  Biso   1.000  H
  H66      1.0000 0.33427  0.30333  0.57163  Biso   1.000  H
  C126     1.0000 0.32643  0.34308  0.58405  Biso   1.000  C
  C127     1.0000 0.36381  0.39639  0.55745  Biso   1.000  C
  H67      1.0000 0.39607  0.39243  0.52603  Biso   1.000  H
  H68      1.0000 0.57177  0.66993  0.07623  Biso   1.000  H
  C128     1.0000 0.55428  0.61973  0.06380  Biso   1.000  C
  H69      1.0000 0.54517  0.57033  0.06143  Biso   1.000  H
  H70      1.0000 0.70787  0.68863  0.26903  Biso   1.000  H
  C129     1.0000 0.68928  0.72073  0.25715  Biso   1.000  C
  H71      1.0000 0.66237  0.74313  0.23993  Biso   1.000  H
  H72      1.0000 0.40237  0.22793  0.61683  Biso   1.000  H
  C130     1.0000 0.42073  0.21216  0.58026  Biso   1.000  C
  H73      1.0000 0.43777  0.20463  0.53813  Biso   1.000  H
  H74      1.0000 0.30827  0.33023  0.59813  Biso   1.000  H
  C131     1.0000 0.33790  0.37828  0.57928  Biso   1.000  C
  H75      1.0000 0.37147  0.41983  0.55363  Biso   1.000  H
  C132     1.0000 0.54665  0.62253  0.02993  Biso   1.000  C
  C133     1.0000 0.71457  0.75067  0.27475  Biso   1.000  C
  C134     1.0000 0.42437  0.18263  0.59763  Biso   1.000  C
  C135     1.0000 0.32274  0.39668  0.59647  Biso   1.000  C
  O25      1.0000 0.53011  0.59505  0.01384  Biso   1.000  O
  O26      1.0000 0.55446  0.65171  0.01796  Biso   1.000  O
  O27      1.0000 0.70711  0.77373  0.28420  Biso   1.000  O
  O28      1.0000 0.74447  0.75768  0.27977  Biso   1.000  O
  O29      1.0000 0.43865  0.16942  0.58753  Biso   1.000  O
  O30      1.0000 0.41447  0.18073  0.62623  Biso   1.000  O
  In4      1.0000 0.52664  0.62159  0.97116  Biso   1.000  In
  O31      1.0000 0.50953  0.66072  0.96274  Biso   1.000  O
  O32      1.0000 0.47870  0.61759  0.99466  Biso   1.000  O
  C136     1.0000 0.48254  0.64321  0.97883  Biso   1.000  C
  C137     1.0000 0.45282  0.65041  0.97880  Biso   1.000  C
  C138     1.0000 0.42189  0.62745  0.99422  Biso   1.000  C
  C139     1.0000 0.45483  0.67788  0.96106  Biso   1.000  C
  H76      1.0000 0.42057  0.60903  0.00613  Biso   1.000  H
  C140     1.0000 0.39296  0.63196  0.99190  Biso   1.000  C
  C141     1.0000 0.42591  0.68238  0.95875  Biso   1.000  C
  H77      1.0000 0.47557  0.69323  0.95073  Biso   1.000  H
  H78      1.0000 0.37227  0.61663  0.00223  Biso   1.000  H
  C142     1.0000 0.39497  0.65942  0.97416  Biso   1.000  C
  H79      1.0000 0.42727  0.70073  0.94683  Biso   1.000  H
  C143     1.0000 0.36307  0.66393  0.97113  Biso   1.000  C
  C144     1.0000 0.32987  0.63413  0.97127  Biso   1.000  C
  H80      1.0000 0.32767  0.61213  0.97143  Biso   1.000  H
  In5      1.0000 0.13471  0.70710  0.62572  Biso   1.000  In
  O33      1.0000 0.15790  0.74051  0.58080  Biso   1.000  O
  O34      1.0000 0.15649  0.76503  0.62490  Biso   1.000  O
  O35      1.0000 0.11156  0.66638  0.66478  Biso   1.000  O
  O36      1.0000 0.12651  0.71960  0.67593  Biso   1.000  O
  O37      1.0000 0.16112  0.67724  0.60956  Biso   1.000  O
  O38      1.0000 0.18840  0.72056  0.64279  Biso   1.000  O
  O39      1.0000 0.08250  0.70463  0.61492  Biso   1.000  O
  O40      1.0000 0.09456  0.66630  0.59301  Biso   1.000  O
  C145     1.0000 0.16535  0.76860  0.59601  Biso   1.000  C
  C146     1.0000 0.11457  0.68823  0.68504  Biso   1.000  C
  C147     1.0000 0.18818  0.69580  0.62665  Biso   1.000  C
  C148     1.0000 0.18264  0.80265  0.58041  Biso   1.000  C
  C149     1.0000 0.10514  0.67916  0.71822  Biso   1.000  C
  C150     1.0000 0.21793  0.68973  0.62639  Biso   1.000  C
  C151     1.0000 0.19362  0.83225  0.59910  Biso   1.000  C
  C152     1.0000 0.18774  0.80605  0.54789  Biso   1.000  C
  C153     1.0000 0.09358  0.64549  0.72895  Biso   1.000  C
  C154     1.0000 0.10880  0.70482  0.73954  Biso   1.000  C
  C155     1.0000 0.21505  0.66071  0.61058  Biso   1.000  C
  C156     1.0000 0.24934  0.71298  0.64166  Biso   1.000  C
  H81      1.0000 0.19023  0.82997  0.62087  Biso   1.000  H
  C157     1.0000 0.20969  0.86524  0.58526  Biso   1.000  C
  C158     1.0000 0.20381  0.83904  0.53405  Biso   1.000  C
  H82      1.0000 0.18043  0.78627  0.53537  Biso   1.000  H
  H83      1.0000 0.09203  0.62857  0.71487  Biso   1.000  H
  C159     1.0000 0.08432  0.63644  0.76003  Biso   1.000  C
  C160     1.0000 0.09980  0.69574  0.77071  Biso   1.000  C
  H84      1.0000 0.11723  0.72777  0.73287  Biso   1.000  H
  H85      1.0000 0.19453  0.64537  0.60007  Biso   1.000  H
  C161     1.0000 0.24256  0.65513  0.61074  Biso   1.000  C
  C162     1.0000 0.27675  0.70706  0.64048  Biso   1.000  C
  H86      1.0000 0.25143  0.73227  0.65247  Biso   1.000  H
  H87      1.0000 0.21703  0.88507  0.59777  Biso   1.000  H
  C163     1.0000 0.21479  0.86863  0.55273  Biso   1.000  C
  H88      1.0000 0.20723  0.84127  0.51227  Biso   1.000  H
  H89      1.0000 0.07603  0.61357  0.76667  Biso   1.000  H
  C164     1.0000 0.08743  0.66178  0.78135  Biso   1.000  C
  H90      1.0000 0.10203  0.71277  0.78497  Biso   1.000  H
  H91      1.0000 0.24003  0.63517  0.60087  Biso   1.000  H
  C165     1.0000 0.27482  0.67826  0.62518  Biso   1.000  C
  H92      1.0000 0.29763  0.72287  0.65027  Biso   1.000  H
  C166     1.0000 0.23349  0.90450  0.53804  Biso   1.000  C
  C167     1.0000 0.07713  0.65312  0.81587  Biso   1.000  C
  C168     1.0000 0.30517  0.67281  0.62375  Biso   1.000  C
  C169     1.0000 0.22503  0.90917  0.50745  Biso   1.000  C
  C170     1.0000 0.26010  0.93253  0.55435  Biso   1.000  C
  C171     1.0000 0.08329  0.62906  0.83100  Biso   1.000  C
  C172     1.0000 0.06223  0.66971  0.83105  Biso   1.000  C
  C173     1.0000 0.33900  0.70004  0.62423  Biso   1.000  C
  H93      1.0000 0.20723  0.89047  0.49657  Biso   1.000  H
  C174     1.0000 0.24321  0.94186  0.49317  Biso   1.000  C
  C175     1.0000 0.27828  0.96522  0.54006  Biso   1.000  C
  H94      1.0000 0.26573  0.92937  0.57477  Biso   1.000  H
  H95      1.0000 0.09423  0.61867  0.82047  Biso   1.000  H
  C176     1.0000 0.07283  0.62056  0.86259  Biso   1.000  C
  C177     1.0000 0.05183  0.66185  0.86270  Biso   1.000  C
  H96      1.0000 0.05903  0.68627  0.82037  Biso   1.000  H
  H97      1.0000 0.34293  0.72277  0.62487  Biso   1.000  H
  C178     1.0000 0.26983  0.96989  0.50947  Biso   1.000  C
  C179     1.0000 0.23583  0.94660  0.45946  Biso   1.000  C
  C180     1.0000 0.30571  0.99555  0.55814  Biso   1.000  C
  C181     1.0000 0.05713  0.63715  0.87789  Biso   1.000  C
  C182     1.0000 0.07961  0.59546  0.88023  Biso   1.000  C
  C183     1.0000 0.03518  0.67927  0.87971  Biso   1.000  C
  H98      1.0000 0.28193  0.99177  0.49987  Biso   1.000  H
  C184     1.0000 0.24197  0.97794  0.44771  Biso   1.000  C
  C185     1.0000 0.22313  0.91844  0.43913  Biso   1.000  C
  C186     1.0000 0.33189  0.99386  0.57496  Biso   1.000  C
  C187     1.0000 0.30464  0.02650  0.55750  Biso   1.000  C
  H99      1.0000 0.05003  0.63147  0.89877  Biso   1.000  H
  C188     1.0000 0.07097  0.58994  0.91212  Biso   1.000  C
  C189     1.0000 0.09214  0.57600  0.86501  Biso   1.000  C
  C190     1.0000 0.00842  0.66013  0.90134  Biso   1.000  C
  C191     1.0000 0.04543  0.71324  0.87432  Biso   1.000  C
  H100     1.0000 0.25153  0.99737  0.46097  Biso   1.000  H
  C192     1.0000 0.23445  0.98172  0.41695  Biso   1.000  C
  C193     1.0000 0.21783  0.92217  0.40867  Biso   1.000  C
  H101     1.0000 0.21823  0.89667  0.44667  Biso   1.000  H
  H102     1.0000 0.33263  0.97317  0.57537  Biso   1.000  H
  C194     1.0000 0.35700  0.02312  0.59113  Biso   1.000  C
  C195     1.0000 0.32976  0.05576  0.57368  Biso   1.000  C
  H103     1.0000 0.28713  0.02767  0.54627  Biso   1.000  H
  H104     1.0000 0.06263  0.60297  0.92227  Biso   1.000  H
  C196     1.0000 0.07483  0.56497  0.92881  Biso   1.000  C
  C197     1.0000 0.09603  0.55102  0.88170  Biso   1.000  C
  H105     1.0000 0.09793  0.57967  0.84367  Biso   1.000  H
  H106     1.0000 0.00093  0.63667  0.90497  Biso   1.000  H
  C198     1.0000 0.99309  0.67642  0.91739  Biso   1.000  C
  C199     1.0000 0.03047  0.72973  0.89079  Biso   1.000  C
  H107     1.0000 0.06273  0.72577  0.85937  Biso   1.000  H
  H108     1.0000 0.23843  0.00327  0.40957  Biso   1.000  H
  C200     1.0000 0.22094  0.95307  0.39714  Biso   1.000  C
  H109     1.0000 0.21183  0.90367  0.39477  Biso   1.000  H
  H110     1.0000 0.37453  0.02197  0.60237  Biso   1.000  H
  C201     1.0000 0.35594  0.05407  0.59049  Biso   1.000  C
  H111     1.0000 0.32903  0.07647  0.57327  Biso   1.000  H
  H112     1.0000 0.06903  0.56127  0.95017  Biso   1.000  H
  C202     1.0000 0.08739  0.54550  0.91360  Biso   1.000  C
  H113     1.0000 0.10443  0.53797  0.87147  Biso   1.000  H
  H114     1.0000 0.97493  0.66357  0.93147  Biso   1.000  H
  C203     1.0000 0.00456  0.71162  0.91262  Biso   1.000  C
  H115     1.0000 0.03813  0.75317  0.88697  Biso   1.000  H
  C204     1.0000 0.21331  0.95587  0.36327  Biso   1.000  C
  C205     1.0000 0.38123  0.08401  0.60809  Biso   1.000  C
  C206     1.0000 0.09103  0.51597  0.93097  Biso   1.000  C
  C207     1.0000 0.98940  0.73002  0.92981  Biso   1.000  C
  O41      1.0000 0.19677  0.92839  0.34718  Biso   1.000  O
  O42      1.0000 0.22112  0.98505  0.35130  Biso   1.000  O
  O43      1.0000 0.37377  0.10707  0.61754  Biso   1.000  O
  O44      1.0000 0.41113  0.09102  0.61311  Biso   1.000  O
  O45      1.0000 0.10531  0.50276  0.92087  Biso   1.000  O
  O46      1.0000 0.08113  0.51407  0.95957  Biso   1.000  O
  In6      1.0000 0.19331  0.95492  0.30449  Biso   1.000  In
  O47      1.0000 0.17619  0.99406  0.29608  Biso   1.000  O
  O48      1.0000 0.14536  0.95093  0.32800  Biso   1.000  O
  C208     1.0000 0.14920  0.97655  0.31217  Biso   1.000  C
  C209     1.0000 0.11948  0.98375  0.31214  Biso   1.000  C
  C210     1.0000 0.08855  0.96079  0.32756  Biso   1.000  C
  C211     1.0000 0.12149  0.01122  0.29440  Biso   1.000  C
  H116     1.0000 0.08723  0.94237  0.33947  Biso   1.000  H
  C212     1.0000 0.05962  0.96530  0.32524  Biso   1.000  C
  C213     1.0000 0.09257  0.01572  0.29209  Biso   1.000  C
  H117     1.0000 0.14223  0.02657  0.28407  Biso   1.000  H
  H118     1.0000 0.03893  0.94997  0.33557  Biso   1.000  H
  C214     1.0000 0.06163  0.99276  0.30750  Biso   1.000  C
  H119     1.0000 0.09393  0.03407  0.28017  Biso   1.000  H
  C215     1.0000 0.02973  0.99727  0.30447  Biso   1.000  C
  C216     1.0000 0.99653  0.96747  0.30461  Biso   1.000  C
  H120     1.0000 0.99433  0.94547  0.30477  Biso   1.000  H
  In7      1.0000 0.95957  0.76095  0.95905  Biso   1.000  In
  O49      1.0000 0.92616  0.75073  0.91413  Biso   1.000  O
  O50      1.0000 0.90164  0.72480  0.95823  Biso   1.000  O
  O51      1.0000 0.00029  0.77852  0.99811  Biso   1.000  O
  O52      1.0000 0.94707  0.74025  0.00926  Biso   1.000  O
  O53      1.0000 0.98943  0.81722  0.94289  Biso   1.000  O
  O54      1.0000 0.94611  0.80118  0.97612  Biso   1.000  O
  O55      1.0000 0.96204  0.71121  0.94825  Biso   1.000  O
  O56      1.0000 0.00037  0.76160  0.92634  Biso   1.000  O
  C217     1.0000 0.89807  0.73009  0.92934  Biso   1.000  C
  C218     1.0000 0.97844  0.75968  0.01837  Biso   1.000  C
  C219     1.0000 0.97087  0.82572  0.95998  Biso   1.000  C
  C220     1.0000 0.86402  0.71333  0.91374  Biso   1.000  C
  C221     1.0000 0.98751  0.75932  0.05155  Biso   1.000  C
  C222     1.0000 0.97694  0.86154  0.95972  Biso   1.000  C
  C223     1.0000 0.83442  0.69471  0.93243  Biso   1.000  C
  C224     1.0000 0.86062  0.71503  0.88122  Biso   1.000  C
  C225     1.0000 0.02118  0.78143  0.06228  Biso   1.000  C
  C226     1.0000 0.96185  0.73732  0.07287  Biso   1.000  C
  C227     1.0000 0.00596  0.88768  0.94391  Biso   1.000  C
  C228     1.0000 0.95369  0.86970  0.97499  Biso   1.000  C
  H121     1.0000 0.83670  0.69360  0.95420  Biso   1.000  H
  C229     1.0000 0.80143  0.67779  0.91859  Biso   1.000  C
  C230     1.0000 0.82763  0.69811  0.86738  Biso   1.000  C
  H122     1.0000 0.88040  0.72750  0.86870  Biso   1.000  H
  H123     1.0000 0.03810  0.79680  0.04820  Biso   1.000  H
  C231     1.0000 0.03023  0.78122  0.09336  Biso   1.000  C
  C232     1.0000 0.97093  0.73740  0.10404  Biso   1.000  C
  H124     1.0000 0.93890  0.72280  0.06620  Biso   1.000  H
  H125     1.0000 0.02130  0.88250  0.93340  Biso   1.000  H
  C233     1.0000 0.01154  0.92077  0.94407  Biso   1.000  C
  C234     1.0000 0.95961  0.90303  0.97381  Biso   1.000  C
  H126     1.0000 0.93440  0.85250  0.98580  Biso   1.000  H
  H127     1.0000 0.78160  0.66530  0.93110  Biso   1.000  H
  C235     1.0000 0.79804  0.67950  0.88606  Biso   1.000  C
  H128     1.0000 0.82540  0.69930  0.84560  Biso   1.000  H
  H129     1.0000 0.05310  0.79580  0.10000  Biso   1.000  H
  C236     1.0000 0.00489  0.75899  0.11468  Biso   1.000  C
  H130     1.0000 0.95390  0.72260  0.11830  Biso   1.000  H
  H131     1.0000 0.03150  0.93820  0.93420  Biso   1.000  H
  C237     1.0000 0.98841  0.92990  0.95851  Biso   1.000  C
  H132     1.0000 0.94380  0.90810  0.98360  Biso   1.000  H
  C238     1.0000 0.76217  0.66233  0.87137  Biso   1.000  C
  C239     1.0000 0.01355  0.75735  0.14920  Biso   1.000  C
  C240     1.0000 0.99386  0.96570  0.95708  Biso   1.000  C
  C241     1.0000 0.75750  0.64920  0.84078  Biso   1.000  C
  C242     1.0000 0.73414  0.66091  0.88768  Biso   1.000  C
  C243     1.0000 0.03761  0.78757  0.16433  Biso   1.000  C
  C244     1.0000 0.99696  0.72586  0.16438  Biso   1.000  C
  C245     1.0000 0.96663  0.97230  0.95756  Biso   1.000  C
  H133     1.0000 0.77620  0.65010  0.82990  Biso   1.000  H
  C246     1.0000 0.72481  0.63469  0.82650  Biso   1.000  C
  C247     1.0000 0.70145  0.64640  0.87339  Biso   1.000  C
  H134     1.0000 0.73730  0.66970  0.90810  Biso   1.000  H
  H135     1.0000 0.04800  0.80890  0.15380  Biso   1.000  H
  C248     1.0000 0.04611  0.78561  0.19592  Biso   1.000  C
  C249     1.0000 0.00482  0.72332  0.19603  Biso   1.000  C
  H136     1.0000 0.98040  0.70610  0.15370  Biso   1.000  H
  H137     1.0000 0.94390  0.95350  0.95820  Biso   1.000  H
  C250     1.0000 0.69678  0.63328  0.84280  Biso   1.000  C
  C251     1.0000 0.72007  0.62257  0.79279  Biso   1.000  C
  C252     1.0000 0.67112  0.64350  0.89147  Biso   1.000  C
  C253     1.0000 0.02952  0.75332  0.21122  Biso   1.000  C
  C254     1.0000 0.07121  0.81749  0.21356  Biso   1.000  C
  C255     1.0000 0.98740  0.68925  0.21304  Biso   1.000  C
  H138     1.0000 0.67490  0.62350  0.83320  Biso   1.000  H
  C256     1.0000 0.68873  0.59737  0.78104  Biso   1.000  C
  C257     1.0000 0.74823  0.63803  0.77246  Biso   1.000  C
  C258     1.0000 0.67281  0.67137  0.90829  Biso   1.000  C
  C259     1.0000 0.64017  0.61148  0.89083  Biso   1.000  C
  H139     1.0000 0.03520  0.75190  0.23210  Biso   1.000  H
  C260     1.0000 0.07673  0.81437  0.24545  Biso   1.000  C
  C261     1.0000 0.09067  0.84948  0.19834  Biso   1.000  C
  C262     1.0000 0.00654  0.68163  0.23467  Biso   1.000  C
  C263     1.0000 0.95343  0.66553  0.20765  Biso   1.000  C
  H140     1.0000 0.66930  0.58750  0.79430  Biso   1.000  H
  C264     1.0000 0.68495  0.58607  0.75028  Biso   1.000  C
  C265     1.0000 0.74450  0.62900  0.74200  Biso   1.000  C
  H141     1.0000 0.77000  0.65490  0.78000  Biso   1.000  H
  H142     1.0000 0.69350  0.69280  0.90870  Biso   1.000  H
  C266     1.0000 0.64355  0.66722  0.92446  Biso   1.000  C
  C267     1.0000 0.61091  0.60734  0.90701  Biso   1.000  C
  H143     1.0000 0.63900  0.59280  0.87960  Biso   1.000  H
  H144     1.0000 0.06370  0.79300  0.25560  Biso   1.000  H
  C268     1.0000 0.10170  0.84320  0.26214  Biso   1.000  C
  C269     1.0000 0.11565  0.87835  0.21503  Biso   1.000  C
  H145     1.0000 0.08700  0.85160  0.17700  Biso   1.000  H
  H146     1.0000 0.03000  0.69760  0.23830  Biso   1.000  H
  C270     1.0000 0.99025  0.65001  0.25072  Biso   1.000  C
  C271     1.0000 0.93694  0.63408  0.22412  Biso   1.000  C
  H147     1.0000 0.94090  0.67030  0.19270  Biso   1.000  H
  H148     1.0000 0.66340  0.56850  0.74290  Biso   1.000  H
  C272     1.0000 0.71360  0.60121  0.73047  Biso   1.000  C
  H149     1.0000 0.76300  0.64150  0.72810  Biso   1.000  H
  H150     1.0000 0.64470  0.68590  0.93570  Biso   1.000  H
  C273     1.0000 0.61260  0.63521  0.92382  Biso   1.000  C
  H151     1.0000 0.59020  0.58590  0.90660  Biso   1.000  H
  H152     1.0000 0.10540  0.84110  0.28350  Biso   1.000  H
  C274     1.0000 0.12117  0.87523  0.24693  Biso   1.000  C
  H153     1.0000 0.12870  0.89980  0.20480  Biso   1.000  H
  H154     1.0000 0.00310  0.64470  0.26480  Biso   1.000  H
  C275     1.0000 0.95505  0.62628  0.24595  Biso   1.000  C
  H155     1.0000 0.91350  0.61830  0.22030  Biso   1.000  H
  C276     1.0000 0.71080  0.59078  0.69660  Biso   1.000  C
  C277     1.0000 0.58266  0.63056  0.94142  Biso   1.000  C
  C278     1.0000 0.15070  0.90840  0.26430  Biso   1.000  C
  C279     1.0000 0.93665  0.59272  0.26314  Biso   1.000  C
  O57      1.0000 0.73828  0.60172  0.68051  Biso   1.000  O
  O58      1.0000 0.68162  0.56941  0.68463  Biso   1.000  O
  O59      1.0000 0.55960  0.60004  0.95087  Biso   1.000  O
  O60      1.0000 0.57565  0.65345  0.94644  Biso   1.000  O
  O61      1.0000 0.16391  0.93589  0.25420  Biso   1.000  O
  O62      1.0000 0.15260  0.90040  0.29290  Biso   1.000  O
  In8      1.0000 0.71174  0.57172  0.63782  Biso   1.000  In
  O63      1.0000 0.67261  0.51547  0.62941  Biso   1.000  O
  O64      1.0000 0.71574  0.52777  0.66133  Biso   1.000  O
  C280     1.0000 0.69012  0.50599  0.64550  Biso   1.000  C
  C281     1.0000 0.68292  0.46907  0.64547  Biso   1.000  C
  C282     1.0000 0.70588  0.46110  0.66089  Biso   1.000  C
  C283     1.0000 0.65545  0.44361  0.62773  Biso   1.000  C
  H156     1.0000 0.72430  0.47820  0.67280  Biso   1.000  H
  C284     1.0000 0.70137  0.42766  0.65857  Biso   1.000  C
  C285     1.0000 0.65095  0.41019  0.62542  Biso   1.000  C
  H157     1.0000 0.64010  0.44900  0.61740  Biso   1.000  H
  H158     1.0000 0.71670  0.42230  0.66890  Biso   1.000  H
  C286     1.0000 0.67391  0.40221  0.64083  Biso   1.000  C
  H159     1.0000 0.63260  0.39320  0.61350  Biso   1.000  H
  C287     1.0000 0.66940  0.36580  0.63780  Biso   1.000  C
  C288     1.0000 0.69920  0.36240  0.63794  Biso   1.000  C
  H160     1.0000 0.72120  0.38220  0.63810  Biso   1.000  H
  In9      1.0000 0.62624  0.09428  0.29239  Biso   1.000  In
  O65      1.0000 0.59283  0.08406  0.24746  Biso   1.000  O
  O66      1.0000 0.56831  0.05813  0.29156  Biso   1.000  O
  O67      1.0000 0.66696  0.11185  0.33144  Biso   1.000  O
  O68      1.0000 0.61374  0.07358  0.34259  Biso   1.000  O
  O69      1.0000 0.65610  0.15055  0.27622  Biso   1.000  O
  O70      1.0000 0.61278  0.13451  0.30945  Biso   1.000  O
  O71      1.0000 0.62871  0.04454  0.28158  Biso   1.000  O
  O72      1.0000 0.66704  0.09493  0.25967  Biso   1.000  O
  C289     1.0000 0.56474  0.06342  0.26267  Biso   1.000  C
  C290     1.0000 0.64511  0.09301  0.35170  Biso   1.000  C
  C291     1.0000 0.63754  0.15905  0.29331  Biso   1.000  C
  C292     1.0000 0.53069  0.04666  0.24707  Biso   1.000  C
  C293     1.0000 0.65418  0.09265  0.38488  Biso   1.000  C
  C294     1.0000 0.64361  0.19487  0.29305  Biso   1.000  C
  C295     1.0000 0.50109  0.02804  0.26576  Biso   1.000  C
  C296     1.0000 0.52729  0.04836  0.21455  Biso   1.000  C
  C297     1.0000 0.68785  0.11476  0.39561  Biso   1.000  C
  C298     1.0000 0.62852  0.07065  0.40620  Biso   1.000  C
  C299     1.0000 0.67263  0.22101  0.27724  Biso   1.000  C
  C300     1.0000 0.62036  0.20303  0.30832  Biso   1.000  C
  H161     1.0000 0.50337  0.02693  0.28753  Biso   1.000  H
  C301     1.0000 0.46810  0.01112  0.25192  Biso   1.000  C
  C302     1.0000 0.49430  0.03144  0.20071  Biso   1.000  C
  H162     1.0000 0.54707  0.06083  0.20203  Biso   1.000  H
  H163     1.0000 0.70477  0.13013  0.38153  Biso   1.000  H
  C303     1.0000 0.69690  0.11455  0.42669  Biso   1.000  C
  C304     1.0000 0.63760  0.07073  0.43737  Biso   1.000  C
  H164     1.0000 0.60557  0.05613  0.39953  Biso   1.000  H
  H165     1.0000 0.68797  0.21583  0.26673  Biso   1.000  H
  C305     1.0000 0.67821  0.25410  0.27740  Biso   1.000  C
  C306     1.0000 0.62628  0.23636  0.30714  Biso   1.000  C
  H166     1.0000 0.60107  0.18583  0.31913  Biso   1.000  H
  H167     1.0000 0.44827  0.99863  0.26443  Biso   1.000  H
  C307     1.0000 0.46471  0.01283  0.21939  Biso   1.000  C
  H168     1.0000 0.49207  0.03263  0.17893  Biso   1.000  H
  H169     1.0000 0.71977  0.12913  0.43333  Biso   1.000  H
  C308     1.0000 0.67156  0.09232  0.44801  Biso   1.000  C
  H170     1.0000 0.62057  0.05593  0.45163  Biso   1.000  H
  H171     1.0000 0.69817  0.27153  0.26753  Biso   1.000  H
  C309     1.0000 0.65508  0.26323  0.29184  Biso   1.000  C
  H172     1.0000 0.61047  0.24143  0.31693  Biso   1.000  H
  C310     1.0000 0.42884  0.99566  0.20470  Biso   1.000  C
  C311     1.0000 0.68022  0.09068  0.48253  Biso   1.000  C
  C312     1.0000 0.66053  0.29903  0.29041  Biso   1.000  C
  C313     1.0000 0.42417  0.98253  0.17411  Biso   1.000  C
  C314     1.0000 0.40081  0.99424  0.22101  Biso   1.000  C
  C315     1.0000 0.70428  0.12090  0.49766  Biso   1.000  C
  C316     1.0000 0.66363  0.05919  0.49771  Biso   1.000  C
  C317     1.0000 0.63330  0.30563  0.29089  Biso   1.000  C
  H173     1.0000 0.44287  0.98343  0.16323  Biso   1.000  H
  C318     1.0000 0.39148  0.96802  0.15983  Biso   1.000  C
  C319     1.0000 0.36812  0.97973  0.20672  Biso   1.000  C
  H174     1.0000 0.40397  0.00303  0.24143  Biso   1.000  H
  H175     1.0000 0.71467  0.14223  0.48713  Biso   1.000  H
  C320     1.0000 0.71278  0.11894  0.52925  Biso   1.000  C
  C321     1.0000 0.67149  0.05665  0.52936  Biso   1.000  C
  H176     1.0000 0.64707  0.03943  0.48703  Biso   1.000  H
  H177     1.0000 0.61057  0.28683  0.29153  Biso   1.000  H
  C322     1.0000 0.36345  0.96661  0.17613  Biso   1.000  C
  C323     1.0000 0.38674  0.95590  0.12612  Biso   1.000  C
  C324     1.0000 0.33779  0.97683  0.22480  Biso   1.000  C
  C325     1.0000 0.69619  0.08665  0.54455  Biso   1.000  C
  C326     1.0000 0.73788  0.15082  0.54689  Biso   1.000  C
  C327     1.0000 0.65407  0.02258  0.54637  Biso   1.000  C
  H178     1.0000 0.34157  0.95683  0.16653  Biso   1.000  H
  C328     1.0000 0.35540  0.93070  0.11437  Biso   1.000  C
  C329     1.0000 0.41490  0.97136  0.10579  Biso   1.000  C
  C330     1.0000 0.33948  0.00470  0.24162  Biso   1.000  C
  C331     1.0000 0.30684  0.94481  0.22416  Biso   1.000  C
  H179     1.0000 0.70187  0.08523  0.56543  Biso   1.000  H
  C332     1.0000 0.74340  0.14770  0.57878  Biso   1.000  C
  C333     1.0000 0.75734  0.18281  0.53167  Biso   1.000  C
  C334     1.0000 0.67321  0.01496  0.56800  Biso   1.000  C
  C335     1.0000 0.62010  0.99886  0.54098  Biso   1.000  C
  H180     1.0000 0.33597  0.92083  0.12763  Biso   1.000  H
  C336     1.0000 0.35162  0.91940  0.08361  Biso   1.000  C
  C337     1.0000 0.41117  0.96233  0.07533  Biso   1.000  C
  H181     1.0000 0.43667  0.98823  0.11333  Biso   1.000  H
  H182     1.0000 0.36017  0.02613  0.24203  Biso   1.000  H
  C338     1.0000 0.31022  0.00055  0.25779  Biso   1.000  C
  C339     1.0000 0.27758  0.94067  0.24034  Biso   1.000  C
  H183     1.0000 0.30567  0.92613  0.21293  Biso   1.000  H
  H184     1.0000 0.73037  0.12633  0.58893  Biso   1.000  H
  C340     1.0000 0.76837  0.17653  0.59547  Biso   1.000  C
  C341     1.0000 0.78232  0.21168  0.54836  Biso   1.000  C
  H185     1.0000 0.75367  0.18493  0.51033  Biso   1.000  H
  H186     1.0000 0.69667  0.03093  0.57163  Biso   1.000  H
  C342     1.0000 0.65692  0.98334  0.58405  Biso   1.000  C
  C343     1.0000 0.60361  0.96741  0.55745  Biso   1.000  C
  H187     1.0000 0.60757  0.00363  0.52603  Biso   1.000  H
  H188     1.0000 0.33007  0.90183  0.07623  Biso   1.000  H
  C344     1.0000 0.38027  0.93454  0.06380  Biso   1.000  C
  H189     1.0000 0.42967  0.97483  0.06143  Biso   1.000  H
  H190     1.0000 0.31137  0.01923  0.26903  Biso   1.000  H
  C345     1.0000 0.27927  0.96854  0.25715  Biso   1.000  C
  H191     1.0000 0.25687  0.91923  0.23993  Biso   1.000  H
  H192     1.0000 0.77207  0.17443  0.61683  Biso   1.000  H
  C346     1.0000 0.78784  0.20856  0.58026  Biso   1.000  C
  H193     1.0000 0.79537  0.23313  0.53813  Biso   1.000  H
  H194     1.0000 0.66977  0.97803  0.59813  Biso   1.000  H
  C347     1.0000 0.62172  0.95961  0.57928  Biso   1.000  C
  H195     1.0000 0.58017  0.95163  0.55363  Biso   1.000  H
  C348     1.0000 0.37747  0.92411  0.02993  Biso   1.000  C
  C349     1.0000 0.24933  0.96389  0.27475  Biso   1.000  C
  C350     1.0000 0.81737  0.24173  0.59763  Biso   1.000  C
  C351     1.0000 0.60332  0.92605  0.59647  Biso   1.000  C
  O73      1.0000 0.40495  0.93505  0.01384  Biso   1.000  O
  O74      1.0000 0.34829  0.90274  0.01796  Biso   1.000  O
  O75      1.0000 0.22627  0.93337  0.28420  Biso   1.000  O
  O76      1.0000 0.24232  0.98678  0.27977  Biso   1.000  O
  O77      1.0000 0.83058  0.26922  0.58753  Biso   1.000  O
  O78      1.0000 0.81927  0.23373  0.62623  Biso   1.000  O
  In10     1.0000 0.37841  0.90505  0.97116  Biso   1.000  In
  O79      1.0000 0.33928  0.84880  0.96274  Biso   1.000  O
  O80      1.0000 0.38241  0.86110  0.99466  Biso   1.000  O
  C352     1.0000 0.35679  0.83932  0.97883  Biso   1.000  C
  C353     1.0000 0.34959  0.80240  0.97880  Biso   1.000  C
  C354     1.0000 0.37255  0.79443  0.99422  Biso   1.000  C
  C355     1.0000 0.32212  0.77694  0.96106  Biso   1.000  C
  H196     1.0000 0.39097  0.81153  0.00613  Biso   1.000  H
  C356     1.0000 0.36804  0.76099  0.99190  Biso   1.000  C
  C357     1.0000 0.31762  0.74352  0.95875  Biso   1.000  C
  H197     1.0000 0.30677  0.78233  0.95073  Biso   1.000  H
  H198     1.0000 0.38337  0.75563  0.00223  Biso   1.000  H
  C358     1.0000 0.34058  0.73554  0.97416  Biso   1.000  C
  H199     1.0000 0.29927  0.72653  0.94683  Biso   1.000  H
  C359     1.0000 0.33607  0.69913  0.97113  Biso   1.000  C
  C360     1.0000 0.36587  0.69573  0.97127  Biso   1.000  C
  H200     1.0000 0.38787  0.71553  0.97143  Biso   1.000  H
  In11     1.0000 0.29290  0.42762  0.62572  Biso   1.000  In
  O81      1.0000 0.25949  0.41740  0.58080  Biso   1.000  O
  O82      1.0000 0.23497  0.39147  0.62490  Biso   1.000  O
  O83      1.0000 0.33362  0.44519  0.66478  Biso   1.000  O
  O84      1.0000 0.28040  0.40692  0.67593  Biso   1.000  O
  O85      1.0000 0.32276  0.48389  0.60956  Biso   1.000  O
  O86      1.0000 0.27944  0.46785  0.64279  Biso   1.000  O
  O87      1.0000 0.29537  0.37788  0.61492  Biso   1.000  O
  O88      1.0000 0.33370  0.42827  0.59301  Biso   1.000  O
  C361     1.0000 0.23140  0.39676  0.59601  Biso   1.000  C
  C362     1.0000 0.31177  0.42635  0.68504  Biso   1.000  C
  C363     1.0000 0.30420  0.49239  0.62665  Biso   1.000  C
  C364     1.0000 0.19735  0.38000  0.58041  Biso   1.000  C
  C365     1.0000 0.32084  0.42599  0.71822  Biso   1.000  C
  C366     1.0000 0.31027  0.52821  0.62639  Biso   1.000  C
  C367     1.0000 0.16775  0.36138  0.59910  Biso   1.000  C
  C368     1.0000 0.19395  0.38170  0.54789  Biso   1.000  C
  C369     1.0000 0.35451  0.44810  0.72895  Biso   1.000  C
  C370     1.0000 0.29518  0.40399  0.73954  Biso   1.000  C
  C371     1.0000 0.33929  0.55435  0.61058  Biso   1.000  C
  C372     1.0000 0.28702  0.53637  0.64166  Biso   1.000  C
  H201     1.0000 0.17003  0.36027  0.62087  Biso   1.000  H
  C373     1.0000 0.13476  0.34446  0.58526  Biso   1.000  C
  C374     1.0000 0.16096  0.36478  0.53405  Biso   1.000  C
  H202     1.0000 0.21373  0.39417  0.53537  Biso   1.000  H
  H203     1.0000 0.37143  0.46347  0.71487  Biso   1.000  H
  C375     1.0000 0.36356  0.44789  0.76003  Biso   1.000  C
  C376     1.0000 0.30426  0.40407  0.77071  Biso   1.000  C
  H204     1.0000 0.27223  0.38947  0.73287  Biso   1.000  H
  H205     1.0000 0.35463  0.54917  0.60007  Biso   1.000  H
  C377     1.0000 0.34487  0.58744  0.61074  Biso   1.000  C
  C378     1.0000 0.29294  0.56970  0.64048  Biso   1.000  C
  H206     1.0000 0.26773  0.51917  0.65247  Biso   1.000  H
  H207     1.0000 0.11493  0.33197  0.59777  Biso   1.000  H
  C379     1.0000 0.13137  0.34617  0.55273  Biso   1.000  C
  H208     1.0000 0.15873  0.36597  0.51227  Biso   1.000  H
  H209     1.0000 0.38643  0.46247  0.76667  Biso   1.000  H
  C380     1.0000 0.33822  0.42566  0.78135  Biso   1.000  C
  H210     1.0000 0.28723  0.38927  0.78497  Biso   1.000  H
  H211     1.0000 0.36483  0.60487  0.60087  Biso   1.000  H
  C381     1.0000 0.32174  0.59657  0.62518  Biso   1.000  C
  H212     1.0000 0.27713  0.57477  0.65027  Biso   1.000  H
  C382     1.0000 0.09550  0.32900  0.53804  Biso   1.000  C
  C383     1.0000 0.34688  0.42402  0.81587  Biso   1.000  C
  C384     1.0000 0.32719  0.63237  0.62375  Biso   1.000  C
  C385     1.0000 0.09083  0.31587  0.50745  Biso   1.000  C
  C386     1.0000 0.06747  0.32758  0.55435  Biso   1.000  C
  C387     1.0000 0.37094  0.45424  0.83100  Biso   1.000  C
  C388     1.0000 0.33029  0.39253  0.83105  Biso   1.000  C
  C389     1.0000 0.29996  0.63897  0.62423  Biso   1.000  C
  H213     1.0000 0.10953  0.31677  0.49657  Biso   1.000  H
  C390     1.0000 0.05814  0.30136  0.49317  Biso   1.000  C
  C391     1.0000 0.03478  0.31307  0.54006  Biso   1.000  C
  H214     1.0000 0.07063  0.33637  0.57477  Biso   1.000  H
  H215     1.0000 0.38133  0.47557  0.82047  Biso   1.000  H
  C392     1.0000 0.37944  0.45228  0.86259  Biso   1.000  C
  C393     1.0000 0.33815  0.38999  0.86270  Biso   1.000  C
  H216     1.0000 0.31373  0.37277  0.82037  Biso   1.000  H
  H217     1.0000 0.27723  0.62017  0.62487  Biso   1.000  H
  C394     1.0000 0.03011  0.29995  0.50947  Biso   1.000  C
  C395     1.0000 0.05340  0.28924  0.45946  Biso   1.000  C
  C396     1.0000 0.00445  0.31017  0.55814  Biso   1.000  C
  C397     1.0000 0.36285  0.41999  0.87789  Biso   1.000  C
  C398     1.0000 0.40454  0.48416  0.88023  Biso   1.000  C
  C399     1.0000 0.32073  0.35592  0.87971  Biso   1.000  C
  H218     1.0000 0.00823  0.29017  0.49987  Biso   1.000  H
  C400     1.0000 0.02206  0.26404  0.44771  Biso   1.000  C
  C401     1.0000 0.08156  0.30470  0.43913  Biso   1.000  C
  C402     1.0000 0.00614  0.33804  0.57496  Biso   1.000  C
  C403     1.0000 0.97350  0.27815  0.55750  Biso   1.000  C
  H219     1.0000 0.36853  0.41857  0.89877  Biso   1.000  H
  C404     1.0000 0.41006  0.48104  0.91212  Biso   1.000  C
  C405     1.0000 0.42400  0.51615  0.86501  Biso   1.000  C
  C406     1.0000 0.33987  0.34830  0.90134  Biso   1.000  C
  C407     1.0000 0.28676  0.33220  0.87432  Biso   1.000  C
  H220     1.0000 0.00263  0.25417  0.46097  Biso   1.000  H
  C408     1.0000 0.01828  0.25274  0.41695  Biso   1.000  C
  C409     1.0000 0.07783  0.29567  0.40867  Biso   1.000  C
  H221     1.0000 0.10333  0.32157  0.44667  Biso   1.000  H
  H222     1.0000 0.02683  0.35947  0.57537  Biso   1.000  H
  C410     1.0000 0.97688  0.33389  0.59113  Biso   1.000  C
  C411     1.0000 0.94424  0.27401  0.57368  Biso   1.000  C
  H223     1.0000 0.97233  0.25947  0.54627  Biso   1.000  H
  H224     1.0000 0.39703  0.45967  0.92227  Biso   1.000  H
  C412     1.0000 0.43503  0.50987  0.92881  Biso   1.000  C
  C413     1.0000 0.44898  0.54502  0.88170  Biso   1.000  C
  H225     1.0000 0.42033  0.51827  0.84367  Biso   1.000  H
  H226     1.0000 0.36333  0.36427  0.90497  Biso   1.000  H
  C414     1.0000 0.32358  0.31668  0.91739  Biso   1.000  C
  C415     1.0000 0.27027  0.30075  0.89079  Biso   1.000  C
  H227     1.0000 0.27423  0.33697  0.85937  Biso   1.000  H
  H228     1.0000 0.99673  0.23517  0.40957  Biso   1.000  H
  C416     1.0000 0.04693  0.26788  0.39714  Biso   1.000  C
  H229     1.0000 0.09633  0.30817  0.39477  Biso   1.000  H
  H230     1.0000 0.97803  0.35257  0.60237  Biso   1.000  H
  C417     1.0000 0.94593  0.30188  0.59049  Biso   1.000  C
  H231     1.0000 0.92353  0.25257  0.57327  Biso   1.000  H
  H232     1.0000 0.43873  0.50777  0.95017  Biso   1.000  H
  C418     1.0000 0.45450  0.54190  0.91360  Biso   1.000  C
  H233     1.0000 0.46203  0.56647  0.87147  Biso   1.000  H
  H234     1.0000 0.33643  0.31137  0.93147  Biso   1.000  H
  C419     1.0000 0.28838  0.29295  0.91262  Biso   1.000  C
  H235     1.0000 0.24683  0.28497  0.88697  Biso   1.000  H
  C420     1.0000 0.04413  0.25745  0.36327  Biso   1.000  C
  C421     1.0000 0.91599  0.29723  0.60809  Biso   1.000  C
  C422     1.0000 0.48403  0.57507  0.93097  Biso   1.000  C
  C423     1.0000 0.26998  0.25939  0.92981  Biso   1.000  C
  O89      1.0000 0.07161  0.26839  0.34718  Biso   1.000  O
  O90      1.0000 0.01495  0.23608  0.35130  Biso   1.000  O
  O91      1.0000 0.89293  0.26671  0.61754  Biso   1.000  O
  O92      1.0000 0.90898  0.32012  0.61311  Biso   1.000  O
  O93      1.0000 0.49724  0.60256  0.92087  Biso   1.000  O
  O94      1.0000 0.48593  0.56707  0.95957  Biso   1.000  O
  In12     1.0000 0.04508  0.23839  0.30449  Biso   1.000  In
  O95      1.0000 0.00594  0.18214  0.29608  Biso   1.000  O
  O96      1.0000 0.04907  0.19444  0.32800  Biso   1.000  O
  C424     1.0000 0.02345  0.17266  0.31217  Biso   1.000  C
  C425     1.0000 0.01625  0.13574  0.31214  Biso   1.000  C
  C426     1.0000 0.03921  0.12777  0.32756  Biso   1.000  C
  C427     1.0000 0.98878  0.11028  0.29440  Biso   1.000  C
  H236     1.0000 0.05763  0.14487  0.33947  Biso   1.000  H
  C428     1.0000 0.03470  0.09433  0.32524  Biso   1.000  C
  C429     1.0000 0.98428  0.07686  0.29209  Biso   1.000  C
  H237     1.0000 0.97343  0.11567  0.28407  Biso   1.000  H
  H238     1.0000 0.05003  0.08897  0.33557  Biso   1.000  H
  C430     1.0000 0.00724  0.06888  0.30750  Biso   1.000  C
  H239     1.0000 0.96593  0.05987  0.28017  Biso   1.000  H
  C431     1.0000 0.00273  0.03247  0.30447  Biso   1.000  C
  C432     1.0000 0.03253  0.02907  0.30461  Biso   1.000  C
  H240     1.0000 0.05453  0.04887  0.30477  Biso   1.000  H
  In13     1.0000 0.23905  0.19862  0.95905  Biso   1.000  In
  O97      1.0000 0.24927  0.17543  0.91413  Biso   1.000  O
  O98      1.0000 0.27520  0.17684  0.95823  Biso   1.000  O
  O99      1.0000 0.22148  0.22177  0.99811  Biso   1.000  O
  O100     1.0000 0.25975  0.20682  0.00926  Biso   1.000  O
  O101     1.0000 0.18278  0.17221  0.94289  Biso   1.000  O
  O102     1.0000 0.19882  0.14493  0.97612  Biso   1.000  O
  O103     1.0000 0.28879  0.25083  0.94825  Biso   1.000  O
  O104     1.0000 0.23840  0.23877  0.92634  Biso   1.000  O
  C433     1.0000 0.26991  0.16798  0.92934  Biso   1.000  C
  C434     1.0000 0.24032  0.21876  0.01837  Biso   1.000  C
  C435     1.0000 0.17428  0.14515  0.95998  Biso   1.000  C
  C436     1.0000 0.28667  0.15069  0.91374  Biso   1.000  C
  C437     1.0000 0.24068  0.22819  0.05155  Biso   1.000  C
  C438     1.0000 0.13846  0.11540  0.95972  Biso   1.000  C
  C439     1.0000 0.30529  0.13971  0.93243  Biso   1.000  C
  C440     1.0000 0.28497  0.14559  0.88122  Biso   1.000  C
  C441     1.0000 0.21857  0.23975  0.06228  Biso   1.000  C
  C442     1.0000 0.26268  0.22453  0.07287  Biso   1.000  C
  C443     1.0000 0.11232  0.11828  0.94391  Biso   1.000  C
  C444     1.0000 0.13030  0.08399  0.97499  Biso   1.000  C
  H241     1.0000 0.30640  0.14310  0.95420  Biso   1.000  H
  C445     1.0000 0.32221  0.12364  0.91859  Biso   1.000  C
  C446     1.0000 0.30189  0.12952  0.86738  Biso   1.000  C
  H242     1.0000 0.27250  0.15290  0.86870  Biso   1.000  H
  H243     1.0000 0.20320  0.24130  0.04820  Biso   1.000  H
  C447     1.0000 0.21878  0.24901  0.09336  Biso   1.000  C
  C448     1.0000 0.26260  0.23353  0.10404  Biso   1.000  C
  H244     1.0000 0.27720  0.21610  0.06620  Biso   1.000  H
  H245     1.0000 0.11750  0.13880  0.93340  Biso   1.000  H
  C449     1.0000 0.07923  0.09077  0.94407  Biso   1.000  C
  C450     1.0000 0.09697  0.05658  0.97381  Biso   1.000  C
  H246     1.0000 0.14750  0.08190  0.98580  Biso   1.000  H
  H247     1.0000 0.33470  0.11630  0.93110  Biso   1.000  H
  C451     1.0000 0.32050  0.11854  0.88606  Biso   1.000  C
  H248     1.0000 0.30070  0.12610  0.84560  Biso   1.000  H
  H249     1.0000 0.20420  0.25730  0.10000  Biso   1.000  H
  C452     1.0000 0.24101  0.24590  0.11468  Biso   1.000  C
  H250     1.0000 0.27740  0.23130  0.11830  Biso   1.000  H
  H251     1.0000 0.06180  0.09330  0.93420  Biso   1.000  H
  C453     1.0000 0.07010  0.05851  0.95851  Biso   1.000  C
  H252     1.0000 0.09190  0.03570  0.98360  Biso   1.000  H
  C454     1.0000 0.33767  0.09984  0.87137  Biso   1.000  C
  C455     1.0000 0.24265  0.25620  0.14920  Biso   1.000  C
  C456     1.0000 0.03430  0.02816  0.95708  Biso   1.000  C
  C457     1.0000 0.35080  0.10830  0.84078  Biso   1.000  C
  C458     1.0000 0.33909  0.07323  0.88768  Biso   1.000  C
  C459     1.0000 0.21243  0.25004  0.16433  Biso   1.000  C
  C460     1.0000 0.27414  0.27110  0.16438  Biso   1.000  C
  C461     1.0000 0.02770  0.99433  0.95756  Biso   1.000  C
  H253     1.0000 0.34990  0.12610  0.82990  Biso   1.000  H
  C462     1.0000 0.36531  0.09012  0.82650  Biso   1.000  C
  C463     1.0000 0.35360  0.05505  0.87339  Biso   1.000  C
  H254     1.0000 0.33030  0.06760  0.90810  Biso   1.000  H
  H255     1.0000 0.19110  0.23910  0.15380  Biso   1.000  H
  C464     1.0000 0.21439  0.26050  0.19592  Biso   1.000  C
  C465     1.0000 0.27668  0.28150  0.19603  Biso   1.000  C
  H256     1.0000 0.29390  0.27430  0.15370  Biso   1.000  H
  H257     1.0000 0.04650  0.99040  0.95820  Biso   1.000  H
  C466     1.0000 0.36672  0.06350  0.84280  Biso   1.000  C
  C467     1.0000 0.37743  0.09750  0.79279  Biso   1.000  C
  C468     1.0000 0.35650  0.02762  0.89147  Biso   1.000  C
  C469     1.0000 0.24668  0.27620  0.21122  Biso   1.000  C
  C470     1.0000 0.18251  0.25372  0.21356  Biso   1.000  C
  C471     1.0000 0.31075  0.29815  0.21304  Biso   1.000  C
  H258     1.0000 0.37650  0.05140  0.83320  Biso   1.000  H
  C472     1.0000 0.40263  0.09136  0.78104  Biso   1.000  C
  C473     1.0000 0.36197  0.11020  0.77246  Biso   1.000  C
  C474     1.0000 0.32863  0.00144  0.90829  Biso   1.000  C
  C475     1.0000 0.38852  0.02869  0.89083  Biso   1.000  C
  H259     1.0000 0.24810  0.28330  0.23210  Biso   1.000  H
  C476     1.0000 0.18563  0.26236  0.24545  Biso   1.000  C
  C477     1.0000 0.15052  0.24119  0.19834  Biso   1.000  C
  C478     1.0000 0.31837  0.32491  0.23467  Biso   1.000  C
  C479     1.0000 0.33447  0.28790  0.20765  Biso   1.000  C
  H260     1.0000 0.41250  0.08180  0.79430  Biso   1.000  H
  C480     1.0000 0.41393  0.09888  0.75028  Biso   1.000  C
  C481     1.0000 0.37100  0.11550  0.74200  Biso   1.000  C
  H261     1.0000 0.34510  0.11510  0.78000  Biso   1.000  H
  H262     1.0000 0.30720  0.00070  0.90870  Biso   1.000  H
  C482     1.0000 0.33278  0.97633  0.92446  Biso   1.000  C
  C483     1.0000 0.39266  0.00357  0.90701  Biso   1.000  C
  H263     1.0000 0.40720  0.04620  0.87960  Biso   1.000  H
  H264     1.0000 0.20700  0.27070  0.25560  Biso   1.000  H
  C484     1.0000 0.15680  0.25850  0.26214  Biso   1.000  C
  C485     1.0000 0.12165  0.23730  0.21503  Biso   1.000  C
  H265     1.0000 0.14840  0.23540  0.17700  Biso   1.000  H
  H266     1.0000 0.30240  0.33240  0.23830  Biso   1.000  H
  C486     1.0000 0.34999  0.34024  0.25072  Biso   1.000  C
  C487     1.0000 0.36592  0.30286  0.22412  Biso   1.000  C
  H267     1.0000 0.32970  0.27060  0.19270  Biso   1.000  H
  H268     1.0000 0.43150  0.09490  0.74290  Biso   1.000  H
  C488     1.0000 0.39879  0.11239  0.73047  Biso   1.000  C
  H269     1.0000 0.35850  0.12150  0.72810  Biso   1.000  H
  H270     1.0000 0.31410  0.95880  0.93570  Biso   1.000  H
  C489     1.0000 0.36479  0.97739  0.92382  Biso   1.000  C
  H271     1.0000 0.41410  0.00430  0.90660  Biso   1.000  H
  H272     1.0000 0.15890  0.26430  0.28350  Biso   1.000  H
  C490     1.0000 0.12477  0.24594  0.24693  Biso   1.000  C
  H273     1.0000 0.10020  0.22890  0.20480  Biso   1.000  H
  H274     1.0000 0.35530  0.35840  0.26480  Biso   1.000  H
  C491     1.0000 0.37372  0.32877  0.24595  Biso   1.000  C
  H275     1.0000 0.38170  0.29520  0.22030  Biso   1.000  H
  C492     1.0000 0.40922  0.12002  0.69660  Biso   1.000  C
  C493     1.0000 0.36944  0.95210  0.94142  Biso   1.000  C
  C494     1.0000 0.09160  0.24230  0.26430  Biso   1.000  C
  C495     1.0000 0.40728  0.34393  0.26314  Biso   1.000  C
  O105     1.0000 0.39828  0.13656  0.68051  Biso   1.000  O
  O106     1.0000 0.43059  0.11221  0.68463  Biso   1.000  O
  O107     1.0000 0.39996  0.95956  0.95087  Biso   1.000  O
  O108     1.0000 0.34655  0.92220  0.94644  Biso   1.000  O
  O109     1.0000 0.06411  0.22802  0.25420  Biso   1.000  O
  O110     1.0000 0.09960  0.25220  0.29290  Biso   1.000  O
  In14     1.0000 0.42828  0.14002  0.63782  Biso   1.000  In
  O111     1.0000 0.48453  0.15714  0.62941  Biso   1.000  O
  O112     1.0000 0.47223  0.18797  0.66133  Biso   1.000  O
  C496     1.0000 0.49401  0.18413  0.64550  Biso   1.000  C
  C497     1.0000 0.53093  0.21385  0.64547  Biso   1.000  C
  C498     1.0000 0.53890  0.24478  0.66089  Biso   1.000  C
  C499     1.0000 0.55639  0.21184  0.62773  Biso   1.000  C
  H276     1.0000 0.52180  0.24610  0.67280  Biso   1.000  H
  C500     1.0000 0.57234  0.27371  0.65857  Biso   1.000  C
  C501     1.0000 0.58981  0.24076  0.62542  Biso   1.000  C
  H277     1.0000 0.55100  0.19110  0.61740  Biso   1.000  H
  H278     1.0000 0.57770  0.29440  0.66890  Biso   1.000  H
  C502     1.0000 0.59779  0.27170  0.64083  Biso   1.000  C
  H279     1.0000 0.60680  0.23940  0.61350  Biso   1.000  H
  C503     1.0000 0.63420  0.30360  0.63780  Biso   1.000  C
  C504     1.0000 0.63760  0.33680  0.63794  Biso   1.000  C
  H280     1.0000 0.61780  0.33900  0.63810  Biso   1.000  H
  In15     1.0000 0.90572  0.53195  0.29239  Biso   1.000  In
  O113     1.0000 0.91594  0.50876  0.24746  Biso   1.000  O
  O114     1.0000 0.94187  0.51017  0.29156  Biso   1.000  O
  O115     1.0000 0.88815  0.55510  0.33144  Biso   1.000  O
  O116     1.0000 0.92642  0.54015  0.34259  Biso   1.000  O
  O117     1.0000 0.84945  0.50554  0.27622  Biso   1.000  O
  O118     1.0000 0.86549  0.47826  0.30945  Biso   1.000  O
  O119     1.0000 0.95546  0.58416  0.28158  Biso   1.000  O
  O120     1.0000 0.90507  0.57210  0.25967  Biso   1.000  O
  C505     1.0000 0.93658  0.50131  0.26267  Biso   1.000  C
  C506     1.0000 0.90699  0.55209  0.35170  Biso   1.000  C
  C507     1.0000 0.84095  0.47848  0.29331  Biso   1.000  C
  C508     1.0000 0.95334  0.48402  0.24707  Biso   1.000  C
  C509     1.0000 0.90735  0.56152  0.38488  Biso   1.000  C
  C510     1.0000 0.80513  0.44873  0.29305  Biso   1.000  C
  C511     1.0000 0.97196  0.47304  0.26576  Biso   1.000  C
  C512     1.0000 0.95164  0.47892  0.21455  Biso   1.000  C
  C513     1.0000 0.88524  0.57308  0.39561  Biso   1.000  C
  C514     1.0000 0.92935  0.55786  0.40620  Biso   1.000  C
  C515     1.0000 0.77899  0.45161  0.27724  Biso   1.000  C
  C516     1.0000 0.79697  0.41732  0.30832  Biso   1.000  C
  H281     1.0000 0.97307  0.47643  0.28753  Biso   1.000  H
  C517     1.0000 0.98888  0.45697  0.25192  Biso   1.000  C
  C518     1.0000 0.96856  0.46285  0.20071  Biso   1.000  C
  H282     1.0000 0.93917  0.48623  0.20203  Biso   1.000  H
  H283     1.0000 0.86987  0.57463  0.38153  Biso   1.000  H
  C519     1.0000 0.88545  0.58234  0.42669  Biso   1.000  C
  C520     1.0000 0.92927  0.56686  0.43737  Biso   1.000  C
  H284     1.0000 0.94387  0.54943  0.39953  Biso   1.000  H
  H285     1.0000 0.78417  0.47213  0.26673  Biso   1.000  H
  C521     1.0000 0.74590  0.42410  0.27740  Biso   1.000  C
  C522     1.0000 0.76364  0.38991  0.30714  Biso   1.000  C
  H286     1.0000 0.81417  0.41523  0.31913  Biso   1.000  H
  H287     1.0000 0.00137  0.44963  0.26443  Biso   1.000  H
  C523     1.0000 0.98717  0.45187  0.21939  Biso   1.000  C
  H288     1.0000 0.96737  0.45943  0.17893  Biso   1.000  H
  H289     1.0000 0.87087  0.59063  0.43333  Biso   1.000  H
  C524     1.0000 0.90768  0.57923  0.44801  Biso   1.000  C
  H290     1.0000 0.94407  0.56463  0.45163  Biso   1.000  H
  H291     1.0000 0.72847  0.42663  0.26753  Biso   1.000  H
  C525     1.0000 0.73677  0.39184  0.29184  Biso   1.000  C
  H292     1.0000 0.75857  0.36903  0.31693  Biso   1.000  H
  C526     1.0000 0.00434  0.43317  0.20470  Biso   1.000  C
  C527     1.0000 0.90932  0.58953  0.48253  Biso   1.000  C
  C528     1.0000 0.70097  0.36149  0.29041  Biso   1.000  C
  C529     1.0000 0.01747  0.44163  0.17411  Biso   1.000  C
  C530     1.0000 0.00576  0.40656  0.22101  Biso   1.000  C
  C531     1.0000 0.87910  0.58337  0.49766  Biso   1.000  C
  C532     1.0000 0.94081  0.60443  0.49771  Biso   1.000  C
  C533     1.0000 0.69437  0.32766  0.29089  Biso   1.000  C
  H293     1.0000 0.01657  0.45943  0.16323  Biso   1.000  H
  C534     1.0000 0.03198  0.42345  0.15983  Biso   1.000  C
  C535     1.0000 0.02027  0.38838  0.20672  Biso   1.000  C
  H294     1.0000 0.99697  0.40093  0.24143  Biso   1.000  H
  H295     1.0000 0.85777  0.57243  0.48713  Biso   1.000  H
  C536     1.0000 0.88106  0.59383  0.52925  Biso   1.000  C
  C537     1.0000 0.94335  0.61483  0.52936  Biso   1.000  C
  H296     1.0000 0.96057  0.60763  0.48703  Biso   1.000  H
  H297     1.0000 0.71317  0.32373  0.29153  Biso   1.000  H
  C538     1.0000 0.03339  0.39683  0.17613  Biso   1.000  C
  C539     1.0000 0.04410  0.43083  0.12612  Biso   1.000  C
  C540     1.0000 0.02317  0.36095  0.22480  Biso   1.000  C
  C541     1.0000 0.91335  0.60953  0.54455  Biso   1.000  C
  C542     1.0000 0.84918  0.58705  0.54689  Biso   1.000  C
  C543     1.0000 0.97742  0.63148  0.54637  Biso   1.000  C
  H298     1.0000 0.04317  0.38473  0.16653  Biso   1.000  H
  C544     1.0000 0.06930  0.42469  0.11437  Biso   1.000  C
  C545     1.0000 0.02864  0.44353  0.10579  Biso   1.000  C
  C546     1.0000 0.99530  0.33477  0.24162  Biso   1.000  C
  C547     1.0000 0.05519  0.36202  0.22416  Biso   1.000  C
  H299     1.0000 0.91477  0.61663  0.56543  Biso   1.000  H
  C548     1.0000 0.85230  0.59569  0.57878  Biso   1.000  C
  C549     1.0000 0.81719  0.57452  0.53167  Biso   1.000  C
  C550     1.0000 0.98504  0.65824  0.56800  Biso   1.000  C
  C551     1.0000 0.00114  0.62123  0.54098  Biso   1.000  C
  H300     1.0000 0.07917  0.41513  0.12763  Biso   1.000  H
  C552     1.0000 0.08060  0.43221  0.08361  Biso   1.000  C
  C553     1.0000 0.03767  0.44883  0.07533  Biso   1.000  C
  H301     1.0000 0.01177  0.44843  0.11333  Biso   1.000  H
  H302     1.0000 0.97387  0.33403  0.24203  Biso   1.000  H
  C554     1.0000 0.99945  0.30966  0.25779  Biso   1.000  C
  C555     1.0000 0.05933  0.33690  0.24034  Biso   1.000  C
  H303     1.0000 0.07387  0.37953  0.21293  Biso   1.000  H
  H304     1.0000 0.87367  0.60403  0.58893  Biso   1.000  H
  C556     1.0000 0.82347  0.59183  0.59547  Biso   1.000  C
  C557     1.0000 0.78832  0.57063  0.54836  Biso   1.000  C
  H305     1.0000 0.81507  0.56873  0.51033  Biso   1.000  H
  H306     1.0000 0.96907  0.66573  0.57163  Biso   1.000  H
  C558     1.0000 0.01666  0.67357  0.58405  Biso   1.000  C
  C559     1.0000 0.03259  0.63619  0.55745  Biso   1.000  C
  H307     1.0000 0.99637  0.60393  0.52603  Biso   1.000  H
  H308     1.0000 0.09817  0.42823  0.07623  Biso   1.000  H
  C560     1.0000 0.06546  0.44572  0.06380  Biso   1.000  C
  H309     1.0000 0.02517  0.45483  0.06143  Biso   1.000  H
  H310     1.0000 0.98077  0.29213  0.26903  Biso   1.000  H
  C561     1.0000 0.03146  0.31072  0.25715  Biso   1.000  C
  H311     1.0000 0.08077  0.33763  0.23993  Biso   1.000  H
  H312     1.0000 0.82557  0.59763  0.61683  Biso   1.000  H
  C562     1.0000 0.79144  0.57927  0.58026  Biso   1.000  C
  H313     1.0000 0.76687  0.56223  0.53813  Biso   1.000  H
  H314     1.0000 0.02197  0.69173  0.59813  Biso   1.000  H
  C563     1.0000 0.04039  0.66210  0.57928  Biso   1.000  C
  H315     1.0000 0.04837  0.62853  0.55363  Biso   1.000  H
  C564     1.0000 0.07589  0.45335  0.02993  Biso   1.000  C
  C565     1.0000 0.03611  0.28543  0.27475  Biso   1.000  C
  C566     1.0000 0.75827  0.57563  0.59763  Biso   1.000  C
  C567     1.0000 0.07395  0.67726  0.59647  Biso   1.000  C
  O121     1.0000 0.06495  0.46989  0.01384  Biso   1.000  O
  O122     1.0000 0.09726  0.44554  0.01796  Biso   1.000  O
  O123     1.0000 0.06663  0.29289  0.28420  Biso   1.000  O
  O124     1.0000 0.01322  0.25553  0.27977  Biso   1.000  O
  O125     1.0000 0.73078  0.56135  0.58753  Biso   1.000  O
  O126     1.0000 0.76627  0.58553  0.62623  Biso   1.000  O
  In16     1.0000 0.09495  0.47336  0.97116  Biso   1.000  In
  O127     1.0000 0.15120  0.49047  0.96274  Biso   1.000  O
  O128     1.0000 0.13890  0.52130  0.99466  Biso   1.000  O
  C568     1.0000 0.16068  0.51746  0.97883  Biso   1.000  C
  C569     1.0000 0.19760  0.54718  0.97880  Biso   1.000  C
  C570     1.0000 0.20557  0.57811  0.99422  Biso   1.000  C
  C571     1.0000 0.22306  0.54517  0.96106  Biso   1.000  C
  H316     1.0000 0.18847  0.57943  0.00613  Biso   1.000  H
  C572     1.0000 0.23901  0.60704  0.99190  Biso   1.000  C
  C573     1.0000 0.25648  0.57409  0.95875  Biso   1.000  C
  H317     1.0000 0.21767  0.52443  0.95073  Biso   1.000  H
  H318     1.0000 0.24437  0.62773  0.00223  Biso   1.000  H
  C574     1.0000 0.26446  0.60503  0.97416  Biso   1.000  C
  H319     1.0000 0.27347  0.57273  0.94683  Biso   1.000  H
  C575     1.0000 0.30087  0.63693  0.97113  Biso   1.000  C
  C576     1.0000 0.30427  0.67013  0.97127  Biso   1.000  C
  H320     1.0000 0.28447  0.67233  0.97143  Biso   1.000  H
  In17     1.0000 0.57238  0.86529  0.62572  Biso   1.000  In
  O129     1.0000 0.58260  0.84210  0.58080  Biso   1.000  O
  O130     1.0000 0.60853  0.84351  0.62490  Biso   1.000  O
  O131     1.0000 0.55481  0.88844  0.66478  Biso   1.000  O
  O132     1.0000 0.59308  0.87349  0.67593  Biso   1.000  O
  O133     1.0000 0.51611  0.83888  0.60956  Biso   1.000  O
  O134     1.0000 0.53215  0.81160  0.64279  Biso   1.000  O
  O135     1.0000 0.62212  0.91750  0.61492  Biso   1.000  O
  O136     1.0000 0.57173  0.90544  0.59301  Biso   1.000  O
  C577     1.0000 0.60324  0.83465  0.59601  Biso   1.000  C
  C578     1.0000 0.57365  0.88543  0.68504  Biso   1.000  C
  C579     1.0000 0.50761  0.81182  0.62665  Biso   1.000  C
  C580     1.0000 0.62000  0.81736  0.58041  Biso   1.000  C
  C581     1.0000 0.57401  0.89486  0.71822  Biso   1.000  C
  C582     1.0000 0.47179  0.78207  0.62639  Biso   1.000  C
  C583     1.0000 0.63862  0.80638  0.59910  Biso   1.000  C
  C584     1.0000 0.61830  0.81226  0.54789  Biso   1.000  C
  C585     1.0000 0.55190  0.90642  0.72895  Biso   1.000  C
  C586     1.0000 0.59601  0.89120  0.73954  Biso   1.000  C
  C587     1.0000 0.44565  0.78495  0.61058  Biso   1.000  C
  C588     1.0000 0.46363  0.75066  0.64166  Biso   1.000  C
  H321     1.0000 0.63973  0.80977  0.62087  Biso   1.000  H
  C589     1.0000 0.65554  0.79031  0.58526  Biso   1.000  C
  C590     1.0000 0.63522  0.79619  0.53405  Biso   1.000  C
  H322     1.0000 0.60583  0.81957  0.53537  Biso   1.000  H
  H323     1.0000 0.53653  0.90797  0.71487  Biso   1.000  H
  C591     1.0000 0.55211  0.91568  0.76003  Biso   1.000  C
  C592     1.0000 0.59593  0.90020  0.77071  Biso   1.000  C
  H324     1.0000 0.61053  0.88277  0.73287  Biso   1.000  H
  H325     1.0000 0.45083  0.80547  0.60007  Biso   1.000  H
  C593     1.0000 0.41256  0.75744  0.61074  Biso   1.000  C
  C594     1.0000 0.43030  0.72325  0.64048  Biso   1.000  C
  H326     1.0000 0.48083  0.74857  0.65247  Biso   1.000  H
  H327     1.0000 0.66803  0.78297  0.59777  Biso   1.000  H
  C595     1.0000 0.65383  0.78521  0.55273  Biso   1.000  C
  H328     1.0000 0.63403  0.79277  0.51227  Biso   1.000  H
  H329     1.0000 0.53753  0.92397  0.76667  Biso   1.000  H
  C596     1.0000 0.57434  0.91257  0.78135  Biso   1.000  C
  H330     1.0000 0.61073  0.89797  0.78497  Biso   1.000  H
  H331     1.0000 0.39513  0.75997  0.60087  Biso   1.000  H
  C597     1.0000 0.40343  0.72518  0.62518  Biso   1.000  C
  H332     1.0000 0.42523  0.70237  0.65027  Biso   1.000  H
  C598     1.0000 0.67100  0.76651  0.53804  Biso   1.000  C
  C599     1.0000 0.57598  0.92287  0.81587  Biso   1.000  C
  C600     1.0000 0.36763  0.69483  0.62375  Biso   1.000  C
  C601     1.0000 0.68413  0.77497  0.50745  Biso   1.000  C
  C602     1.0000 0.67242  0.73990  0.55435  Biso   1.000  C
  C603     1.0000 0.54576  0.91671  0.83100  Biso   1.000  C
  C604     1.0000 0.60747  0.93777  0.83105  Biso   1.000  C
  C605     1.0000 0.36103  0.66100  0.62423  Biso   1.000  C
  H333     1.0000 0.68323  0.79277  0.49657  Biso   1.000  H
  C606     1.0000 0.69864  0.75679  0.49317  Biso   1.000  C
  C607     1.0000 0.68693  0.72172  0.54006  Biso   1.000  C
  H334     1.0000 0.66363  0.73427  0.57477  Biso   1.000  H
  H335     1.0000 0.52443  0.90577  0.82047  Biso   1.000  H
  C608     1.0000 0.54772  0.92717  0.86259  Biso   1.000  C
  C609     1.0000 0.61001  0.94817  0.86270  Biso   1.000  C
  H336     1.0000 0.62723  0.94097  0.82037  Biso   1.000  H
  H337     1.0000 0.37983  0.65707  0.62487  Biso   1.000  H
  C610     1.0000 0.70005  0.73017  0.50947  Biso   1.000  C
  C611     1.0000 0.71076  0.76417  0.45946  Biso   1.000  C
  C612     1.0000 0.68983  0.69429  0.55814  Biso   1.000  C
  C613     1.0000 0.58001  0.94287  0.87789  Biso   1.000  C
  C614     1.0000 0.51584  0.92039  0.88023  Biso   1.000  C
  C615     1.0000 0.64408  0.96482  0.87971  Biso   1.000  C
  H338     1.0000 0.70983  0.71807  0.49987  Biso   1.000  H
  C616     1.0000 0.73596  0.75803  0.44771  Biso   1.000  C
  C617     1.0000 0.69530  0.77687  0.43913  Biso   1.000  C
  C618     1.0000 0.66196  0.66811  0.57496  Biso   1.000  C
  C619     1.0000 0.72185  0.69536  0.55750  Biso   1.000  C
  H339     1.0000 0.58143  0.94997  0.89877  Biso   1.000  H
  C620     1.0000 0.51896  0.92903  0.91212  Biso   1.000  C
  C621     1.0000 0.48385  0.90786  0.86501  Biso   1.000  C
  C622     1.0000 0.65170  0.99158  0.90134  Biso   1.000  C
  C623     1.0000 0.66780  0.95457  0.87432  Biso   1.000  C
  H340     1.0000 0.74583  0.74847  0.46097  Biso   1.000  H
  C624     1.0000 0.74726  0.76555  0.41695  Biso   1.000  C
  C625     1.0000 0.70433  0.78217  0.40867  Biso   1.000  C
  H341     1.0000 0.67843  0.78177  0.44667  Biso   1.000  H
  H342     1.0000 0.64053  0.66737  0.57537  Biso   1.000  H
  C626     1.0000 0.66611  0.64300  0.59113  Biso   1.000  C
  C627     1.0000 0.72599  0.67024  0.57368  Biso   1.000  C
  H343     1.0000 0.74053  0.71287  0.54627  Biso   1.000  H
  H344     1.0000 0.54033  0.93737  0.92227  Biso   1.000  H
  C628     1.0000 0.49013  0.92517  0.92881  Biso   1.000  C
  C629     1.0000 0.45498  0.90397  0.88170  Biso   1.000  C
  H345     1.0000 0.48173  0.90207  0.84367  Biso   1.000  H
  H346     1.0000 0.63573  0.99907  0.90497  Biso   1.000  H
  C630     1.0000 0.68332  0.00691  0.91739  Biso   1.000  C
  C631     1.0000 0.69925  0.96953  0.89079  Biso   1.000  C
  H347     1.0000 0.66303  0.93727  0.85937  Biso   1.000  H
  H348     1.0000 0.76483  0.76157  0.40957  Biso   1.000  H
  C632     1.0000 0.73212  0.77906  0.39714  Biso   1.000  C
  H349     1.0000 0.69183  0.78817  0.39477  Biso   1.000  H
  H350     1.0000 0.64743  0.62547  0.60237  Biso   1.000  H
  C633     1.0000 0.69812  0.64406  0.59049  Biso   1.000  C
  H351     1.0000 0.74743  0.67097  0.57327  Biso   1.000  H
  H352     1.0000 0.49223  0.93097  0.95017  Biso   1.000  H
  C634     1.0000 0.45810  0.91261  0.91360  Biso   1.000  C
  H353     1.0000 0.43353  0.89557  0.87147  Biso   1.000  H
  H354     1.0000 0.68863  0.02507  0.93147  Biso   1.000  H
  C635     1.0000 0.70705  0.99544  0.91262  Biso   1.000  C
  H355     1.0000 0.71503  0.96187  0.88697  Biso   1.000  H
  C636     1.0000 0.74255  0.78669  0.36327  Biso   1.000  C
  C637     1.0000 0.70277  0.61877  0.60809  Biso   1.000  C
  C638     1.0000 0.42493  0.90897  0.93097  Biso   1.000  C
  C639     1.0000 0.74061  0.01060  0.92981  Biso   1.000  C
  O137     1.0000 0.73161  0.80323  0.34718  Biso   1.000  O
  O138     1.0000 0.76392  0.77888  0.35130  Biso   1.000  O
  O139     1.0000 0.73329  0.62623  0.61754  Biso   1.000  O
  O140     1.0000 0.67988  0.58887  0.61311  Biso   1.000  O
  O141     1.0000 0.39744  0.89469  0.92087  Biso   1.000  O
  O142     1.0000 0.43293  0.91887  0.95957  Biso   1.000  O
  In18     1.0000 0.76161  0.80669  0.30449  Biso   1.000  In
  O143     1.0000 0.81786  0.82381  0.29608  Biso   1.000  O
  O144     1.0000 0.80556  0.85464  0.32800  Biso   1.000  O
  C640     1.0000 0.82734  0.85080  0.31217  Biso   1.000  C
  C641     1.0000 0.86426  0.88052  0.31214  Biso   1.000  C
  C642     1.0000 0.87223  0.91145  0.32756  Biso   1.000  C
  C643     1.0000 0.88972  0.87851  0.29440  Biso   1.000  C
  H356     1.0000 0.85513  0.91277  0.33947  Biso   1.000  H
  C644     1.0000 0.90567  0.94038  0.32524  Biso   1.000  C
  C645     1.0000 0.92314  0.90743  0.29209  Biso   1.000  C
  H357     1.0000 0.88433  0.85777  0.28407  Biso   1.000  H
  H358     1.0000 0.91103  0.96107  0.33557  Biso   1.000  H
  C646     1.0000 0.93112  0.93837  0.30750  Biso   1.000  C
  H359     1.0000 0.94013  0.90607  0.28017  Biso   1.000  H
  C647     1.0000 0.96753  0.97027  0.30447  Biso   1.000  C
  C648     1.0000 0.97093  0.00347  0.30461  Biso   1.000  C
  H360     1.0000 0.95113  0.00567  0.30477  Biso   1.000  H
  In19     1.0000 0.19862  0.95957  0.04095  Biso   1.000  In
  O145     1.0000 0.17543  0.92616  0.08587  Biso   1.000  O
  O146     1.0000 0.17684  0.90164  0.04177  Biso   1.000  O
  O147     1.0000 0.22177  0.00029  0.00189  Biso   1.000  O
  O148     1.0000 0.20682  0.94707  0.99074  Biso   1.000  O
  O149     1.0000 0.17221  0.98943  0.05711  Biso   1.000  O
  O150     1.0000 0.14493  0.94611  0.02388  Biso   1.000  O
  O151     1.0000 0.25083  0.96204  0.05175  Biso   1.000  O
  O152     1.0000 0.23877  0.00037  0.07366  Biso   1.000  O
  C649     1.0000 0.16798  0.89807  0.07066  Biso   1.000  C
  C650     1.0000 0.21876  0.97844  0.98163  Biso   1.000  C
  C651     1.0000 0.14515  0.97087  0.04002  Biso   1.000  C
  C652     1.0000 0.15069  0.86402  0.08626  Biso   1.000  C
  C653     1.0000 0.22819  0.98751  0.94845  Biso   1.000  C
  C654     1.0000 0.11540  0.97694  0.04028  Biso   1.000  C
  C655     1.0000 0.13971  0.83442  0.06757  Biso   1.000  C
  C656     1.0000 0.14559  0.86062  0.11878  Biso   1.000  C
  C657     1.0000 0.23975  0.02118  0.93772  Biso   1.000  C
  C658     1.0000 0.22453  0.96185  0.92713  Biso   1.000  C
  C659     1.0000 0.11828  0.00596  0.05609  Biso   1.000  C
  C660     1.0000 0.08399  0.95369  0.02501  Biso   1.000  C
  H361     1.0000 0.14310  0.83670  0.04580  Biso   1.000  H
  C661     1.0000 0.12364  0.80143  0.08141  Biso   1.000  C
  C662     1.0000 0.12952  0.82763  0.13262  Biso   1.000  C
  H362     1.0000 0.15290  0.88040  0.13130  Biso   1.000  H
  H363     1.0000 0.24130  0.03810  0.95180  Biso   1.000  H
  C663     1.0000 0.24901  0.03023  0.90664  Biso   1.000  C
  C664     1.0000 0.23353  0.97093  0.89596  Biso   1.000  C
  H364     1.0000 0.21610  0.93890  0.93380  Biso   1.000  H
  H365     1.0000 0.13880  0.02130  0.06660  Biso   1.000  H
  C665     1.0000 0.09077  0.01154  0.05593  Biso   1.000  C
  C666     1.0000 0.05658  0.95961  0.02619  Biso   1.000  C
  H366     1.0000 0.08190  0.93440  0.01420  Biso   1.000  H
  H367     1.0000 0.11630  0.78160  0.06890  Biso   1.000  H
  C667     1.0000 0.11854  0.79804  0.11394  Biso   1.000  C
  H368     1.0000 0.12610  0.82540  0.15440  Biso   1.000  H
  H369     1.0000 0.25730  0.05310  0.90000  Biso   1.000  H
  C668     1.0000 0.24590  0.00489  0.88532  Biso   1.000  C
  H370     1.0000 0.23130  0.95390  0.88170  Biso   1.000  H
  H371     1.0000 0.09330  0.03150  0.06580  Biso   1.000  H
  C669     1.0000 0.05851  0.98841  0.04149  Biso   1.000  C
  H372     1.0000 0.03570  0.94380  0.01640  Biso   1.000  H
  C670     1.0000 0.09984  0.76217  0.12863  Biso   1.000  C
  C671     1.0000 0.25620  0.01355  0.85080  Biso   1.000  C
  C672     1.0000 0.02816  0.99386  0.04292  Biso   1.000  C
  C673     1.0000 0.10830  0.75750  0.15922  Biso   1.000  C
  C674     1.0000 0.07323  0.73414  0.11232  Biso   1.000  C
  C675     1.0000 0.25004  0.03761  0.83567  Biso   1.000  C
  C676     1.0000 0.27110  0.99696  0.83562  Biso   1.000  C
  C677     1.0000 0.99433  0.96663  0.04244  Biso   1.000  C
  H373     1.0000 0.12610  0.77620  0.17010  Biso   1.000  H
  C678     1.0000 0.09012  0.72481  0.17350  Biso   1.000  C
  C679     1.0000 0.05505  0.70145  0.12661  Biso   1.000  C
  H374     1.0000 0.06760  0.73730  0.09190  Biso   1.000  H
  H375     1.0000 0.23910  0.04800  0.84620  Biso   1.000  H
  C680     1.0000 0.26050  0.04611  0.80408  Biso   1.000  C
  C681     1.0000 0.28150  0.00482  0.80397  Biso   1.000  C
  H376     1.0000 0.27430  0.98040  0.84630  Biso   1.000  H
  H377     1.0000 0.99040  0.94390  0.04180  Biso   1.000  H
  C682     1.0000 0.06350  0.69678  0.15720  Biso   1.000  C
  C683     1.0000 0.09750  0.72007  0.20721  Biso   1.000  C
  C684     1.0000 0.02762  0.67112  0.10853  Biso   1.000  C
  C685     1.0000 0.27620  0.02952  0.78878  Biso   1.000  C
  C686     1.0000 0.25372  0.07121  0.78644  Biso   1.000  C
  C687     1.0000 0.29815  0.98740  0.78696  Biso   1.000  C
  H378     1.0000 0.05140  0.67490  0.16680  Biso   1.000  H
  C688     1.0000 0.09136  0.68873  0.21896  Biso   1.000  C
  C689     1.0000 0.11020  0.74823  0.22754  Biso   1.000  C
  C690     1.0000 0.00144  0.67281  0.09171  Biso   1.000  C
  C691     1.0000 0.02869  0.64017  0.10917  Biso   1.000  C
  H379     1.0000 0.28330  0.03520  0.76790  Biso   1.000  H
  C692     1.0000 0.26236  0.07673  0.75455  Biso   1.000  C
  C693     1.0000 0.24119  0.09067  0.80166  Biso   1.000  C
  C694     1.0000 0.32491  0.00654  0.76533  Biso   1.000  C
  C695     1.0000 0.28790  0.95343  0.79235  Biso   1.000  C
  H380     1.0000 0.08180  0.66930  0.20570  Biso   1.000  H
  C696     1.0000 0.09888  0.68495  0.24972  Biso   1.000  C
  C697     1.0000 0.11550  0.74450  0.25800  Biso   1.000  C
  H381     1.0000 0.11510  0.77000  0.22000  Biso   1.000  H
  H382     1.0000 0.00070  0.69350  0.09130  Biso   1.000  H
  C698     1.0000 0.97633  0.64355  0.07554  Biso   1.000  C
  C699     1.0000 0.00357  0.61091  0.09299  Biso   1.000  C
  H383     1.0000 0.04620  0.63900  0.12040  Biso   1.000  H
  H384     1.0000 0.27070  0.06370  0.74440  Biso   1.000  H
  C700     1.0000 0.25850  0.10170  0.73786  Biso   1.000  C
  C701     1.0000 0.23730  0.11565  0.78497  Biso   1.000  C
  H385     1.0000 0.23540  0.08700  0.82300  Biso   1.000  H
  H386     1.0000 0.33240  0.03000  0.76170  Biso   1.000  H
  C702     1.0000 0.34024  0.99025  0.74928  Biso   1.000  C
  C703     1.0000 0.30286  0.93694  0.77588  Biso   1.000  C
  H387     1.0000 0.27060  0.94090  0.80730  Biso   1.000  H
  H388     1.0000 0.09490  0.66340  0.25710  Biso   1.000  H
  C704     1.0000 0.11239  0.71360  0.26953  Biso   1.000  C
  H389     1.0000 0.12150  0.76300  0.27190  Biso   1.000  H
  H390     1.0000 0.95880  0.64470  0.06430  Biso   1.000  H
  C705     1.0000 0.97739  0.61260  0.07618  Biso   1.000  C
  H391     1.0000 0.00430  0.59020  0.09340  Biso   1.000  H
  H392     1.0000 0.26430  0.10540  0.71650  Biso   1.000  H
  C706     1.0000 0.24594  0.12117  0.75307  Biso   1.000  C
  H393     1.0000 0.22890  0.12870  0.79520  Biso   1.000  H
  H394     1.0000 0.35840  0.00310  0.73520  Biso   1.000  H
  C707     1.0000 0.32877  0.95505  0.75405  Biso   1.000  C
  H395     1.0000 0.29520  0.91350  0.77970  Biso   1.000  H
  C708     1.0000 0.12002  0.71080  0.30340  Biso   1.000  C
  C709     1.0000 0.95210  0.58266  0.05858  Biso   1.000  C
  C710     1.0000 0.24230  0.15070  0.73570  Biso   1.000  C
  C711     1.0000 0.34393  0.93665  0.73686  Biso   1.000  C
  O153     1.0000 0.13656  0.73828  0.31949  Biso   1.000  O
  O154     1.0000 0.11221  0.68162  0.31537  Biso   1.000  O
  O155     1.0000 0.95956  0.55960  0.04913  Biso   1.000  O
  O156     1.0000 0.92220  0.57565  0.05356  Biso   1.000  O
  O157     1.0000 0.22802  0.16391  0.74580  Biso   1.000  O
  O158     1.0000 0.25220  0.15260  0.70710  Biso   1.000  O
  In20     1.0000 0.14002  0.71174  0.36218  Biso   1.000  In
  O159     1.0000 0.15714  0.67261  0.37059  Biso   1.000  O
  O160     1.0000 0.18797  0.71574  0.33867  Biso   1.000  O
  C712     1.0000 0.18413  0.69012  0.35450  Biso   1.000  C
  C713     1.0000 0.21385  0.68292  0.35453  Biso   1.000  C
  C714     1.0000 0.24478  0.70588  0.33911  Biso   1.000  C
  C715     1.0000 0.21184  0.65545  0.37227  Biso   1.000  C
  H396     1.0000 0.24610  0.72430  0.32720  Biso   1.000  H
  C716     1.0000 0.27371  0.70137  0.34143  Biso   1.000  C
  C717     1.0000 0.24076  0.65095  0.37458  Biso   1.000  C
  H397     1.0000 0.19110  0.64010  0.38260  Biso   1.000  H
  H398     1.0000 0.29440  0.71670  0.33110  Biso   1.000  H
  C718     1.0000 0.27170  0.67391  0.35917  Biso   1.000  C
  H399     1.0000 0.23940  0.63260  0.38650  Biso   1.000  H
  C719     1.0000 0.30360  0.66940  0.36220  Biso   1.000  C
  C720     1.0000 0.33680  0.69920  0.36206  Biso   1.000  C
  H400     1.0000 0.33900  0.72120  0.36190  Biso   1.000  H
  In21     1.0000 0.86529  0.29290  0.37428  Biso   1.000  In
  O161     1.0000 0.84210  0.25949  0.41920  Biso   1.000  O
  O162     1.0000 0.84351  0.23497  0.37510  Biso   1.000  O
  O163     1.0000 0.88844  0.33362  0.33522  Biso   1.000  O
  O164     1.0000 0.87349  0.28040  0.32407  Biso   1.000  O
  O165     1.0000 0.83888  0.32276  0.39044  Biso   1.000  O
  O166     1.0000 0.81160  0.27944  0.35721  Biso   1.000  O
  O167     1.0000 0.91750  0.29537  0.38508  Biso   1.000  O
  O168     1.0000 0.90544  0.33370  0.40699  Biso   1.000  O
  C721     1.0000 0.83465  0.23140  0.40399  Biso   1.000  C
  C722     1.0000 0.88543  0.31177  0.31496  Biso   1.000  C
  C723     1.0000 0.81182  0.30420  0.37335  Biso   1.000  C
  C724     1.0000 0.81736  0.19735  0.41959  Biso   1.000  C
  C725     1.0000 0.89486  0.32084  0.28178  Biso   1.000  C
  C726     1.0000 0.78207  0.31027  0.37361  Biso   1.000  C
  C727     1.0000 0.80638  0.16775  0.40090  Biso   1.000  C
  C728     1.0000 0.81226  0.19395  0.45211  Biso   1.000  C
  C729     1.0000 0.90642  0.35451  0.27105  Biso   1.000  C
  C730     1.0000 0.89120  0.29518  0.26046  Biso   1.000  C
  C731     1.0000 0.78495  0.33929  0.38942  Biso   1.000  C
  C732     1.0000 0.75066  0.28702  0.35834  Biso   1.000  C
  H401     1.0000 0.80977  0.17003  0.37913  Biso   1.000  H
  C733     1.0000 0.79031  0.13476  0.41474  Biso   1.000  C
  C734     1.0000 0.79619  0.16096  0.46595  Biso   1.000  C
  H402     1.0000 0.81957  0.21373  0.46463  Biso   1.000  H
  H403     1.0000 0.90797  0.37143  0.28513  Biso   1.000  H
  C735     1.0000 0.91568  0.36356  0.23997  Biso   1.000  C
  C736     1.0000 0.90020  0.30426  0.22929  Biso   1.000  C
  H404     1.0000 0.88277  0.27223  0.26713  Biso   1.000  H
  H405     1.0000 0.80547  0.35463  0.39993  Biso   1.000  H
  C737     1.0000 0.75744  0.34487  0.38926  Biso   1.000  C
  C738     1.0000 0.72325  0.29294  0.35952  Biso   1.000  C
  H406     1.0000 0.74857  0.26773  0.34753  Biso   1.000  H
  H407     1.0000 0.78297  0.11493  0.40223  Biso   1.000  H
  C739     1.0000 0.78521  0.13137  0.44727  Biso   1.000  C
  H408     1.0000 0.79277  0.15873  0.48773  Biso   1.000  H
  H409     1.0000 0.92397  0.38643  0.23333  Biso   1.000  H
  C740     1.0000 0.91257  0.33822  0.21865  Biso   1.000  C
  H410     1.0000 0.89797  0.28723  0.21503  Biso   1.000  H
  H411     1.0000 0.75997  0.36483  0.39913  Biso   1.000  H
  C741     1.0000 0.72518  0.32174  0.37482  Biso   1.000  C
  H412     1.0000 0.70237  0.27713  0.34973  Biso   1.000  H
  C742     1.0000 0.76651  0.09550  0.46196  Biso   1.000  C
  C743     1.0000 0.92287  0.34688  0.18413  Biso   1.000  C
  C744     1.0000 0.69483  0.32719  0.37625  Biso   1.000  C
  C745     1.0000 0.77497  0.09083  0.49255  Biso   1.000  C
  C746     1.0000 0.73990  0.06747  0.44565  Biso   1.000  C
  C747     1.0000 0.91671  0.37094  0.16900  Biso   1.000  C
  C748     1.0000 0.93777  0.33029  0.16895  Biso   1.000  C
  C749     1.0000 0.66100  0.29996  0.37577  Biso   1.000  C
  H413     1.0000 0.79277  0.10953  0.50343  Biso   1.000  H
  C750     1.0000 0.75679  0.05814  0.50683  Biso   1.000  C
  C751     1.0000 0.72172  0.03478  0.45994  Biso   1.000  C
  H414     1.0000 0.73427  0.07063  0.42523  Biso   1.000  H
  H415     1.0000 0.90577  0.38133  0.17953  Biso   1.000  H
  C752     1.0000 0.92717  0.37944  0.13741  Biso   1.000  C
  C753     1.0000 0.94817  0.33815  0.13730  Biso   1.000  C
  H416     1.0000 0.94097  0.31373  0.17963  Biso   1.000  H
  H417     1.0000 0.65707  0.27723  0.37513  Biso   1.000  H
  C754     1.0000 0.73017  0.03011  0.49053  Biso   1.000  C
  C755     1.0000 0.76417  0.05340  0.54054  Biso   1.000  C
  C756     1.0000 0.69429  0.00445  0.44186  Biso   1.000  C
  C757     1.0000 0.94287  0.36285  0.12211  Biso   1.000  C
  C758     1.0000 0.92039  0.40454  0.11977  Biso   1.000  C
  C759     1.0000 0.96482  0.32073  0.12029  Biso   1.000  C
  H418     1.0000 0.71807  0.00823  0.50013  Biso   1.000  H
  C760     1.0000 0.75803  0.02206  0.55229  Biso   1.000  C
  C761     1.0000 0.77687  0.08156  0.56087  Biso   1.000  C
  C762     1.0000 0.66811  0.00614  0.42504  Biso   1.000  C
  C763     1.0000 0.69536  0.97350  0.44250  Biso   1.000  C
  H419     1.0000 0.94997  0.36853  0.10123  Biso   1.000  H
  C764     1.0000 0.92903  0.41006  0.08788  Biso   1.000  C
  C765     1.0000 0.90786  0.42400  0.13499  Biso   1.000  C
  C766     1.0000 0.99158  0.33987  0.09866  Biso   1.000  C
  C767     1.0000 0.95457  0.28676  0.12568  Biso   1.000  C
  H420     1.0000 0.74847  0.00263  0.53903  Biso   1.000  H
  C768     1.0000 0.76555  0.01828  0.58305  Biso   1.000  C
  C769     1.0000 0.78217  0.07783  0.59133  Biso   1.000  C
  H421     1.0000 0.78177  0.10333  0.55333  Biso   1.000  H
  H422     1.0000 0.66737  0.02683  0.42463  Biso   1.000  H
  C770     1.0000 0.64300  0.97688  0.40887  Biso   1.000  C
  C771     1.0000 0.67024  0.94424  0.42632  Biso   1.000  C
  H423     1.0000 0.71287  0.97233  0.45373  Biso   1.000  H
  H424     1.0000 0.93737  0.39703  0.07773  Biso   1.000  H
  C772     1.0000 0.92517  0.43503  0.07119  Biso   1.000  C
  C773     1.0000 0.90397  0.44898  0.11830  Biso   1.000  C
  H425     1.0000 0.90207  0.42033  0.15633  Biso   1.000  H
  H426     1.0000 0.99907  0.36333  0.09503  Biso   1.000  H
  C774     1.0000 0.00691  0.32358  0.08261  Biso   1.000  C
  C775     1.0000 0.96953  0.27027  0.10921  Biso   1.000  C
  H427     1.0000 0.93727  0.27423  0.14063  Biso   1.000  H
  H428     1.0000 0.76157  0.99673  0.59043  Biso   1.000  H
  C776     1.0000 0.77906  0.04693  0.60286  Biso   1.000  C
  H429     1.0000 0.78817  0.09633  0.60523  Biso   1.000  H
  H430     1.0000 0.62547  0.97803  0.39763  Biso   1.000  H
  C777     1.0000 0.64406  0.94593  0.40951  Biso   1.000  C
  H431     1.0000 0.67097  0.92353  0.42673  Biso   1.000  H
  H432     1.0000 0.93097  0.43873  0.04983  Biso   1.000  H
  C778     1.0000 0.91261  0.45450  0.08640  Biso   1.000  C
  H433     1.0000 0.89557  0.46203  0.12853  Biso   1.000  H
  H434     1.0000 0.02507  0.33643  0.06853  Biso   1.000  H
  C779     1.0000 0.99544  0.28838  0.08738  Biso   1.000  C
  H435     1.0000 0.96187  0.24683  0.11303  Biso   1.000  H
  C780     1.0000 0.78669  0.04413  0.63673  Biso   1.000  C
  C781     1.0000 0.61877  0.91599  0.39191  Biso   1.000  C
  C782     1.0000 0.90897  0.48403  0.06903  Biso   1.000  C
  C783     1.0000 0.01060  0.26998  0.07019  Biso   1.000  C
  O169     1.0000 0.80323  0.07161  0.65282  Biso   1.000  O
  O170     1.0000 0.77888  0.01495  0.64870  Biso   1.000  O
  O171     1.0000 0.62623  0.89293  0.38246  Biso   1.000  O
  O172     1.0000 0.58887  0.90898  0.38689  Biso   1.000  O
  O173     1.0000 0.89469  0.49724  0.07913  Biso   1.000  O
  O174     1.0000 0.91887  0.48593  0.04043  Biso   1.000  O
  In22     1.0000 0.80669  0.04508  0.69551  Biso   1.000  In
  O175     1.0000 0.82381  0.00594  0.70392  Biso   1.000  O
  O176     1.0000 0.85464  0.04907  0.67200  Biso   1.000  O
  C784     1.0000 0.85080  0.02345  0.68783  Biso   1.000  C
  C785     1.0000 0.88052  0.01625  0.68786  Biso   1.000  C
  C786     1.0000 0.91145  0.03921  0.67244  Biso   1.000  C
  C787     1.0000 0.87851  0.98878  0.70560  Biso   1.000  C
  H436     1.0000 0.91277  0.05763  0.66053  Biso   1.000  H
  C788     1.0000 0.94038  0.03470  0.67476  Biso   1.000  C
  C789     1.0000 0.90743  0.98428  0.70791  Biso   1.000  C
  H437     1.0000 0.85777  0.97343  0.71593  Biso   1.000  H
  H438     1.0000 0.96107  0.05003  0.66443  Biso   1.000  H
  C790     1.0000 0.93837  0.00724  0.69250  Biso   1.000  C
  H439     1.0000 0.90607  0.96593  0.71983  Biso   1.000  H
  C791     1.0000 0.97027  0.00273  0.69553  Biso   1.000  C
  C792     1.0000 0.00347  0.03253  0.69539  Biso   1.000  C
  H440     1.0000 0.00567  0.05453  0.69523  Biso   1.000  H
  In23     1.0000 0.53195  0.62624  0.70761  Biso   1.000  In
  O177     1.0000 0.50876  0.59283  0.75254  Biso   1.000  O
  O178     1.0000 0.51017  0.56831  0.70844  Biso   1.000  O
  O179     1.0000 0.55510  0.66696  0.66856  Biso   1.000  O
  O180     1.0000 0.54015  0.61374  0.65741  Biso   1.000  O
  O181     1.0000 0.50554  0.65610  0.72378  Biso   1.000  O
  O182     1.0000 0.47826  0.61278  0.69055  Biso   1.000  O
  O183     1.0000 0.58416  0.62871  0.71842  Biso   1.000  O
  O184     1.0000 0.57210  0.66704  0.74033  Biso   1.000  O
  C793     1.0000 0.50131  0.56474  0.73733  Biso   1.000  C
  C794     1.0000 0.55209  0.64511  0.64830  Biso   1.000  C
  C795     1.0000 0.47848  0.63754  0.70669  Biso   1.000  C
  C796     1.0000 0.48402  0.53069  0.75293  Biso   1.000  C
  C797     1.0000 0.56152  0.65418  0.61512  Biso   1.000  C
  C798     1.0000 0.44873  0.64361  0.70695  Biso   1.000  C
  C799     1.0000 0.47304  0.50109  0.73424  Biso   1.000  C
  C800     1.0000 0.47892  0.52729  0.78545  Biso   1.000  C
  C801     1.0000 0.57308  0.68785  0.60439  Biso   1.000  C
  C802     1.0000 0.55786  0.62852  0.59380  Biso   1.000  C
  C803     1.0000 0.45161  0.67263  0.72276  Biso   1.000  C
  C804     1.0000 0.41732  0.62036  0.69168  Biso   1.000  C
  H441     1.0000 0.47643  0.50337  0.71247  Biso   1.000  H
  C805     1.0000 0.45697  0.46810  0.74808  Biso   1.000  C
  C806     1.0000 0.46285  0.49430  0.79929  Biso   1.000  C
  H442     1.0000 0.48623  0.54707  0.79797  Biso   1.000  H
  H443     1.0000 0.57463  0.70477  0.61847  Biso   1.000  H
  C807     1.0000 0.58234  0.69690  0.57331  Biso   1.000  C
  C808     1.0000 0.56686  0.63760  0.56263  Biso   1.000  C
  H444     1.0000 0.54943  0.60557  0.60047  Biso   1.000  H
  H445     1.0000 0.47213  0.68797  0.73327  Biso   1.000  H
  C809     1.0000 0.42410  0.67821  0.72260  Biso   1.000  C
  C810     1.0000 0.38991  0.62628  0.69286  Biso   1.000  C
  H446     1.0000 0.41523  0.60107  0.68087  Biso   1.000  H
  H447     1.0000 0.44963  0.44827  0.73557  Biso   1.000  H
  C811     1.0000 0.45187  0.46471  0.78061  Biso   1.000  C
  H448     1.0000 0.45943  0.49207  0.82107  Biso   1.000  H
  H449     1.0000 0.59063  0.71977  0.56667  Biso   1.000  H
  C812     1.0000 0.57923  0.67156  0.55199  Biso   1.000  C
  H450     1.0000 0.56463  0.62057  0.54837  Biso   1.000  H
  H451     1.0000 0.42663  0.69817  0.73247  Biso   1.000  H
  C813     1.0000 0.39184  0.65508  0.70816  Biso   1.000  C
  H452     1.0000 0.36903  0.61047  0.68307  Biso   1.000  H
  C814     1.0000 0.43317  0.42884  0.79530  Biso   1.000  C
  C815     1.0000 0.58953  0.68022  0.51747  Biso   1.000  C
  C816     1.0000 0.36149  0.66053  0.70959  Biso   1.000  C
  C817     1.0000 0.44163  0.42417  0.82589  Biso   1.000  C
  C818     1.0000 0.40656  0.40081  0.77899  Biso   1.000  C
  C819     1.0000 0.58337  0.70428  0.50234  Biso   1.000  C
  C820     1.0000 0.60443  0.66363  0.50229  Biso   1.000  C
  C821     1.0000 0.32766  0.63330  0.70911  Biso   1.000  C
  H453     1.0000 0.45943  0.44287  0.83677  Biso   1.000  H
  C822     1.0000 0.42345  0.39148  0.84017  Biso   1.000  C
  C823     1.0000 0.38838  0.36812  0.79328  Biso   1.000  C
  H454     1.0000 0.40093  0.40397  0.75857  Biso   1.000  H
  H455     1.0000 0.57243  0.71467  0.51287  Biso   1.000  H
  C824     1.0000 0.59383  0.71278  0.47075  Biso   1.000  C
  C825     1.0000 0.61483  0.67149  0.47064  Biso   1.000  C
  H456     1.0000 0.60763  0.64707  0.51297  Biso   1.000  H
  H457     1.0000 0.32373  0.61057  0.70847  Biso   1.000  H
  C826     1.0000 0.39683  0.36345  0.82387  Biso   1.000  C
  C827     1.0000 0.43083  0.38674  0.87388  Biso   1.000  C
  C828     1.0000 0.36095  0.33779  0.77520  Biso   1.000  C
  C829     1.0000 0.60953  0.69619  0.45545  Biso   1.000  C
  C830     1.0000 0.58705  0.73788  0.45311  Biso   1.000  C
  C831     1.0000 0.63148  0.65407  0.45363  Biso   1.000  C
  H458     1.0000 0.38473  0.34157  0.83347  Biso   1.000  H
  C832     1.0000 0.42469  0.35540  0.88563  Biso   1.000  C
  C833     1.0000 0.44353  0.41490  0.89421  Biso   1.000  C
  C834     1.0000 0.33477  0.33948  0.75838  Biso   1.000  C
  C835     1.0000 0.36202  0.30684  0.77584  Biso   1.000  C
  H459     1.0000 0.61663  0.70187  0.43457  Biso   1.000  H
  C836     1.0000 0.59569  0.74340  0.42122  Biso   1.000  C
  C837     1.0000 0.57452  0.75734  0.46833  Biso   1.000  C
  C838     1.0000 0.65824  0.67321  0.43200  Biso   1.000  C
  C839     1.0000 0.62123  0.62010  0.45902  Biso   1.000  C
  H460     1.0000 0.41513  0.33597  0.87237  Biso   1.000  H
  C840     1.0000 0.43221  0.35162  0.91639  Biso   1.000  C
  C841     1.0000 0.44883  0.41117  0.92467  Biso   1.000  C
  H461     1.0000 0.44843  0.43667  0.88667  Biso   1.000  H
  H462     1.0000 0.33403  0.36017  0.75797  Biso   1.000  H
  C842     1.0000 0.30966  0.31022  0.74221  Biso   1.000  C
  C843     1.0000 0.33690  0.27758  0.75966  Biso   1.000  C
  H463     1.0000 0.37953  0.30567  0.78707  Biso   1.000  H
  H464     1.0000 0.60403  0.73037  0.41107  Biso   1.000  H
  C844     1.0000 0.59183  0.76837  0.40453  Biso   1.000  C
  C845     1.0000 0.57063  0.78232  0.45164  Biso   1.000  C
  H465     1.0000 0.56873  0.75367  0.48967  Biso   1.000  H
  H466     1.0000 0.66573  0.69667  0.42837  Biso   1.000  H
  C846     1.0000 0.67357  0.65692  0.41595  Biso   1.000  C
  C847     1.0000 0.63619  0.60361  0.44255  Biso   1.000  C
  H467     1.0000 0.60393  0.60757  0.47397  Biso   1.000  H
  H468     1.0000 0.42823  0.33007  0.92377  Biso   1.000  H
  C848     1.0000 0.44572  0.38027  0.93620  Biso   1.000  C
  H469     1.0000 0.45483  0.42967  0.93857  Biso   1.000  H
  H470     1.0000 0.29213  0.31137  0.73097  Biso   1.000  H
  C849     1.0000 0.31072  0.27927  0.74285  Biso   1.000  C
  H471     1.0000 0.33763  0.25687  0.76007  Biso   1.000  H
  H472     1.0000 0.59763  0.77207  0.38317  Biso   1.000  H
  C850     1.0000 0.57927  0.78784  0.41974  Biso   1.000  C
  H473     1.0000 0.56223  0.79537  0.46187  Biso   1.000  H
  H474     1.0000 0.69173  0.66977  0.40187  Biso   1.000  H
  C851     1.0000 0.66210  0.62172  0.42072  Biso   1.000  C
  H475     1.0000 0.62853  0.58017  0.44637  Biso   1.000  H
  C852     1.0000 0.45335  0.37747  0.97007  Biso   1.000  C
  C853     1.0000 0.28543  0.24933  0.72525  Biso   1.000  C
  C854     1.0000 0.57563  0.81737  0.40237  Biso   1.000  C
  C855     1.0000 0.67726  0.60332  0.40353  Biso   1.000  C
  O185     1.0000 0.46989  0.40495  0.98616  Biso   1.000  O
  O186     1.0000 0.44554  0.34829  0.98204  Biso   1.000  O
  O187     1.0000 0.29289  0.22627  0.71580  Biso   1.000  O
  O188     1.0000 0.25553  0.24232  0.72023  Biso   1.000  O
  O189     1.0000 0.56135  0.83058  0.41247  Biso   1.000  O
  O190     1.0000 0.58553  0.81927  0.37377  Biso   1.000  O
  In24     1.0000 0.47336  0.37841  0.02884  Biso   1.000  In
  O191     1.0000 0.49047  0.33928  0.03726  Biso   1.000  O
  O192     1.0000 0.52130  0.38241  0.00534  Biso   1.000  O
  C856     1.0000 0.51746  0.35679  0.02117  Biso   1.000  C
  C857     1.0000 0.54718  0.34959  0.02120  Biso   1.000  C
  C858     1.0000 0.57811  0.37255  0.00578  Biso   1.000  C
  C859     1.0000 0.54517  0.32212  0.03894  Biso   1.000  C
  H476     1.0000 0.57943  0.39097  0.99387  Biso   1.000  H
  C860     1.0000 0.60704  0.36804  0.00810  Biso   1.000  C
  C861     1.0000 0.57409  0.31762  0.04125  Biso   1.000  C
  H477     1.0000 0.52443  0.30677  0.04927  Biso   1.000  H
  H478     1.0000 0.62773  0.38337  0.99777  Biso   1.000  H
  C862     1.0000 0.60503  0.34058  0.02584  Biso   1.000  C
  H479     1.0000 0.57273  0.29927  0.05317  Biso   1.000  H
  C863     1.0000 0.63693  0.33607  0.02887  Biso   1.000  C
  C864     1.0000 0.67013  0.36587  0.02873  Biso   1.000  C
  H480     1.0000 0.67233  0.38787  0.02857  Biso   1.000  H
  In25     1.0000 0.04043  0.23905  0.04095  Biso   1.000  In
  O193     1.0000 0.07384  0.24927  0.08587  Biso   1.000  O
  O194     1.0000 0.09836  0.27520  0.04177  Biso   1.000  O
  O195     1.0000 0.99971  0.22148  0.00189  Biso   1.000  O
  O196     1.0000 0.05293  0.25975  0.99074  Biso   1.000  O
  O197     1.0000 0.01057  0.18278  0.05711  Biso   1.000  O
  O198     1.0000 0.05389  0.19882  0.02388  Biso   1.000  O
  O199     1.0000 0.03796  0.28879  0.05175  Biso   1.000  O
  O200     1.0000 0.99963  0.23840  0.07366  Biso   1.000  O
  C865     1.0000 0.10193  0.26991  0.07066  Biso   1.000  C
  C866     1.0000 0.02156  0.24032  0.98163  Biso   1.000  C
  C867     1.0000 0.02913  0.17428  0.04002  Biso   1.000  C
  C868     1.0000 0.13598  0.28667  0.08626  Biso   1.000  C
  C869     1.0000 0.01249  0.24068  0.94845  Biso   1.000  C
  C870     1.0000 0.02306  0.13846  0.04028  Biso   1.000  C
  C871     1.0000 0.16558  0.30529  0.06757  Biso   1.000  C
  C872     1.0000 0.13938  0.28497  0.11878  Biso   1.000  C
  C873     1.0000 0.97882  0.21857  0.93772  Biso   1.000  C
  C874     1.0000 0.03815  0.26268  0.92713  Biso   1.000  C
  C875     1.0000 0.99404  0.11232  0.05609  Biso   1.000  C
  C876     1.0000 0.04631  0.13030  0.02501  Biso   1.000  C
  H481     1.0000 0.16330  0.30640  0.04580  Biso   1.000  H
  C877     1.0000 0.19857  0.32221  0.08141  Biso   1.000  C
  C878     1.0000 0.17237  0.30189  0.13262  Biso   1.000  C
  H482     1.0000 0.11960  0.27250  0.13130  Biso   1.000  H
  H483     1.0000 0.96190  0.20320  0.95180  Biso   1.000  H
  C879     1.0000 0.96977  0.21878  0.90664  Biso   1.000  C
  C880     1.0000 0.02907  0.26260  0.89596  Biso   1.000  C
  H484     1.0000 0.06110  0.27720  0.93380  Biso   1.000  H
  H485     1.0000 0.97870  0.11750  0.06660  Biso   1.000  H
  C881     1.0000 0.98846  0.07923  0.05593  Biso   1.000  C
  C882     1.0000 0.04039  0.09697  0.02619  Biso   1.000  C
  H486     1.0000 0.06560  0.14750  0.01420  Biso   1.000  H
  H487     1.0000 0.21840  0.33470  0.06890  Biso   1.000  H
  C883     1.0000 0.20196  0.32050  0.11394  Biso   1.000  C
  H488     1.0000 0.17460  0.30070  0.15440  Biso   1.000  H
  H489     1.0000 0.94690  0.20420  0.90000  Biso   1.000  H
  C884     1.0000 0.99511  0.24101  0.88532  Biso   1.000  C
  H490     1.0000 0.04610  0.27740  0.88170  Biso   1.000  H
  H491     1.0000 0.96850  0.06180  0.06580  Biso   1.000  H
  C885     1.0000 0.01159  0.07010  0.04149  Biso   1.000  C
  H492     1.0000 0.05620  0.09190  0.01640  Biso   1.000  H
  C886     1.0000 0.23783  0.33767  0.12863  Biso   1.000  C
  C887     1.0000 0.98645  0.24265  0.85080  Biso   1.000  C
  C888     1.0000 0.00614  0.03430  0.04292  Biso   1.000  C
  C889     1.0000 0.24250  0.35080  0.15922  Biso   1.000  C
  C890     1.0000 0.26586  0.33909  0.11232  Biso   1.000  C
  C891     1.0000 0.96239  0.21243  0.83567  Biso   1.000  C
  C892     1.0000 0.00304  0.27414  0.83562  Biso   1.000  C
  C893     1.0000 0.03337  0.02770  0.04244  Biso   1.000  C
  H493     1.0000 0.22380  0.34990  0.17010  Biso   1.000  H
  C894     1.0000 0.27519  0.36531  0.17350  Biso   1.000  C
  C895     1.0000 0.29855  0.35360  0.12661  Biso   1.000  C
  H494     1.0000 0.26270  0.33030  0.09190  Biso   1.000  H
  H495     1.0000 0.95200  0.19110  0.84620  Biso   1.000  H
  C896     1.0000 0.95389  0.21439  0.80408  Biso   1.000  C
  C897     1.0000 0.99518  0.27668  0.80397  Biso   1.000  C
  H496     1.0000 0.01960  0.29390  0.84630  Biso   1.000  H
  H497     1.0000 0.05610  0.04650  0.04180  Biso   1.000  H
  C898     1.0000 0.30322  0.36672  0.15720  Biso   1.000  C
  C899     1.0000 0.27993  0.37743  0.20721  Biso   1.000  C
  C900     1.0000 0.32888  0.35650  0.10853  Biso   1.000  C
  C901     1.0000 0.97048  0.24668  0.78878  Biso   1.000  C
  C902     1.0000 0.92879  0.18251  0.78644  Biso   1.000  C
  C903     1.0000 0.01260  0.31075  0.78696  Biso   1.000  C
  H498     1.0000 0.32510  0.37650  0.16680  Biso   1.000  H
  C904     1.0000 0.31127  0.40263  0.21896  Biso   1.000  C
  C905     1.0000 0.25177  0.36197  0.22754  Biso   1.000  C
  C906     1.0000 0.32719  0.32863  0.09171  Biso   1.000  C
  C907     1.0000 0.35983  0.38852  0.10917  Biso   1.000  C
  H499     1.0000 0.96480  0.24810  0.76790  Biso   1.000  H
  C908     1.0000 0.92327  0.18563  0.75455  Biso   1.000  C
  C909     1.0000 0.90933  0.15052  0.80166  Biso   1.000  C
  C910     1.0000 0.99346  0.31837  0.76533  Biso   1.000  C
  C911     1.0000 0.04657  0.33447  0.79235  Biso   1.000  C
  H500     1.0000 0.33070  0.41250  0.20570  Biso   1.000  H
  C912     1.0000 0.31505  0.41393  0.24972  Biso   1.000  C
  C913     1.0000 0.25550  0.37100  0.25800  Biso   1.000  C
  H501     1.0000 0.23000  0.34510  0.22000  Biso   1.000  H
  H502     1.0000 0.30650  0.30720  0.09130  Biso   1.000  H
  C914     1.0000 0.35645  0.33278  0.07554  Biso   1.000  C
  C915     1.0000 0.38909  0.39266  0.09299  Biso   1.000  C
  H503     1.0000 0.36100  0.40720  0.12040  Biso   1.000  H
  H504     1.0000 0.93630  0.20700  0.74440  Biso   1.000  H
  C916     1.0000 0.89830  0.15680  0.73786  Biso   1.000  C
  C917     1.0000 0.88435  0.12165  0.78497  Biso   1.000  C
  H505     1.0000 0.91300  0.14840  0.82300  Biso   1.000  H
  H506     1.0000 0.97000  0.30240  0.76170  Biso   1.000  H
  C918     1.0000 0.00975  0.34999  0.74928  Biso   1.000  C
  C919     1.0000 0.06306  0.36592  0.77588  Biso   1.000  C
  H507     1.0000 0.05910  0.32970  0.80730  Biso   1.000  H
  H508     1.0000 0.33660  0.43150  0.25710  Biso   1.000  H
  C920     1.0000 0.28640  0.39879  0.26953  Biso   1.000  C
  H509     1.0000 0.23700  0.35850  0.27190  Biso   1.000  H
  H510     1.0000 0.35530  0.31410  0.06430  Biso   1.000  H
  C921     1.0000 0.38740  0.36479  0.07618  Biso   1.000  C
  H511     1.0000 0.40980  0.41410  0.09340  Biso   1.000  H
  H512     1.0000 0.89460  0.15890  0.71650  Biso   1.000  H
  C922     1.0000 0.87883  0.12477  0.75307  Biso   1.000  C
  H513     1.0000 0.87130  0.10020  0.79520  Biso   1.000  H
  H514     1.0000 0.99690  0.35530  0.73520  Biso   1.000  H
  C923     1.0000 0.04495  0.37372  0.75405  Biso   1.000  C
  H515     1.0000 0.08650  0.38170  0.77970  Biso   1.000  H
  C924     1.0000 0.28920  0.40922  0.30340  Biso   1.000  C
  C925     1.0000 0.41734  0.36944  0.05858  Biso   1.000  C
  C926     1.0000 0.84930  0.09160  0.73570  Biso   1.000  C
  C927     1.0000 0.06335  0.40728  0.73686  Biso   1.000  C
  O201     1.0000 0.26172  0.39828  0.31949  Biso   1.000  O
  O202     1.0000 0.31838  0.43059  0.31537  Biso   1.000  O
  O203     1.0000 0.44040  0.39996  0.04913  Biso   1.000  O
  O204     1.0000 0.42435  0.34655  0.05356  Biso   1.000  O
  O205     1.0000 0.83609  0.06411  0.74580  Biso   1.000  O
  O206     1.0000 0.84740  0.09960  0.70710  Biso   1.000  O
  In26     1.0000 0.28826  0.42828  0.36218  Biso   1.000  In
  O207     1.0000 0.32739  0.48453  0.37059  Biso   1.000  O
  O208     1.0000 0.28426  0.47223  0.33867  Biso   1.000  O
  C928     1.0000 0.30988  0.49401  0.35450  Biso   1.000  C
  C929     1.0000 0.31708  0.53093  0.35453  Biso   1.000  C
  C930     1.0000 0.29412  0.53890  0.33911  Biso   1.000  C
  C931     1.0000 0.34455  0.55639  0.37227  Biso   1.000  C
  H516     1.0000 0.27570  0.52180  0.32720  Biso   1.000  H
  C932     1.0000 0.29863  0.57234  0.34143  Biso   1.000  C
  C933     1.0000 0.34905  0.58981  0.37458  Biso   1.000  C
  H517     1.0000 0.35990  0.55100  0.38260  Biso   1.000  H
  H518     1.0000 0.28330  0.57770  0.33110  Biso   1.000  H
  C934     1.0000 0.32609  0.59779  0.35917  Biso   1.000  C
  H519     1.0000 0.36740  0.60680  0.38650  Biso   1.000  H
  C935     1.0000 0.33060  0.63420  0.36220  Biso   1.000  C
  C936     1.0000 0.30080  0.63760  0.36206  Biso   1.000  C
  H520     1.0000 0.27880  0.61780  0.36190  Biso   1.000  H
  In27     1.0000 0.70710  0.57238  0.37428  Biso   1.000  In
  O209     1.0000 0.74051  0.58260  0.41920  Biso   1.000  O
  O210     1.0000 0.76503  0.60853  0.37510  Biso   1.000  O
  O211     1.0000 0.66638  0.55481  0.33522  Biso   1.000  O
  O212     1.0000 0.71960  0.59308  0.32407  Biso   1.000  O
  O213     1.0000 0.67724  0.51611  0.39044  Biso   1.000  O
  O214     1.0000 0.72056  0.53215  0.35721  Biso   1.000  O
  O215     1.0000 0.70463  0.62212  0.38508  Biso   1.000  O
  O216     1.0000 0.66630  0.57173  0.40699  Biso   1.000  O
  C937     1.0000 0.76860  0.60324  0.40399  Biso   1.000  C
  C938     1.0000 0.68823  0.57365  0.31496  Biso   1.000  C
  C939     1.0000 0.69580  0.50761  0.37335  Biso   1.000  C
  C940     1.0000 0.80265  0.62000  0.41959  Biso   1.000  C
  C941     1.0000 0.67916  0.57401  0.28178  Biso   1.000  C
  C942     1.0000 0.68973  0.47179  0.37361  Biso   1.000  C
  C943     1.0000 0.83225  0.63862  0.40090  Biso   1.000  C
  C944     1.0000 0.80605  0.61830  0.45211  Biso   1.000  C
  C945     1.0000 0.64549  0.55190  0.27105  Biso   1.000  C
  C946     1.0000 0.70482  0.59601  0.26046  Biso   1.000  C
  C947     1.0000 0.66071  0.44565  0.38942  Biso   1.000  C
  C948     1.0000 0.71298  0.46363  0.35834  Biso   1.000  C
  H521     1.0000 0.82997  0.63973  0.37913  Biso   1.000  H
  C949     1.0000 0.86524  0.65554  0.41474  Biso   1.000  C
  C950     1.0000 0.83904  0.63522  0.46595  Biso   1.000  C
  H522     1.0000 0.78627  0.60583  0.46463  Biso   1.000  H
  H523     1.0000 0.62857  0.53653  0.28513  Biso   1.000  H
  C951     1.0000 0.63644  0.55211  0.23997  Biso   1.000  C
  C952     1.0000 0.69574  0.59593  0.22929  Biso   1.000  C
  H524     1.0000 0.72777  0.61053  0.26713  Biso   1.000  H
  H525     1.0000 0.64537  0.45083  0.39993  Biso   1.000  H
  C953     1.0000 0.65513  0.41256  0.38926  Biso   1.000  C
  C954     1.0000 0.70706  0.43030  0.35952  Biso   1.000  C
  H526     1.0000 0.73227  0.48083  0.34753  Biso   1.000  H
  H527     1.0000 0.88507  0.66803  0.40223  Biso   1.000  H
  C955     1.0000 0.86863  0.65383  0.44727  Biso   1.000  C
  H528     1.0000 0.84127  0.63403  0.48773  Biso   1.000  H
  H529     1.0000 0.61357  0.53753  0.23333  Biso   1.000  H
  C956     1.0000 0.66178  0.57434  0.21865  Biso   1.000  C
  H530     1.0000 0.71277  0.61073  0.21503  Biso   1.000  H
  H531     1.0000 0.63517  0.39513  0.39913  Biso   1.000  H
  C957     1.0000 0.67826  0.40343  0.37482  Biso   1.000  C
  H532     1.0000 0.72287  0.42523  0.34973  Biso   1.000  H
  C958     1.0000 0.90450  0.67100  0.46196  Biso   1.000  C
  C959     1.0000 0.65312  0.57598  0.18413  Biso   1.000  C
  C960     1.0000 0.67281  0.36763  0.37625  Biso   1.000  C
  C961     1.0000 0.90917  0.68413  0.49255  Biso   1.000  C
  C962     1.0000 0.93253  0.67242  0.44565  Biso   1.000  C
  C963     1.0000 0.62906  0.54576  0.16900  Biso   1.000  C
  C964     1.0000 0.66971  0.60747  0.16895  Biso   1.000  C
  C965     1.0000 0.70004  0.36103  0.37577  Biso   1.000  C
  H533     1.0000 0.89047  0.68323  0.50343  Biso   1.000  H
  C966     1.0000 0.94186  0.69864  0.50683  Biso   1.000  C
  C967     1.0000 0.96522  0.68693  0.45994  Biso   1.000  C
  H534     1.0000 0.92937  0.66363  0.42523  Biso   1.000  H
  H535     1.0000 0.61867  0.52443  0.17953  Biso   1.000  H
  C968     1.0000 0.62056  0.54772  0.13741  Biso   1.000  C
  C969     1.0000 0.66185  0.61001  0.13730  Biso   1.000  C
  H536     1.0000 0.68627  0.62723  0.17963  Biso   1.000  H
  H537     1.0000 0.72277  0.37983  0.37513  Biso   1.000  H
  C970     1.0000 0.96989  0.70005  0.49053  Biso   1.000  C
  C971     1.0000 0.94660  0.71076  0.54054  Biso   1.000  C
  C972     1.0000 0.99555  0.68983  0.44186  Biso   1.000  C
  C973     1.0000 0.63715  0.58001  0.12211  Biso   1.000  C
  C974     1.0000 0.59546  0.51584  0.11977  Biso   1.000  C
  C975     1.0000 0.67927  0.64408  0.12029  Biso   1.000  C
  H538     1.0000 0.99177  0.70983  0.50013  Biso   1.000  H
  C976     1.0000 0.97794  0.73596  0.55229  Biso   1.000  C
  C977     1.0000 0.91844  0.69530  0.56087  Biso   1.000  C
  C978     1.0000 0.99386  0.66196  0.42504  Biso   1.000  C
  C979     1.0000 0.02650  0.72185  0.44250  Biso   1.000  C
  H539     1.0000 0.63147  0.58143  0.10123  Biso   1.000  H
  C980     1.0000 0.58994  0.51896  0.08788  Biso   1.000  C
  C981     1.0000 0.57600  0.48385  0.13499  Biso   1.000  C
  C982     1.0000 0.66013  0.65170  0.09866  Biso   1.000  C
  C983     1.0000 0.71324  0.66780  0.12568  Biso   1.000  C
  H540     1.0000 0.99737  0.74583  0.53903  Biso   1.000  H
  C984     1.0000 0.98172  0.74726  0.58305  Biso   1.000  C
  C985     1.0000 0.92217  0.70433  0.59133  Biso   1.000  C
  H541     1.0000 0.89667  0.67843  0.55333  Biso   1.000  H
  H542     1.0000 0.97317  0.64053  0.42463  Biso   1.000  H
  C986     1.0000 0.02312  0.66611  0.40887  Biso   1.000  C
  C987     1.0000 0.05576  0.72599  0.42632  Biso   1.000  C
  H543     1.0000 0.02767  0.74053  0.45373  Biso   1.000  H
  H544     1.0000 0.60297  0.54033  0.07773  Biso   1.000  H
  C988     1.0000 0.56497  0.49013  0.07119  Biso   1.000  C
  C989     1.0000 0.55102  0.45498  0.11830  Biso   1.000  C
  H545     1.0000 0.57967  0.48173  0.15633  Biso   1.000  H
  H546     1.0000 0.63667  0.63573  0.09503  Biso   1.000  H
  C990     1.0000 0.67642  0.68332  0.08261  Biso   1.000  C
  C991     1.0000 0.72973  0.69925  0.10921  Biso   1.000  C
  H547     1.0000 0.72577  0.66303  0.14063  Biso   1.000  H
  H548     1.0000 0.00327  0.76483  0.59043  Biso   1.000  H
  C992     1.0000 0.95307  0.73212  0.60286  Biso   1.000  C
  H549     1.0000 0.90367  0.69183  0.60523  Biso   1.000  H
  H550     1.0000 0.02197  0.64743  0.39763  Biso   1.000  H
  C993     1.0000 0.05407  0.69812  0.40951  Biso   1.000  C
  H551     1.0000 0.07647  0.74743  0.42673  Biso   1.000  H
  H552     1.0000 0.56127  0.49223  0.04983  Biso   1.000  H
  C994     1.0000 0.54550  0.45810  0.08640  Biso   1.000  C
  H553     1.0000 0.53797  0.43353  0.12853  Biso   1.000  H
  H554     1.0000 0.66357  0.68863  0.06853  Biso   1.000  H
  C995     1.0000 0.71162  0.70705  0.08738  Biso   1.000  C
  H555     1.0000 0.75317  0.71503  0.11303  Biso   1.000  H
  C996     1.0000 0.95587  0.74255  0.63673  Biso   1.000  C
  C997     1.0000 0.08401  0.70277  0.39191  Biso   1.000  C
  C998     1.0000 0.51597  0.42493  0.06903  Biso   1.000  C
  C999     1.0000 0.73002  0.74061  0.07019  Biso   1.000  C
  O217     1.0000 0.92839  0.73161  0.65282  Biso   1.000  O
  O218     1.0000 0.98505  0.76392  0.64870  Biso   1.000  O
  O219     1.0000 0.10707  0.73329  0.38246  Biso   1.000  O
  O220     1.0000 0.09102  0.67988  0.38689  Biso   1.000  O
  O221     1.0000 0.50276  0.39744  0.07913  Biso   1.000  O
  O222     1.0000 0.51407  0.43293  0.04043  Biso   1.000  O
  In28     1.0000 0.95492  0.76161  0.69551  Biso   1.000  In
  O223     1.0000 0.99406  0.81786  0.70392  Biso   1.000  O
  O224     1.0000 0.95093  0.80556  0.67200  Biso   1.000  O
  C1000    1.0000 0.97655  0.82734  0.68783  Biso   1.000  C
  C1001    1.0000 0.98375  0.86426  0.68786  Biso   1.000  C
  C1002    1.0000 0.96079  0.87223  0.67244  Biso   1.000  C
  C1003    1.0000 0.01122  0.88972  0.70560  Biso   1.000  C
  H556     1.0000 0.94237  0.85513  0.66053  Biso   1.000  H
  C1004    1.0000 0.96530  0.90567  0.67476  Biso   1.000  C
  C1005    1.0000 0.01572  0.92314  0.70791  Biso   1.000  C
  H557     1.0000 0.02657  0.88433  0.71593  Biso   1.000  H
  H558     1.0000 0.94997  0.91103  0.66443  Biso   1.000  H
  C1006    1.0000 0.99276  0.93112  0.69250  Biso   1.000  C
  H559     1.0000 0.03407  0.94013  0.71983  Biso   1.000  H
  C1007    1.0000 0.99727  0.96753  0.69553  Biso   1.000  C
  C1008    1.0000 0.96747  0.97093  0.69539  Biso   1.000  C
  H560     1.0000 0.94547  0.95113  0.69523  Biso   1.000  H
  In29     1.0000 0.37376  0.90572  0.70761  Biso   1.000  In
  O225     1.0000 0.40717  0.91594  0.75254  Biso   1.000  O
  O226     1.0000 0.43169  0.94187  0.70844  Biso   1.000  O
  O227     1.0000 0.33304  0.88815  0.66856  Biso   1.000  O
  O228     1.0000 0.38626  0.92642  0.65741  Biso   1.000  O
  O229     1.0000 0.34390  0.84945  0.72378  Biso   1.000  O
  O230     1.0000 0.38722  0.86549  0.69055  Biso   1.000  O
  O231     1.0000 0.37129  0.95546  0.71842  Biso   1.000  O
  O232     1.0000 0.33296  0.90507  0.74033  Biso   1.000  O
  C1009    1.0000 0.43526  0.93658  0.73733  Biso   1.000  C
  C1010    1.0000 0.35489  0.90699  0.64830  Biso   1.000  C
  C1011    1.0000 0.36246  0.84095  0.70669  Biso   1.000  C
  C1012    1.0000 0.46931  0.95334  0.75293  Biso   1.000  C
  C1013    1.0000 0.34582  0.90735  0.61512  Biso   1.000  C
  C1014    1.0000 0.35639  0.80513  0.70695  Biso   1.000  C
  C1015    1.0000 0.49891  0.97196  0.73424  Biso   1.000  C
  C1016    1.0000 0.47271  0.95164  0.78545  Biso   1.000  C
  C1017    1.0000 0.31215  0.88524  0.60439  Biso   1.000  C
  C1018    1.0000 0.37148  0.92935  0.59380  Biso   1.000  C
  C1019    1.0000 0.32737  0.77899  0.72276  Biso   1.000  C
  C1020    1.0000 0.37964  0.79697  0.69168  Biso   1.000  C
  H561     1.0000 0.49663  0.97307  0.71247  Biso   1.000  H
  C1021    1.0000 0.53190  0.98888  0.74808  Biso   1.000  C
  C1022    1.0000 0.50570  0.96856  0.79929  Biso   1.000  C
  H562     1.0000 0.45293  0.93917  0.79797  Biso   1.000  H
  H563     1.0000 0.29523  0.86987  0.61847  Biso   1.000  H
  C1023    1.0000 0.30310  0.88545  0.57331  Biso   1.000  C
  C1024    1.0000 0.36240  0.92927  0.56263  Biso   1.000  C
  H564     1.0000 0.39443  0.94387  0.60047  Biso   1.000  H
  H565     1.0000 0.31203  0.78417  0.73327  Biso   1.000  H
  C1025    1.0000 0.32179  0.74590  0.72260  Biso   1.000  C
  C1026    1.0000 0.37372  0.76364  0.69286  Biso   1.000  C
  H566     1.0000 0.39893  0.81417  0.68087  Biso   1.000  H
  H567     1.0000 0.55173  0.00137  0.73557  Biso   1.000  H
  C1027    1.0000 0.53529  0.98717  0.78061  Biso   1.000  C
  H568     1.0000 0.50793  0.96737  0.82107  Biso   1.000  H
  H569     1.0000 0.28023  0.87087  0.56667  Biso   1.000  H
  C1028    1.0000 0.32844  0.90768  0.55199  Biso   1.000  C
  H570     1.0000 0.37943  0.94407  0.54837  Biso   1.000  H
  H571     1.0000 0.30183  0.72847  0.73247  Biso   1.000  H
  C1029    1.0000 0.34492  0.73677  0.70816  Biso   1.000  C
  H572     1.0000 0.38953  0.75857  0.68307  Biso   1.000  H
  C1030    1.0000 0.57116  0.00434  0.79530  Biso   1.000  C
  C1031    1.0000 0.31978  0.90932  0.51747  Biso   1.000  C
  C1032    1.0000 0.33947  0.70097  0.70959  Biso   1.000  C
  C1033    1.0000 0.57583  0.01747  0.82589  Biso   1.000  C
  C1034    1.0000 0.59919  0.00576  0.77899  Biso   1.000  C
  C1035    1.0000 0.29572  0.87910  0.50234  Biso   1.000  C
  C1036    1.0000 0.33637  0.94081  0.50229  Biso   1.000  C
  C1037    1.0000 0.36670  0.69437  0.70911  Biso   1.000  C
  H573     1.0000 0.55713  0.01657  0.83677  Biso   1.000  H
  C1038    1.0000 0.60852  0.03198  0.84017  Biso   1.000  C
  C1039    1.0000 0.63188  0.02027  0.79328  Biso   1.000  C
  H574     1.0000 0.59603  0.99697  0.75857  Biso   1.000  H
  H575     1.0000 0.28533  0.85777  0.51287  Biso   1.000  H
  C1040    1.0000 0.28722  0.88106  0.47075  Biso   1.000  C
  C1041    1.0000 0.32851  0.94335  0.47064  Biso   1.000  C
  H576     1.0000 0.35293  0.96057  0.51297  Biso   1.000  H
  H577     1.0000 0.38943  0.71317  0.70847  Biso   1.000  H
  C1042    1.0000 0.63655  0.03339  0.82387  Biso   1.000  C
  C1043    1.0000 0.61326  0.04410  0.87388  Biso   1.000  C
  C1044    1.0000 0.66221  0.02317  0.77520  Biso   1.000  C
  C1045    1.0000 0.30381  0.91335  0.45545  Biso   1.000  C
  C1046    1.0000 0.26212  0.84918  0.45311  Biso   1.000  C
  C1047    1.0000 0.34593  0.97742  0.45363  Biso   1.000  C
  H578     1.0000 0.65843  0.04317  0.83347  Biso   1.000  H
  C1048    1.0000 0.64460  0.06930  0.88563  Biso   1.000  C
  C1049    1.0000 0.58510  0.02864  0.89421  Biso   1.000  C
  C1050    1.0000 0.66052  0.99530  0.75838  Biso   1.000  C
  C1051    1.0000 0.69316  0.05519  0.77584  Biso   1.000  C
  H579     1.0000 0.29813  0.91477  0.43457  Biso   1.000  H
  C1052    1.0000 0.25660  0.85230  0.42122  Biso   1.000  C
  C1053    1.0000 0.24266  0.81719  0.46833  Biso   1.000  C
  C1054    1.0000 0.32679  0.98504  0.43200  Biso   1.000  C
  C1055    1.0000 0.37990  0.00114  0.45902  Biso   1.000  C
  H580     1.0000 0.66403  0.07917  0.87237  Biso   1.000  H
  C1056    1.0000 0.64838  0.08060  0.91639  Biso   1.000  C
  C1057    1.0000 0.58883  0.03767  0.92467  Biso   1.000  C
  H581     1.0000 0.56333  0.01177  0.88667  Biso   1.000  H
  H582     1.0000 0.63983  0.97387  0.75797  Biso   1.000  H
  C1058    1.0000 0.68978  0.99945  0.74221  Biso   1.000  C
  C1059    1.0000 0.72242  0.05933  0.75966  Biso   1.000  C
  H583     1.0000 0.69433  0.07387  0.78707  Biso   1.000  H
  H584     1.0000 0.26963  0.87367  0.41107  Biso   1.000  H
  C1060    1.0000 0.23163  0.82347  0.40453  Biso   1.000  C
  C1061    1.0000 0.21768  0.78832  0.45164  Biso   1.000  C
  H585     1.0000 0.24633  0.81507  0.48967  Biso   1.000  H
  H586     1.0000 0.30333  0.96907  0.42837  Biso   1.000  H
  C1062    1.0000 0.34308  0.01666  0.41595  Biso   1.000  C
  C1063    1.0000 0.39639  0.03259  0.44255  Biso   1.000  C
  H587     1.0000 0.39243  0.99637  0.47397  Biso   1.000  H
  H588     1.0000 0.66993  0.09817  0.92377  Biso   1.000  H
  C1064    1.0000 0.61973  0.06546  0.93620  Biso   1.000  C
  H589     1.0000 0.57033  0.02517  0.93857  Biso   1.000  H
  H590     1.0000 0.68863  0.98077  0.73097  Biso   1.000  H
  C1065    1.0000 0.72073  0.03146  0.74285  Biso   1.000  C
  H591     1.0000 0.74313  0.08077  0.76007  Biso   1.000  H
  H592     1.0000 0.22793  0.82557  0.38317  Biso   1.000  H
  C1066    1.0000 0.21216  0.79144  0.41974  Biso   1.000  C
  H593     1.0000 0.20463  0.76687  0.46187  Biso   1.000  H
  H594     1.0000 0.33023  0.02197  0.40187  Biso   1.000  H
  C1067    1.0000 0.37828  0.04039  0.42072  Biso   1.000  C
  H595     1.0000 0.41983  0.04837  0.44637  Biso   1.000  H
  C1068    1.0000 0.62253  0.07589  0.97007  Biso   1.000  C
  C1069    1.0000 0.75067  0.03611  0.72525  Biso   1.000  C
  C1070    1.0000 0.18263  0.75827  0.40237  Biso   1.000  C
  C1071    1.0000 0.39668  0.07395  0.40353  Biso   1.000  C
  O233     1.0000 0.59505  0.06495  0.98616  Biso   1.000  O
  O234     1.0000 0.65171  0.09726  0.98204  Biso   1.000  O
  O235     1.0000 0.77373  0.06663  0.71580  Biso   1.000  O
  O236     1.0000 0.75768  0.01322  0.72023  Biso   1.000  O
  O237     1.0000 0.16942  0.73078  0.41247  Biso   1.000  O
  O238     1.0000 0.18073  0.76627  0.37377  Biso   1.000  O
  In30     1.0000 0.62159  0.09495  0.02884  Biso   1.000  In
  O239     1.0000 0.66072  0.15120  0.03726  Biso   1.000  O
  O240     1.0000 0.61759  0.13890  0.00534  Biso   1.000  O
  C1072    1.0000 0.64321  0.16068  0.02117  Biso   1.000  C
  C1073    1.0000 0.65041  0.19760  0.02120  Biso   1.000  C
  C1074    1.0000 0.62745  0.20557  0.00578  Biso   1.000  C
  C1075    1.0000 0.67788  0.22306  0.03894  Biso   1.000  C
  H596     1.0000 0.60903  0.18847  0.99387  Biso   1.000  H
  C1076    1.0000 0.63196  0.23901  0.00810  Biso   1.000  C
  C1077    1.0000 0.68238  0.25648  0.04125  Biso   1.000  C
  H597     1.0000 0.69323  0.21767  0.04927  Biso   1.000  H
  H598     1.0000 0.61663  0.24437  0.99777  Biso   1.000  H
  C1078    1.0000 0.65942  0.26446  0.02584  Biso   1.000  C
  H599     1.0000 0.70073  0.27347  0.05317  Biso   1.000  H
  C1079    1.0000 0.66393  0.30087  0.02887  Biso   1.000  C
  C1080    1.0000 0.63413  0.30427  0.02873  Biso   1.000  C
  H600     1.0000 0.61213  0.28447  0.02857  Biso   1.000  H
  In31     1.0000 0.76095  0.80138  0.04095  Biso   1.000  In
  O241     1.0000 0.75073  0.82457  0.08587  Biso   1.000  O
  O242     1.0000 0.72480  0.82316  0.04177  Biso   1.000  O
  O243     1.0000 0.77852  0.77823  0.00189  Biso   1.000  O
  O244     1.0000 0.74025  0.79318  0.99074  Biso   1.000  O
  O245     1.0000 0.81722  0.82779  0.05711  Biso   1.000  O
  O246     1.0000 0.80118  0.85507  0.02388  Biso   1.000  O
  O247     1.0000 0.71121  0.74917  0.05175  Biso   1.000  O
  O248     1.0000 0.76160  0.76123  0.07366  Biso   1.000  O
  C1081    1.0000 0.73009  0.83202  0.07066  Biso   1.000  C
  C1082    1.0000 0.75968  0.78124  0.98163  Biso   1.000  C
  C1083    1.0000 0.82572  0.85485  0.04002  Biso   1.000  C
  C1084    1.0000 0.71333  0.84931  0.08626  Biso   1.000  C
  C1085    1.0000 0.75932  0.77181  0.94845  Biso   1.000  C
  C1086    1.0000 0.86154  0.88460  0.04028  Biso   1.000  C
  C1087    1.0000 0.69471  0.86029  0.06757  Biso   1.000  C
  C1088    1.0000 0.71503  0.85441  0.11878  Biso   1.000  C
  C1089    1.0000 0.78143  0.76025  0.93772  Biso   1.000  C
  C1090    1.0000 0.73732  0.77547  0.92713  Biso   1.000  C
  C1091    1.0000 0.88768  0.88172  0.05609  Biso   1.000  C
  C1092    1.0000 0.86970  0.91601  0.02501  Biso   1.000  C
  H601     1.0000 0.69360  0.85690  0.04580  Biso   1.000  H
  C1093    1.0000 0.67779  0.87636  0.08141  Biso   1.000  C
  C1094    1.0000 0.69811  0.87048  0.13262  Biso   1.000  C
  H602     1.0000 0.72750  0.84710  0.13130  Biso   1.000  H
  H603     1.0000 0.79680  0.75870  0.95180  Biso   1.000  H
  C1095    1.0000 0.78122  0.75099  0.90664  Biso   1.000  C
  C1096    1.0000 0.73740  0.76647  0.89596  Biso   1.000  C
  H604     1.0000 0.72280  0.78390  0.93380  Biso   1.000  H
  H605     1.0000 0.88250  0.86120  0.06660  Biso   1.000  H
  C1097    1.0000 0.92077  0.90923  0.05593  Biso   1.000  C
  C1098    1.0000 0.90303  0.94342  0.02619  Biso   1.000  C
  H606     1.0000 0.85250  0.91810  0.01420  Biso   1.000  H
  H607     1.0000 0.66530  0.88370  0.06890  Biso   1.000  H
  C1099    1.0000 0.67950  0.88146  0.11394  Biso   1.000  C
  H608     1.0000 0.69930  0.87390  0.15440  Biso   1.000  H
  H609     1.0000 0.79580  0.74270  0.90000  Biso   1.000  H
  C1100    1.0000 0.75899  0.75410  0.88532  Biso   1.000  C
  H610     1.0000 0.72260  0.76870  0.88170  Biso   1.000  H
  H611     1.0000 0.93820  0.90670  0.06580  Biso   1.000  H
  C1101    1.0000 0.92990  0.94149  0.04149  Biso   1.000  C
  H612     1.0000 0.90810  0.96430  0.01640  Biso   1.000  H
  C1102    1.0000 0.66233  0.90016  0.12863  Biso   1.000  C
  C1103    1.0000 0.75735  0.74380  0.85080  Biso   1.000  C
  C1104    1.0000 0.96570  0.97184  0.04292  Biso   1.000  C
  C1105    1.0000 0.64920  0.89170  0.15922  Biso   1.000  C
  C1106    1.0000 0.66091  0.92677  0.11232  Biso   1.000  C
  C1107    1.0000 0.78757  0.74996  0.83567  Biso   1.000  C
  C1108    1.0000 0.72586  0.72890  0.83562  Biso   1.000  C
  C1109    1.0000 0.97230  0.00567  0.04244  Biso   1.000  C
  H613     1.0000 0.65010  0.87390  0.17010  Biso   1.000  H
  C1110    1.0000 0.63469  0.90988  0.17350  Biso   1.000  C
  C1111    1.0000 0.64640  0.94495  0.12661  Biso   1.000  C
  H614     1.0000 0.66970  0.93240  0.09190  Biso   1.000  H
  H615     1.0000 0.80890  0.76090  0.84620  Biso   1.000  H
  C1112    1.0000 0.78561  0.73950  0.80408  Biso   1.000  C
  C1113    1.0000 0.72332  0.71850  0.80397  Biso   1.000  C
  H616     1.0000 0.70610  0.72570  0.84630  Biso   1.000  H
  H617     1.0000 0.95350  0.00960  0.04180  Biso   1.000  H
  C1114    1.0000 0.63328  0.93650  0.15720  Biso   1.000  C
  C1115    1.0000 0.62257  0.90250  0.20721  Biso   1.000  C
  C1116    1.0000 0.64350  0.97238  0.10853  Biso   1.000  C
  C1117    1.0000 0.75332  0.72380  0.78878  Biso   1.000  C
  C1118    1.0000 0.81749  0.74628  0.78644  Biso   1.000  C
  C1119    1.0000 0.68925  0.70185  0.78696  Biso   1.000  C
  H618     1.0000 0.62350  0.94860  0.16680  Biso   1.000  H
  C1120    1.0000 0.59737  0.90864  0.21896  Biso   1.000  C
  C1121    1.0000 0.63803  0.88980  0.22754  Biso   1.000  C
  C1122    1.0000 0.67137  0.99856  0.09171  Biso   1.000  C
  C1123    1.0000 0.61148  0.97131  0.10917  Biso   1.000  C
  H619     1.0000 0.75190  0.71670  0.76790  Biso   1.000  H
  C1124    1.0000 0.81437  0.73764  0.75455  Biso   1.000  C
  C1125    1.0000 0.84948  0.75881  0.80166  Biso   1.000  C
  C1126    1.0000 0.68163  0.67509  0.76533  Biso   1.000  C
  C1127    1.0000 0.66553  0.71210  0.79235  Biso   1.000  C
  H620     1.0000 0.58750  0.91820  0.20570  Biso   1.000  H
  C1128    1.0000 0.58607  0.90112  0.24972  Biso   1.000  C
  C1129    1.0000 0.62900  0.88450  0.25800  Biso   1.000  C
  H621     1.0000 0.65490  0.88490  0.22000  Biso   1.000  H
  H622     1.0000 0.69280  0.99930  0.09130  Biso   1.000  H
  C1130    1.0000 0.66722  0.02367  0.07554  Biso   1.000  C
  C1131    1.0000 0.60734  0.99643  0.09299  Biso   1.000  C
  H623     1.0000 0.59280  0.95380  0.12040  Biso   1.000  H
  H624     1.0000 0.79300  0.72930  0.74440  Biso   1.000  H
  C1132    1.0000 0.84320  0.74150  0.73786  Biso   1.000  C
  C1133    1.0000 0.87835  0.76270  0.78497  Biso   1.000  C
  H625     1.0000 0.85160  0.76460  0.82300  Biso   1.000  H
  H626     1.0000 0.69760  0.66760  0.76170  Biso   1.000  H
  C1134    1.0000 0.65001  0.65976  0.74928  Biso   1.000  C
  C1135    1.0000 0.63408  0.69714  0.77588  Biso   1.000  C
  H627     1.0000 0.67030  0.72940  0.80730  Biso   1.000  H
  H628     1.0000 0.56850  0.90510  0.25710  Biso   1.000  H
  C1136    1.0000 0.60121  0.88761  0.26953  Biso   1.000  C
  H629     1.0000 0.64150  0.87850  0.27190  Biso   1.000  H
  H630     1.0000 0.68590  0.04120  0.06430  Biso   1.000  H
  C1137    1.0000 0.63521  0.02261  0.07618  Biso   1.000  C
  H631     1.0000 0.58590  0.99570  0.09340  Biso   1.000  H
  H632     1.0000 0.84110  0.73570  0.71650  Biso   1.000  H
  C1138    1.0000 0.87523  0.75406  0.75307  Biso   1.000  C
  H633     1.0000 0.89980  0.77110  0.79520  Biso   1.000  H
  H634     1.0000 0.64470  0.64160  0.73520  Biso   1.000  H
  C1139    1.0000 0.62628  0.67123  0.75405  Biso   1.000  C
  H635     1.0000 0.61830  0.70480  0.77970  Biso   1.000  H
  C1140    1.0000 0.59078  0.87998  0.30340  Biso   1.000  C
  C1141    1.0000 0.63056  0.04790  0.05858  Biso   1.000  C
  C1142    1.0000 0.90840  0.75770  0.73570  Biso   1.000  C
  C1143    1.0000 0.59272  0.65607  0.73686  Biso   1.000  C
  O249     1.0000 0.60172  0.86344  0.31949  Biso   1.000  O
  O250     1.0000 0.56941  0.88779  0.31537  Biso   1.000  O
  O251     1.0000 0.60004  0.04044  0.04913  Biso   1.000  O
  O252     1.0000 0.65345  0.07780  0.05356  Biso   1.000  O
  O253     1.0000 0.93589  0.77198  0.74580  Biso   1.000  O
  O254     1.0000 0.90040  0.74780  0.70710  Biso   1.000  O
  In32     1.0000 0.57172  0.85998  0.36218  Biso   1.000  In
  O255     1.0000 0.51547  0.84286  0.37059  Biso   1.000  O
  O256     1.0000 0.52777  0.81203  0.33867  Biso   1.000  O
  C1144    1.0000 0.50599  0.81587  0.35450  Biso   1.000  C
  C1145    1.0000 0.46907  0.78615  0.35453  Biso   1.000  C
  C1146    1.0000 0.46110  0.75522  0.33911  Biso   1.000  C
  C1147    1.0000 0.44361  0.78816  0.37227  Biso   1.000  C
  H636     1.0000 0.47820  0.75390  0.32720  Biso   1.000  H
  C1148    1.0000 0.42766  0.72629  0.34143  Biso   1.000  C
  C1149    1.0000 0.41019  0.75924  0.37458  Biso   1.000  C
  H637     1.0000 0.44900  0.80890  0.38260  Biso   1.000  H
  H638     1.0000 0.42230  0.70560  0.33110  Biso   1.000  H
  C1150    1.0000 0.40221  0.72830  0.35917  Biso   1.000  C
  H639     1.0000 0.39320  0.76060  0.38650  Biso   1.000  H
  C1151    1.0000 0.36580  0.69640  0.36220  Biso   1.000  C
  C1152    1.0000 0.36240  0.66320  0.36206  Biso   1.000  C
  H640     1.0000 0.38220  0.66100  0.36190  Biso   1.000  H
  In33     1.0000 0.42762  0.13471  0.37428  Biso   1.000  In
  O257     1.0000 0.41740  0.15790  0.41920  Biso   1.000  O
  O258     1.0000 0.39147  0.15649  0.37510  Biso   1.000  O
  O259     1.0000 0.44519  0.11156  0.33522  Biso   1.000  O
  O260     1.0000 0.40692  0.12651  0.32407  Biso   1.000  O
  O261     1.0000 0.48389  0.16112  0.39044  Biso   1.000  O
  O262     1.0000 0.46785  0.18840  0.35721  Biso   1.000  O
  O263     1.0000 0.37788  0.08250  0.38508  Biso   1.000  O
  O264     1.0000 0.42827  0.09456  0.40699  Biso   1.000  O
  C1153    1.0000 0.39676  0.16535  0.40399  Biso   1.000  C
  C1154    1.0000 0.42635  0.11457  0.31496  Biso   1.000  C
  C1155    1.0000 0.49239  0.18818  0.37335  Biso   1.000  C
  C1156    1.0000 0.38000  0.18264  0.41959  Biso   1.000  C
  C1157    1.0000 0.42599  0.10514  0.28178  Biso   1.000  C
  C1158    1.0000 0.52821  0.21793  0.37361  Biso   1.000  C
  C1159    1.0000 0.36138  0.19362  0.40090  Biso   1.000  C
  C1160    1.0000 0.38170  0.18774  0.45211  Biso   1.000  C
  C1161    1.0000 0.44810  0.09358  0.27105  Biso   1.000  C
  C1162    1.0000 0.40399  0.10880  0.26046  Biso   1.000  C
  C1163    1.0000 0.55435  0.21505  0.38942  Biso   1.000  C
  C1164    1.0000 0.53637  0.24934  0.35834  Biso   1.000  C
  H641     1.0000 0.36027  0.19023  0.37913  Biso   1.000  H
  C1165    1.0000 0.34446  0.20969  0.41474  Biso   1.000  C
  C1166    1.0000 0.36478  0.20381  0.46595  Biso   1.000  C
  H642     1.0000 0.39417  0.18043  0.46463  Biso   1.000  H
  H643     1.0000 0.46347  0.09203  0.28513  Biso   1.000  H
  C1167    1.0000 0.44789  0.08432  0.23997  Biso   1.000  C
  C1168    1.0000 0.40407  0.09980  0.22929  Biso   1.000  C
  H644     1.0000 0.38947  0.11723  0.26713  Biso   1.000  H
  H645     1.0000 0.54917  0.19453  0.39993  Biso   1.000  H
  C1169    1.0000 0.58744  0.24256  0.38926  Biso   1.000  C
  C1170    1.0000 0.56970  0.27675  0.35952  Biso   1.000  C
  H646     1.0000 0.51917  0.25143  0.34753  Biso   1.000  H
  H647     1.0000 0.33197  0.21703  0.40223  Biso   1.000  H
  C1171    1.0000 0.34617  0.21479  0.44727  Biso   1.000  C
  H648     1.0000 0.36597  0.20723  0.48773  Biso   1.000  H
  H649     1.0000 0.46247  0.07603  0.23333  Biso   1.000  H
  C1172    1.0000 0.42566  0.08743  0.21865  Biso   1.000  C
  H650     1.0000 0.38927  0.10203  0.21503  Biso   1.000  H
  H651     1.0000 0.60487  0.24003  0.39913  Biso   1.000  H
  C1173    1.0000 0.59657  0.27482  0.37482  Biso   1.000  C
  H652     1.0000 0.57477  0.29763  0.34973  Biso   1.000  H
  C1174    1.0000 0.32900  0.23349  0.46196  Biso   1.000  C
  C1175    1.0000 0.42402  0.07713  0.18413  Biso   1.000  C
  C1176    1.0000 0.63237  0.30517  0.37625  Biso   1.000  C
  C1177    1.0000 0.31587  0.22503  0.49255  Biso   1.000  C
  C1178    1.0000 0.32758  0.26010  0.44565  Biso   1.000  C
  C1179    1.0000 0.45424  0.08329  0.16900  Biso   1.000  C
  C1180    1.0000 0.39253  0.06223  0.16895  Biso   1.000  C
  C1181    1.0000 0.63897  0.33900  0.37577  Biso   1.000  C
  H653     1.0000 0.31677  0.20723  0.50343  Biso   1.000  H
  C1182    1.0000 0.30136  0.24321  0.50683  Biso   1.000  C
  C1183    1.0000 0.31307  0.27828  0.45994  Biso   1.000  C
  H654     1.0000 0.33637  0.26573  0.42523  Biso   1.000  H
  H655     1.0000 0.47557  0.09423  0.17953  Biso   1.000  H
  C1184    1.0000 0.45228  0.07283  0.13741  Biso   1.000  C
  C1185    1.0000 0.38999  0.05183  0.13730  Biso   1.000  C
  H656     1.0000 0.37277  0.05903  0.17963  Biso   1.000  H
  H657     1.0000 0.62017  0.34293  0.37513  Biso   1.000  H
  C1186    1.0000 0.29995  0.26983  0.49053  Biso   1.000  C
  C1187    1.0000 0.28924  0.23583  0.54054  Biso   1.000  C
  C1188    1.0000 0.31017  0.30571  0.44186  Biso   1.000  C
  C1189    1.0000 0.41999  0.05713  0.12211  Biso   1.000  C
  C1190    1.0000 0.48416  0.07961  0.11977  Biso   1.000  C
  C1191    1.0000 0.35592  0.03518  0.12029  Biso   1.000  C
  H658     1.0000 0.29017  0.28193  0.50013  Biso   1.000  H
  C1192    1.0000 0.26404  0.24197  0.55229  Biso   1.000  C
  C1193    1.0000 0.30470  0.22313  0.56087  Biso   1.000  C
  C1194    1.0000 0.33804  0.33189  0.42504  Biso   1.000  C
  C1195    1.0000 0.27815  0.30464  0.44250  Biso   1.000  C
  H659     1.0000 0.41857  0.05003  0.10123  Biso   1.000  H
  C1196    1.0000 0.48104  0.07097  0.08788  Biso   1.000  C
  C1197    1.0000 0.51615  0.09214  0.13499  Biso   1.000  C
  C1198    1.0000 0.34830  0.00842  0.09866  Biso   1.000  C
  C1199    1.0000 0.33220  0.04543  0.12568  Biso   1.000  C
  H660     1.0000 0.25417  0.25153  0.53903  Biso   1.000  H
  C1200    1.0000 0.25274  0.23445  0.58305  Biso   1.000  C
  C1201    1.0000 0.29567  0.21783  0.59133  Biso   1.000  C
  H661     1.0000 0.32157  0.21823  0.55333  Biso   1.000  H
  H662     1.0000 0.35947  0.33263  0.42463  Biso   1.000  H
  C1202    1.0000 0.33389  0.35700  0.40887  Biso   1.000  C
  C1203    1.0000 0.27401  0.32976  0.42632  Biso   1.000  C
  H663     1.0000 0.25947  0.28713  0.45373  Biso   1.000  H
  H664     1.0000 0.45967  0.06263  0.07773  Biso   1.000  H
  C1204    1.0000 0.50987  0.07483  0.07119  Biso   1.000  C
  C1205    1.0000 0.54502  0.09603  0.11830  Biso   1.000  C
  H665     1.0000 0.51827  0.09793  0.15633  Biso   1.000  H
  H666     1.0000 0.36427  0.00093  0.09503  Biso   1.000  H
  C1206    1.0000 0.31668  0.99309  0.08261  Biso   1.000  C
  C1207    1.0000 0.30075  0.03047  0.10921  Biso   1.000  C
  H667     1.0000 0.33697  0.06273  0.14063  Biso   1.000  H
  H668     1.0000 0.23517  0.23843  0.59043  Biso   1.000  H
  C1208    1.0000 0.26788  0.22094  0.60286  Biso   1.000  C
  H669     1.0000 0.30817  0.21183  0.60523  Biso   1.000  H
  H670     1.0000 0.35257  0.37453  0.39763  Biso   1.000  H
  C1209    1.0000 0.30188  0.35594  0.40951  Biso   1.000  C
  H671     1.0000 0.25257  0.32903  0.42673  Biso   1.000  H
  H672     1.0000 0.50777  0.06903  0.04983  Biso   1.000  H
  C1210    1.0000 0.54190  0.08739  0.08640  Biso   1.000  C
  H673     1.0000 0.56647  0.10443  0.12853  Biso   1.000  H
  H674     1.0000 0.31137  0.97493  0.06853  Biso   1.000  H
  C1211    1.0000 0.29295  0.00456  0.08738  Biso   1.000  C
  H675     1.0000 0.28497  0.03813  0.11303  Biso   1.000  H
  C1212    1.0000 0.25745  0.21331  0.63673  Biso   1.000  C
  C1213    1.0000 0.29723  0.38123  0.39191  Biso   1.000  C
  C1214    1.0000 0.57507  0.09103  0.06903  Biso   1.000  C
  C1215    1.0000 0.25939  0.98940  0.07019  Biso   1.000  C
  O265     1.0000 0.26839  0.19677  0.65282  Biso   1.000  O
  O266     1.0000 0.23608  0.22112  0.64870  Biso   1.000  O
  O267     1.0000 0.26671  0.37377  0.38246  Biso   1.000  O
  O268     1.0000 0.32012  0.41113  0.38689  Biso   1.000  O
  O269     1.0000 0.60256  0.10531  0.07913  Biso   1.000  O
  O270     1.0000 0.56707  0.08113  0.04043  Biso   1.000  O
  In34     1.0000 0.23839  0.19331  0.69551  Biso   1.000  In
  O271     1.0000 0.18214  0.17619  0.70392  Biso   1.000  O
  O272     1.0000 0.19444  0.14536  0.67200  Biso   1.000  O
  C1216    1.0000 0.17266  0.14920  0.68783  Biso   1.000  C
  C1217    1.0000 0.13574  0.11948  0.68786  Biso   1.000  C
  C1218    1.0000 0.12777  0.08855  0.67244  Biso   1.000  C
  C1219    1.0000 0.11028  0.12149  0.70560  Biso   1.000  C
  H676     1.0000 0.14487  0.08723  0.66053  Biso   1.000  H
  C1220    1.0000 0.09433  0.05962  0.67476  Biso   1.000  C
  C1221    1.0000 0.07686  0.09257  0.70791  Biso   1.000  C
  H677     1.0000 0.11567  0.14223  0.71593  Biso   1.000  H
  H678     1.0000 0.08897  0.03893  0.66443  Biso   1.000  H
  C1222    1.0000 0.06888  0.06163  0.69250  Biso   1.000  C
  H679     1.0000 0.05987  0.09393  0.71983  Biso   1.000  H
  C1223    1.0000 0.03247  0.02973  0.69553  Biso   1.000  C
  C1224    1.0000 0.02907  0.99653  0.69539  Biso   1.000  C
  H680     1.0000 0.04887  0.99433  0.69523  Biso   1.000  H
  In35     1.0000 0.09428  0.46805  0.70761  Biso   1.000  In
  O273     1.0000 0.08406  0.49124  0.75254  Biso   1.000  O
  O274     1.0000 0.05813  0.48983  0.70844  Biso   1.000  O
  O275     1.0000 0.11185  0.44490  0.66856  Biso   1.000  O
  O276     1.0000 0.07358  0.45985  0.65741  Biso   1.000  O
  O277     1.0000 0.15055  0.49446  0.72378  Biso   1.000  O
  O278     1.0000 0.13451  0.52174  0.69055  Biso   1.000  O
  O279     1.0000 0.04454  0.41584  0.71842  Biso   1.000  O
  O280     1.0000 0.09493  0.42790  0.74033  Biso   1.000  O
  C1225    1.0000 0.06342  0.49869  0.73733  Biso   1.000  C
  C1226    1.0000 0.09301  0.44791  0.64830  Biso   1.000  C
  C1227    1.0000 0.15905  0.52152  0.70669  Biso   1.000  C
  C1228    1.0000 0.04666  0.51598  0.75293  Biso   1.000  C
  C1229    1.0000 0.09265  0.43848  0.61512  Biso   1.000  C
  C1230    1.0000 0.19487  0.55127  0.70695  Biso   1.000  C
  C1231    1.0000 0.02804  0.52696  0.73424  Biso   1.000  C
  C1232    1.0000 0.04836  0.52108  0.78545  Biso   1.000  C
  C1233    1.0000 0.11476  0.42692  0.60439  Biso   1.000  C
  C1234    1.0000 0.07065  0.44214  0.59380  Biso   1.000  C
  C1235    1.0000 0.22101  0.54839  0.72276  Biso   1.000  C
  C1236    1.0000 0.20303  0.58268  0.69168  Biso   1.000  C
  H681     1.0000 0.02693  0.52357  0.71247  Biso   1.000  H
  C1237    1.0000 0.01112  0.54303  0.74808  Biso   1.000  C
  C1238    1.0000 0.03144  0.53715  0.79929  Biso   1.000  C
  H682     1.0000 0.06083  0.51377  0.79797  Biso   1.000  H
  H683     1.0000 0.13013  0.42537  0.61847  Biso   1.000  H
  C1239    1.0000 0.11455  0.41766  0.57331  Biso   1.000  C
  C1240    1.0000 0.07073  0.43314  0.56263  Biso   1.000  C
  H684     1.0000 0.05613  0.45057  0.60047  Biso   1.000  H
  H685     1.0000 0.21583  0.52787  0.73327  Biso   1.000  H
  C1241    1.0000 0.25410  0.57590  0.72260  Biso   1.000  C
  C1242    1.0000 0.23636  0.61009  0.69286  Biso   1.000  C
  H686     1.0000 0.18583  0.58477  0.68087  Biso   1.000  H
  H687     1.0000 0.99863  0.55037  0.73557  Biso   1.000  H
  C1243    1.0000 0.01283  0.54813  0.78061  Biso   1.000  C
  H688     1.0000 0.03263  0.54057  0.82107  Biso   1.000  H
  H689     1.0000 0.12913  0.40937  0.56667  Biso   1.000  H
  C1244    1.0000 0.09232  0.42077  0.55199  Biso   1.000  C
  H690     1.0000 0.05593  0.43537  0.54837  Biso   1.000  H
  H691     1.0000 0.27153  0.57337  0.73247  Biso   1.000  H
  C1245    1.0000 0.26323  0.60816  0.70816  Biso   1.000  C
  H692     1.0000 0.24143  0.63097  0.68307  Biso   1.000  H
  C1246    1.0000 0.99566  0.56683  0.79530  Biso   1.000  C
  C1247    1.0000 0.09068  0.41047  0.51747  Biso   1.000  C
  C1248    1.0000 0.29903  0.63851  0.70959  Biso   1.000  C
  C1249    1.0000 0.98253  0.55837  0.82589  Biso   1.000  C
  C1250    1.0000 0.99424  0.59344  0.77899  Biso   1.000  C
  C1251    1.0000 0.12090  0.41663  0.50234  Biso   1.000  C
  C1252    1.0000 0.05919  0.39557  0.50229  Biso   1.000  C
  C1253    1.0000 0.30563  0.67234  0.70911  Biso   1.000  C
  H693     1.0000 0.98343  0.54057  0.83677  Biso   1.000  H
  C1254    1.0000 0.96802  0.57655  0.84017  Biso   1.000  C
  C1255    1.0000 0.97973  0.61162  0.79328  Biso   1.000  C
  H694     1.0000 0.00303  0.59907  0.75857  Biso   1.000  H
  H695     1.0000 0.14223  0.42757  0.51287  Biso   1.000  H
  C1256    1.0000 0.11894  0.40617  0.47075  Biso   1.000  C
  C1257    1.0000 0.05665  0.38517  0.47064  Biso   1.000  C
  H696     1.0000 0.03943  0.39237  0.51297  Biso   1.000  H
  H697     1.0000 0.28683  0.67627  0.70847  Biso   1.000  H
  C1258    1.0000 0.96661  0.60317  0.82387  Biso   1.000  C
  C1259    1.0000 0.95590  0.56917  0.87388  Biso   1.000  C
  C1260    1.0000 0.97683  0.63905  0.77520  Biso   1.000  C
  C1261    1.0000 0.08665  0.39047  0.45545  Biso   1.000  C
  C1262    1.0000 0.15082  0.41295  0.45311  Biso   1.000  C
  C1263    1.0000 0.02258  0.36852  0.45363  Biso   1.000  C
  H698     1.0000 0.95683  0.61527  0.83347  Biso   1.000  H
  C1264    1.0000 0.93070  0.57531  0.88563  Biso   1.000  C
  C1265    1.0000 0.97136  0.55647  0.89421  Biso   1.000  C
  C1266    1.0000 0.00470  0.66523  0.75838  Biso   1.000  C
  C1267    1.0000 0.94481  0.63798  0.77584  Biso   1.000  C
  H699     1.0000 0.08523  0.38337  0.43457  Biso   1.000  H
  C1268    1.0000 0.14770  0.40431  0.42122  Biso   1.000  C
  C1269    1.0000 0.18281  0.42548  0.46833  Biso   1.000  C
  C1270    1.0000 0.01496  0.34176  0.43200  Biso   1.000  C
  C1271    1.0000 0.99886  0.37877  0.45902  Biso   1.000  C
  H700     1.0000 0.92083  0.58487  0.87237  Biso   1.000  H
  C1272    1.0000 0.91940  0.56779  0.91639  Biso   1.000  C
  C1273    1.0000 0.96233  0.55117  0.92467  Biso   1.000  C
  H701     1.0000 0.98823  0.55157  0.88667  Biso   1.000  H
  H702     1.0000 0.02613  0.66597  0.75797  Biso   1.000  H
  C1274    1.0000 0.00055  0.69034  0.74221  Biso   1.000  C
  C1275    1.0000 0.94067  0.66310  0.75966  Biso   1.000  C
  H703     1.0000 0.92613  0.62047  0.78707  Biso   1.000  H
  H704     1.0000 0.12633  0.39597  0.41107  Biso   1.000  H
  C1276    1.0000 0.17653  0.40817  0.40453  Biso   1.000  C
  C1277    1.0000 0.21168  0.42937  0.45164  Biso   1.000  C
  H705     1.0000 0.18493  0.43127  0.48967  Biso   1.000  H
  H706     1.0000 0.03093  0.33427  0.42837  Biso   1.000  H
  C1278    1.0000 0.98334  0.32643  0.41595  Biso   1.000  C
  C1279    1.0000 0.96741  0.36381  0.44255  Biso   1.000  C
  H707     1.0000 0.00363  0.39607  0.47397  Biso   1.000  H
  H708     1.0000 0.90183  0.57177  0.92377  Biso   1.000  H
  C1280    1.0000 0.93454  0.55428  0.93620  Biso   1.000  C
  H709     1.0000 0.97483  0.54517  0.93857  Biso   1.000  H
  H710     1.0000 0.01923  0.70787  0.73097  Biso   1.000  H
  C1281    1.0000 0.96854  0.68928  0.74285  Biso   1.000  C
  H711     1.0000 0.91923  0.66237  0.76007  Biso   1.000  H
  H712     1.0000 0.17443  0.40237  0.38317  Biso   1.000  H
  C1282    1.0000 0.20856  0.42073  0.41974  Biso   1.000  C
  H713     1.0000 0.23313  0.43777  0.46187  Biso   1.000  H
  H714     1.0000 0.97803  0.30827  0.40187  Biso   1.000  H
  C1283    1.0000 0.95961  0.33790  0.42072  Biso   1.000  C
  H715     1.0000 0.95163  0.37147  0.44637  Biso   1.000  H
  C1284    1.0000 0.92411  0.54665  0.97007  Biso   1.000  C
  C1285    1.0000 0.96389  0.71457  0.72525  Biso   1.000  C
  C1286    1.0000 0.24173  0.42437  0.40237  Biso   1.000  C
  C1287    1.0000 0.92605  0.32274  0.40353  Biso   1.000  C
  O281     1.0000 0.93505  0.53011  0.98616  Biso   1.000  O
  O282     1.0000 0.90274  0.55446  0.98204  Biso   1.000  O
  O283     1.0000 0.93337  0.70711  0.71580  Biso   1.000  O
  O284     1.0000 0.98678  0.74447  0.72023  Biso   1.000  O
  O285     1.0000 0.26922  0.43865  0.41247  Biso   1.000  O
  O286     1.0000 0.23373  0.41447  0.37377  Biso   1.000  O
  In36     1.0000 0.90505  0.52664  0.02884  Biso   1.000  In
  O287     1.0000 0.84880  0.50953  0.03726  Biso   1.000  O
  O288     1.0000 0.86110  0.47870  0.00534  Biso   1.000  O
  C1288    1.0000 0.83932  0.48254  0.02117  Biso   1.000  C
  C1289    1.0000 0.80240  0.45282  0.02120  Biso   1.000  C
  C1290    1.0000 0.79443  0.42189  0.00578  Biso   1.000  C
  C1291    1.0000 0.77694  0.45483  0.03894  Biso   1.000  C
  H716     1.0000 0.81153  0.42057  0.99387  Biso   1.000  H
  C1292    1.0000 0.76099  0.39296  0.00810  Biso   1.000  C
  C1293    1.0000 0.74352  0.42591  0.04125  Biso   1.000  C
  H717     1.0000 0.78233  0.47557  0.04927  Biso   1.000  H
  H718     1.0000 0.75563  0.37227  0.99777  Biso   1.000  H
  C1294    1.0000 0.73554  0.39497  0.02584  Biso   1.000  C
  H719     1.0000 0.72653  0.42727  0.05317  Biso   1.000  H
  C1295    1.0000 0.69913  0.36307  0.02887  Biso   1.000  C
  C1296    1.0000 0.69573  0.32987  0.02873  Biso   1.000  C
  H720     1.0000 0.71553  0.32767  0.02857  Biso   1.000  H
