data_image0
_cell_length_a       30.0954
_cell_length_b       15.5048
_cell_length_c       35.4843
_cell_angle_alpha    90
_cell_angle_beta     107.185
_cell_angle_gamma    90

_symmetry_space_group_name_H-M    "P 1"
_symmetry_int_tables_number       1

loop_
  _symmetry_equiv_pos_as_xyz
  'x, y, z'

loop_
  _atom_site_label
  _atom_site_occupancy
  _atom_site_fract_x
  _atom_site_fract_y
  _atom_site_fract_z
  _atom_site_thermal_displace_type
  _atom_site_B_iso_or_equiv
  _atom_site_type_symbol
  Ag1      1.0000 0.76823  0.46331  0.02672  Biso   1.000  Ag
  Ag2      1.0000 0.01351  0.21643  0.01019  Biso   1.000  Ag
  Ag3      1.0000 0.27057  0.48875  0.27237  Biso   1.000  Ag
  O1       1.0000 0.80030  0.64030  0.00977  Biso   1.000  O
  O2       1.0000 0.77100  0.97820  0.90634  Biso   1.000  O
  O3       1.0000 0.91836  0.03920  0.00496  Biso   1.000  O
  O4       1.0000 0.07450  0.34710  0.01880  Biso   1.000  O
  O5       1.0000 0.20960  0.73170  0.06755  Biso   1.000  O
  O6       1.0000 0.23430  0.33980  0.11451  Biso   1.000  O
  N1       1.0000 0.81410  0.41840  0.08135  Biso   1.000  N
  N2       1.0000 0.85590  0.68400  0.06352  Biso   1.000  N
  H1       1.0000 0.87800  0.72150  0.07410  Biso   1.000  H
  N3       1.0000 0.70550  0.94040  0.75860  Biso   1.000  N
  N4       1.0000 0.75490  0.83990  0.88770  Biso   1.000  N
  H2       1.0000 0.76210  0.78570  0.89390  Biso   1.000  H
  N5       1.0000 0.06210  0.16260  0.06466  Biso   1.000  N
  N6       1.0000 0.94940  0.94990  0.05555  Biso   1.000  N
  H3       1.0000 0.94890  0.89890  0.06630  Biso   1.000  H
  N7       1.0000 0.96080  0.23580  0.95235  Biso   1.000  N
  N8       1.0000 0.04850  0.46190  0.98007  Biso   1.000  N
  H4       1.0000 0.05430  0.51340  0.97210  Biso   1.000  H
  N9       1.0000 0.21670  0.98150  0.97108  Biso   1.000  N
  N10      1.0000 0.15920  0.72680  0.00640  Biso   1.000  N
  H5       1.0000 0.14100  0.69340  0.98820  Biso   1.000  H
  N11      1.0000 0.33910  0.44520  0.27185  Biso   1.000  N
  N12      1.0000 0.25570  0.46560  0.14610  Biso   1.000  N
  H6       1.0000 0.25130  0.52170  0.14600  Biso   1.000  H
  C1       1.0000 0.79870  0.35290  0.09910  Biso   1.000  C
  H7       1.0000 0.77030  0.32560  0.08540  Biso   1.000  H
  C2       1.0000 0.82240  0.32360  0.13630  Biso   1.000  C
  H8       1.0000 0.81120  0.27560  0.14750  Biso   1.000  H
  C3       1.0000 0.86240  0.36540  0.15690  Biso   1.000  C
  H9       1.0000 0.87880  0.34820  0.18300  Biso   1.000  H
  C4       1.0000 0.87840  0.43220  0.13930  Biso   1.000  C
  H10      1.0000 0.90590  0.46190  0.15320  Biso   1.000  H
  C5       1.0000 0.85410  0.45680  0.10090  Biso   1.000  C
  C6       1.0000 0.87010  0.52980  0.08020  Biso   1.000  C
  H11      1.0000 0.86160  0.51780  0.05150  Biso   1.000  H
  H12      1.0000 0.90440  0.53520  0.09020  Biso   1.000  H
  C7       1.0000 0.84760  0.61290  0.08730  Biso   1.000  C
  H13      1.0000 0.81370  0.60380  0.08130  Biso   1.000  H
  H14      1.0000 0.85990  0.62850  0.11560  Biso   1.000  H
  C8       1.0000 0.83070  0.69310  0.02610  Biso   1.000  C
  C9       1.0000 0.83980  0.77240  0.00490  Biso   1.000  C
  C10      1.0000 0.87620  0.82740  0.02130  Biso   1.000  C
  H15      1.0000 0.89870  0.81190  0.04530  Biso   1.000  H
  C11      1.0000 0.67140  0.96560  0.72630  Biso   1.000  C
  H16      1.0000 0.67630  0.01510  0.71220  Biso   1.000  H
  C12      1.0000 0.63000  0.92190  0.71310  Biso   1.000  C
  H17      1.0000 0.60630  0.94150  0.69060  Biso   1.000  H
  C13      1.0000 0.62350  0.85040  0.73290  Biso   1.000  C
  H18      1.0000 0.59510  0.81900  0.72420  Biso   1.000  H
  C14      1.0000 0.65870  0.82310  0.76620  Biso   1.000  C
  H19      1.0000 0.65470  0.77290  0.78020  Biso   1.000  H
  C15      1.0000 0.69900  0.86980  0.77840  Biso   1.000  C
  C16      1.0000 0.73650  0.84580  0.81490  Biso   1.000  C
  H20      1.0000 0.76420  0.88230  0.81750  Biso   1.000  H
  H21      1.0000 0.74560  0.78480  0.81330  Biso   1.000  H
  C17      1.0000 0.71920  0.85820  0.85080  Biso   1.000  C
  H22      1.0000 0.70840  0.91840  0.85130  Biso   1.000  H
  H23      1.0000 0.69230  0.81970  0.84850  Biso   1.000  H
  C18      1.0000 0.77750  0.90070  0.91260  Biso   1.000  C
  C19      1.0000 0.81170  0.87070  0.95050  Biso   1.000  C
  C20      1.0000 0.80790  0.79330  0.96920  Biso   1.000  C
  H24      1.0000 0.78310  0.75470  0.95740  Biso   1.000  H
  C21      1.0000 0.09560  0.21560  0.08660  Biso   1.000  C
  H25      1.0000 0.09660  0.27370  0.07840  Biso   1.000  H
  C22      1.0000 0.12780  0.18840  0.11960  Biso   1.000  C
  H26      1.0000 0.15090  0.22730  0.13420  Biso   1.000  H
  C23      1.0000 0.12750  0.10600  0.13220  Biso   1.000  C
  H27      1.0000 0.15020  0.08640  0.15530  Biso   1.000  H
  C24      1.0000 0.09360  0.05160  0.11050  Biso   1.000  C
  H28      1.0000 0.09260  0.99340  0.11860  Biso   1.000  H
  C25      1.0000 0.06090  0.08120  0.07690  Biso   1.000  C
  C26      1.0000 0.02190  0.02400  0.05420  Biso   1.000  C
  H29      1.0000 0.03460  0.96670  0.05070  Biso   1.000  H
  H30      1.0000 0.00770  0.04900  0.02770  Biso   1.000  H
  C27      1.0000 0.98470  0.01310  0.07480  Biso   1.000  C
  H31      1.0000 0.99960  0.99490  0.10240  Biso   1.000  H
  H32      1.0000 0.96950  0.06950  0.07540  Biso   1.000  H
  C28      1.0000 0.91830  0.96970  0.02180  Biso   1.000  C
  C29      1.0000 0.88040  0.90470  0.00350  Biso   1.000  C
  C30      1.0000 0.84740  0.92660  0.96820  Biso   1.000  C
  H33      1.0000 0.84940  0.98050  0.95610  Biso   1.000  H
  C31      1.0000 0.92070  0.19200  0.94560  Biso   1.000  C
  H34      1.0000 0.91720  0.15360  0.96540  Biso   1.000  H
  C32      1.0000 0.88440  0.20000  0.91140  Biso   1.000  C
  H35      1.0000 0.85710  0.16600  0.90710  Biso   1.000  H
  C33      1.0000 0.88870  0.25750  0.88380  Biso   1.000  C
  H36      1.0000 0.86390  0.26600  0.86030  Biso   1.000  H
  C34      1.0000 0.93000  0.30420  0.89050  Biso   1.000  C
  H37      1.0000 0.93370  0.34400  0.87130  Biso   1.000  H
  C35      1.0000 0.96510  0.29280  0.92460  Biso   1.000  C
  C36      1.0000 0.00920  0.34490  0.93460  Biso   1.000  C
  H38      1.0000 0.01440  0.36740  0.91020  Biso   1.000  H
  H39      1.0000 0.03600  0.30820  0.94830  Biso   1.000  H
  C37      1.0000 0.00470  0.41980  0.96130  Biso   1.000  C
  H40      1.0000 0.98270  0.46270  0.94540  Biso   1.000  H
  H41      1.0000 0.99150  0.39780  0.98190  Biso   1.000  H
  C38      1.0000 0.08030  0.42240  0.00960  Biso   1.000  C
  C39      1.0000 0.12350  0.47120  0.03160  Biso   1.000  C
  C40      1.0000 0.13060  0.55750  0.02500  Biso   1.000  C
  H42      1.0000 0.10760  0.58860  0.00560  Biso   1.000  H
  C41      1.0000 0.21090  0.06050  0.95360  Biso   1.000  C
  H43      1.0000 0.23040  0.10630  0.96660  Biso   1.000  H
  C42      1.0000 0.17900  0.07730  0.91890  Biso   1.000  C
  H44      1.0000 0.17600  0.13360  0.90790  Biso   1.000  H
  C43      1.0000 0.15050  0.01090  0.89950  Biso   1.000  C
  H45      1.0000 0.12770  0.02090  0.87490  Biso   1.000  H
  C44      1.0000 0.15580  0.93050  0.91630  Biso   1.000  C
  H46      1.0000 0.13640  0.88430  0.90350  Biso   1.000  H
  C45      1.0000 0.18940  0.91670  0.95210  Biso   1.000  C
  C46      1.0000 0.19460  0.82790  0.97050  Biso   1.000  C
  H47      1.0000 0.22730  0.81890  0.98640  Biso   1.000  H
  H48      1.0000 0.18670  0.78370  0.94940  Biso   1.000  H
  C47      1.0000 0.16300  0.81770  0.99650  Biso   1.000  C
  H49      1.0000 0.17570  0.85140  0.02110  Biso   1.000  H
  H50      1.0000 0.13180  0.84070  0.98260  Biso   1.000  H
  C48      1.0000 0.18150  0.69150  0.04100  Biso   1.000  C
  C49      1.0000 0.17130  0.59880  0.04650  Biso   1.000  C
  C50      1.0000 0.20370  0.55300  0.07500  Biso   1.000  C
  H51      1.0000 0.23180  0.58050  0.08950  Biso   1.000  H
  C51      1.0000 0.36780  0.40790  0.30410  Biso   1.000  C
  H52      1.0000 0.35700  0.39960  0.32640  Biso   1.000  H
  C52      1.0000 0.41170  0.38140  0.30630  Biso   1.000  C
  H53      1.0000 0.43140  0.35670  0.32980  Biso   1.000  H
  C53      1.0000 0.42700  0.39160  0.27290  Biso   1.000  C
  H54      1.0000 0.45690  0.37190  0.27290  Biso   1.000  H
  C54      1.0000 0.39830  0.42990  0.24050  Biso   1.000  C
  H55      1.0000 0.40830  0.43840  0.21780  Biso   1.000  H
  C55      1.0000 0.35420  0.45700  0.24050  Biso   1.000  C
  C56      1.0000 0.32120  0.49650  0.20420  Biso   1.000  C
  H56      1.0000 0.33910  0.52610  0.18860  Biso   1.000  H
  H57      1.0000 0.30150  0.53990  0.21210  Biso   1.000  H
  C57      1.0000 0.29060  0.42670  0.17920  Biso   1.000  C
  H58      1.0000 0.31010  0.38640  0.16930  Biso   1.000  H
  H59      1.0000 0.27510  0.39350  0.19560  Biso   1.000  H
  C58      1.0000 0.23020  0.41860  0.11570  Biso   1.000  C
  C59      1.0000 0.19640  0.46770  0.08300  Biso   1.000  C
  C60      1.0000 0.15630  0.42680  0.06040  Biso   1.000  C
  H60      1.0000 0.15160  0.36750  0.06470  Biso   1.000  H
  Ag4      1.0000 0.26823  0.96331  0.02672  Biso   1.000  Ag
  Ag5      1.0000 0.51351  0.71643  0.01019  Biso   1.000  Ag
  Ag6      1.0000 0.77057  0.98875  0.27237  Biso   1.000  Ag
  O7       1.0000 0.30030  0.14030  0.00977  Biso   1.000  O
  O8       1.0000 0.27100  0.47820  0.90634  Biso   1.000  O
  O9       1.0000 0.41836  0.53920  0.00496  Biso   1.000  O
  O10      1.0000 0.57450  0.84710  0.01880  Biso   1.000  O
  O11      1.0000 0.70960  0.23170  0.06755  Biso   1.000  O
  O12      1.0000 0.73430  0.83980  0.11451  Biso   1.000  O
  N13      1.0000 0.31410  0.91840  0.08135  Biso   1.000  N
  N14      1.0000 0.35590  0.18400  0.06352  Biso   1.000  N
  H61      1.0000 0.37800  0.22150  0.07410  Biso   1.000  H
  N15      1.0000 0.20550  0.44040  0.75860  Biso   1.000  N
  N16      1.0000 0.25490  0.33990  0.88770  Biso   1.000  N
  H62      1.0000 0.26210  0.28570  0.89390  Biso   1.000  H
  N17      1.0000 0.56210  0.66260  0.06466  Biso   1.000  N
  N18      1.0000 0.44940  0.44990  0.05555  Biso   1.000  N
  H63      1.0000 0.44890  0.39890  0.06630  Biso   1.000  H
  N19      1.0000 0.46080  0.73580  0.95235  Biso   1.000  N
  N20      1.0000 0.54850  0.96190  0.98007  Biso   1.000  N
  H64      1.0000 0.55430  0.01340  0.97210  Biso   1.000  H
  N21      1.0000 0.71670  0.48150  0.97108  Biso   1.000  N
  N22      1.0000 0.65920  0.22680  0.00640  Biso   1.000  N
  H65      1.0000 0.64100  0.19340  0.98820  Biso   1.000  H
  N23      1.0000 0.83910  0.94520  0.27185  Biso   1.000  N
  N24      1.0000 0.75570  0.96560  0.14610  Biso   1.000  N
  H66      1.0000 0.75130  0.02170  0.14600  Biso   1.000  H
  C61      1.0000 0.29870  0.85290  0.09910  Biso   1.000  C
  H67      1.0000 0.27030  0.82560  0.08540  Biso   1.000  H
  C62      1.0000 0.32240  0.82360  0.13630  Biso   1.000  C
  H68      1.0000 0.31120  0.77560  0.14750  Biso   1.000  H
  C63      1.0000 0.36240  0.86540  0.15690  Biso   1.000  C
  H69      1.0000 0.37880  0.84820  0.18300  Biso   1.000  H
  C64      1.0000 0.37840  0.93220  0.13930  Biso   1.000  C
  H70      1.0000 0.40590  0.96190  0.15320  Biso   1.000  H
  C65      1.0000 0.35410  0.95680  0.10090  Biso   1.000  C
  C66      1.0000 0.37010  0.02980  0.08020  Biso   1.000  C
  H71      1.0000 0.36160  0.01780  0.05150  Biso   1.000  H
  H72      1.0000 0.40440  0.03520  0.09020  Biso   1.000  H
  C67      1.0000 0.34760  0.11290  0.08730  Biso   1.000  C
  H73      1.0000 0.31370  0.10380  0.08130  Biso   1.000  H
  H74      1.0000 0.35990  0.12850  0.11560  Biso   1.000  H
  C68      1.0000 0.33070  0.19310  0.02610  Biso   1.000  C
  C69      1.0000 0.33980  0.27240  0.00490  Biso   1.000  C
  C70      1.0000 0.37620  0.32740  0.02130  Biso   1.000  C
  H75      1.0000 0.39870  0.31190  0.04530  Biso   1.000  H
  C71      1.0000 0.17140  0.46560  0.72630  Biso   1.000  C
  H76      1.0000 0.17630  0.51510  0.71220  Biso   1.000  H
  C72      1.0000 0.13000  0.42190  0.71310  Biso   1.000  C
  H77      1.0000 0.10630  0.44150  0.69060  Biso   1.000  H
  C73      1.0000 0.12350  0.35040  0.73290  Biso   1.000  C
  H78      1.0000 0.09510  0.31900  0.72420  Biso   1.000  H
  C74      1.0000 0.15870  0.32310  0.76620  Biso   1.000  C
  H79      1.0000 0.15470  0.27290  0.78020  Biso   1.000  H
  C75      1.0000 0.19900  0.36980  0.77840  Biso   1.000  C
  C76      1.0000 0.23650  0.34580  0.81490  Biso   1.000  C
  H80      1.0000 0.26420  0.38230  0.81750  Biso   1.000  H
  H81      1.0000 0.24560  0.28480  0.81330  Biso   1.000  H
  C77      1.0000 0.21920  0.35820  0.85080  Biso   1.000  C
  H82      1.0000 0.20840  0.41840  0.85130  Biso   1.000  H
  H83      1.0000 0.19230  0.31970  0.84850  Biso   1.000  H
  C78      1.0000 0.27750  0.40070  0.91260  Biso   1.000  C
  C79      1.0000 0.31170  0.37070  0.95050  Biso   1.000  C
  C80      1.0000 0.30790  0.29330  0.96920  Biso   1.000  C
  H84      1.0000 0.28310  0.25470  0.95740  Biso   1.000  H
  C81      1.0000 0.59560  0.71560  0.08660  Biso   1.000  C
  H85      1.0000 0.59660  0.77370  0.07840  Biso   1.000  H
  C82      1.0000 0.62780  0.68840  0.11960  Biso   1.000  C
  H86      1.0000 0.65090  0.72730  0.13420  Biso   1.000  H
  C83      1.0000 0.62750  0.60600  0.13220  Biso   1.000  C
  H87      1.0000 0.65020  0.58640  0.15530  Biso   1.000  H
  C84      1.0000 0.59360  0.55160  0.11050  Biso   1.000  C
  H88      1.0000 0.59260  0.49340  0.11860  Biso   1.000  H
  C85      1.0000 0.56090  0.58120  0.07690  Biso   1.000  C
  C86      1.0000 0.52190  0.52400  0.05420  Biso   1.000  C
  H89      1.0000 0.53460  0.46670  0.05070  Biso   1.000  H
  H90      1.0000 0.50770  0.54900  0.02770  Biso   1.000  H
  C87      1.0000 0.48470  0.51310  0.07480  Biso   1.000  C
  H91      1.0000 0.49960  0.49490  0.10240  Biso   1.000  H
  H92      1.0000 0.46950  0.56950  0.07540  Biso   1.000  H
  C88      1.0000 0.41830  0.46970  0.02180  Biso   1.000  C
  C89      1.0000 0.38040  0.40470  0.00350  Biso   1.000  C
  C90      1.0000 0.34740  0.42660  0.96820  Biso   1.000  C
  H93      1.0000 0.34940  0.48050  0.95610  Biso   1.000  H
  C91      1.0000 0.42070  0.69200  0.94560  Biso   1.000  C
  H94      1.0000 0.41720  0.65360  0.96540  Biso   1.000  H
  C92      1.0000 0.38440  0.70000  0.91140  Biso   1.000  C
  H95      1.0000 0.35710  0.66600  0.90710  Biso   1.000  H
  C93      1.0000 0.38870  0.75750  0.88380  Biso   1.000  C
  H96      1.0000 0.36390  0.76600  0.86030  Biso   1.000  H
  C94      1.0000 0.43000  0.80420  0.89050  Biso   1.000  C
  H97      1.0000 0.43370  0.84400  0.87130  Biso   1.000  H
  C95      1.0000 0.46510  0.79280  0.92460  Biso   1.000  C
  C96      1.0000 0.50920  0.84490  0.93460  Biso   1.000  C
  H98      1.0000 0.51440  0.86740  0.91020  Biso   1.000  H
  H99      1.0000 0.53600  0.80820  0.94830  Biso   1.000  H
  C97      1.0000 0.50470  0.91980  0.96130  Biso   1.000  C
  H100     1.0000 0.48270  0.96270  0.94540  Biso   1.000  H
  H101     1.0000 0.49150  0.89780  0.98190  Biso   1.000  H
  C98      1.0000 0.58030  0.92240  0.00960  Biso   1.000  C
  C99      1.0000 0.62350  0.97120  0.03160  Biso   1.000  C
  C100     1.0000 0.63060  0.05750  0.02500  Biso   1.000  C
  H102     1.0000 0.60760  0.08860  0.00560  Biso   1.000  H
  C101     1.0000 0.71090  0.56050  0.95360  Biso   1.000  C
  H103     1.0000 0.73040  0.60630  0.96660  Biso   1.000  H
  C102     1.0000 0.67900  0.57730  0.91890  Biso   1.000  C
  H104     1.0000 0.67600  0.63360  0.90790  Biso   1.000  H
  C103     1.0000 0.65050  0.51090  0.89950  Biso   1.000  C
  H105     1.0000 0.62770  0.52090  0.87490  Biso   1.000  H
  C104     1.0000 0.65580  0.43050  0.91630  Biso   1.000  C
  H106     1.0000 0.63640  0.38430  0.90350  Biso   1.000  H
  C105     1.0000 0.68940  0.41670  0.95210  Biso   1.000  C
  C106     1.0000 0.69460  0.32790  0.97050  Biso   1.000  C
  H107     1.0000 0.72730  0.31890  0.98640  Biso   1.000  H
  H108     1.0000 0.68670  0.28370  0.94940  Biso   1.000  H
  C107     1.0000 0.66300  0.31770  0.99650  Biso   1.000  C
  H109     1.0000 0.67570  0.35140  0.02110  Biso   1.000  H
  H110     1.0000 0.63180  0.34070  0.98260  Biso   1.000  H
  C108     1.0000 0.68150  0.19150  0.04100  Biso   1.000  C
  C109     1.0000 0.67130  0.09880  0.04650  Biso   1.000  C
  C110     1.0000 0.70370  0.05300  0.07500  Biso   1.000  C
  H111     1.0000 0.73180  0.08050  0.08950  Biso   1.000  H
  C111     1.0000 0.86780  0.90790  0.30410  Biso   1.000  C
  H112     1.0000 0.85700  0.89960  0.32640  Biso   1.000  H
  C112     1.0000 0.91170  0.88140  0.30630  Biso   1.000  C
  H113     1.0000 0.93140  0.85670  0.32980  Biso   1.000  H
  C113     1.0000 0.92700  0.89160  0.27290  Biso   1.000  C
  H114     1.0000 0.95690  0.87190  0.27290  Biso   1.000  H
  C114     1.0000 0.89830  0.92990  0.24050  Biso   1.000  C
  H115     1.0000 0.90830  0.93840  0.21780  Biso   1.000  H
  C115     1.0000 0.85420  0.95700  0.24050  Biso   1.000  C
  C116     1.0000 0.82120  0.99650  0.20420  Biso   1.000  C
  H116     1.0000 0.83910  0.02610  0.18860  Biso   1.000  H
  H117     1.0000 0.80150  0.03990  0.21210  Biso   1.000  H
  C117     1.0000 0.79060  0.92670  0.17920  Biso   1.000  C
  H118     1.0000 0.81010  0.88640  0.16930  Biso   1.000  H
  H119     1.0000 0.77510  0.89350  0.19560  Biso   1.000  H
  C118     1.0000 0.73020  0.91860  0.11570  Biso   1.000  C
  C119     1.0000 0.69640  0.96770  0.08300  Biso   1.000  C
  C120     1.0000 0.65630  0.92680  0.06040  Biso   1.000  C
  H120     1.0000 0.65160  0.86750  0.06470  Biso   1.000  H
  Ag7      1.0000 0.76823  0.53669  0.52672  Biso   1.000  Ag
  Ag8      1.0000 0.01351  0.78357  0.51019  Biso   1.000  Ag
  Ag9      1.0000 0.27057  0.51125  0.77237  Biso   1.000  Ag
  O13      1.0000 0.80030  0.35970  0.50977  Biso   1.000  O
  O14      1.0000 0.77100  0.02180  0.40634  Biso   1.000  O
  O15      1.0000 0.91836  0.96080  0.50496  Biso   1.000  O
  O16      1.0000 0.07450  0.65290  0.51880  Biso   1.000  O
  O17      1.0000 0.20960  0.26830  0.56755  Biso   1.000  O
  O18      1.0000 0.23430  0.66020  0.61451  Biso   1.000  O
  N25      1.0000 0.81410  0.58160  0.58135  Biso   1.000  N
  N26      1.0000 0.85590  0.31600  0.56352  Biso   1.000  N
  H121     1.0000 0.87800  0.27850  0.57410  Biso   1.000  H
  N27      1.0000 0.70550  0.05960  0.25860  Biso   1.000  N
  N28      1.0000 0.75490  0.16010  0.38770  Biso   1.000  N
  H122     1.0000 0.76210  0.21430  0.39390  Biso   1.000  H
  N29      1.0000 0.06210  0.83740  0.56466  Biso   1.000  N
  N30      1.0000 0.94940  0.05010  0.55555  Biso   1.000  N
  H123     1.0000 0.94890  0.10110  0.56630  Biso   1.000  H
  N31      1.0000 0.96080  0.76420  0.45235  Biso   1.000  N
  N32      1.0000 0.04850  0.53810  0.48007  Biso   1.000  N
  H124     1.0000 0.05430  0.48660  0.47210  Biso   1.000  H
  N33      1.0000 0.21670  0.01850  0.47108  Biso   1.000  N
  N34      1.0000 0.15920  0.27320  0.50640  Biso   1.000  N
  H125     1.0000 0.14100  0.30660  0.48820  Biso   1.000  H
  N35      1.0000 0.33910  0.55480  0.77185  Biso   1.000  N
  N36      1.0000 0.25570  0.53440  0.64610  Biso   1.000  N
  H126     1.0000 0.25130  0.47830  0.64600  Biso   1.000  H
  C121     1.0000 0.79870  0.64710  0.59910  Biso   1.000  C
  H127     1.0000 0.77030  0.67440  0.58540  Biso   1.000  H
  C122     1.0000 0.82240  0.67640  0.63630  Biso   1.000  C
  H128     1.0000 0.81120  0.72440  0.64750  Biso   1.000  H
  C123     1.0000 0.86240  0.63460  0.65690  Biso   1.000  C
  H129     1.0000 0.87880  0.65180  0.68300  Biso   1.000  H
  C124     1.0000 0.87840  0.56780  0.63930  Biso   1.000  C
  H130     1.0000 0.90590  0.53810  0.65320  Biso   1.000  H
  C125     1.0000 0.85410  0.54320  0.60090  Biso   1.000  C
  C126     1.0000 0.87010  0.47020  0.58020  Biso   1.000  C
  H131     1.0000 0.86160  0.48220  0.55150  Biso   1.000  H
  H132     1.0000 0.90440  0.46480  0.59020  Biso   1.000  H
  C127     1.0000 0.84760  0.38710  0.58730  Biso   1.000  C
  H133     1.0000 0.81370  0.39620  0.58130  Biso   1.000  H
  H134     1.0000 0.85990  0.37150  0.61560  Biso   1.000  H
  C128     1.0000 0.83070  0.30690  0.52610  Biso   1.000  C
  C129     1.0000 0.83980  0.22760  0.50490  Biso   1.000  C
  C130     1.0000 0.87620  0.17260  0.52130  Biso   1.000  C
  H135     1.0000 0.89870  0.18810  0.54530  Biso   1.000  H
  C131     1.0000 0.67140  0.03440  0.22630  Biso   1.000  C
  H136     1.0000 0.67630  0.98490  0.21220  Biso   1.000  H
  C132     1.0000 0.63000  0.07810  0.21310  Biso   1.000  C
  H137     1.0000 0.60630  0.05850  0.19060  Biso   1.000  H
  C133     1.0000 0.62350  0.14960  0.23290  Biso   1.000  C
  H138     1.0000 0.59510  0.18100  0.22420  Biso   1.000  H
  C134     1.0000 0.65870  0.17690  0.26620  Biso   1.000  C
  H139     1.0000 0.65470  0.22710  0.28020  Biso   1.000  H
  C135     1.0000 0.69900  0.13020  0.27840  Biso   1.000  C
  C136     1.0000 0.73650  0.15420  0.31490  Biso   1.000  C
  H140     1.0000 0.76420  0.11770  0.31750  Biso   1.000  H
  H141     1.0000 0.74560  0.21520  0.31330  Biso   1.000  H
  C137     1.0000 0.71920  0.14180  0.35080  Biso   1.000  C
  H142     1.0000 0.70840  0.08160  0.35130  Biso   1.000  H
  H143     1.0000 0.69230  0.18030  0.34850  Biso   1.000  H
  C138     1.0000 0.77750  0.09930  0.41260  Biso   1.000  C
  C139     1.0000 0.81170  0.12930  0.45050  Biso   1.000  C
  C140     1.0000 0.80790  0.20670  0.46920  Biso   1.000  C
  H144     1.0000 0.78310  0.24530  0.45740  Biso   1.000  H
  C141     1.0000 0.09560  0.78440  0.58660  Biso   1.000  C
  H145     1.0000 0.09660  0.72630  0.57840  Biso   1.000  H
  C142     1.0000 0.12780  0.81160  0.61960  Biso   1.000  C
  H146     1.0000 0.15090  0.77270  0.63420  Biso   1.000  H
  C143     1.0000 0.12750  0.89400  0.63220  Biso   1.000  C
  H147     1.0000 0.15020  0.91360  0.65530  Biso   1.000  H
  C144     1.0000 0.09360  0.94840  0.61050  Biso   1.000  C
  H148     1.0000 0.09260  0.00660  0.61860  Biso   1.000  H
  C145     1.0000 0.06090  0.91880  0.57690  Biso   1.000  C
  C146     1.0000 0.02190  0.97600  0.55420  Biso   1.000  C
  H149     1.0000 0.03460  0.03330  0.55070  Biso   1.000  H
  H150     1.0000 0.00770  0.95100  0.52770  Biso   1.000  H
  C147     1.0000 0.98470  0.98690  0.57480  Biso   1.000  C
  H151     1.0000 0.99960  0.00510  0.60240  Biso   1.000  H
  H152     1.0000 0.96950  0.93050  0.57540  Biso   1.000  H
  C148     1.0000 0.91830  0.03030  0.52180  Biso   1.000  C
  C149     1.0000 0.88040  0.09530  0.50350  Biso   1.000  C
  C150     1.0000 0.84740  0.07340  0.46820  Biso   1.000  C
  H153     1.0000 0.84940  0.01950  0.45610  Biso   1.000  H
  C151     1.0000 0.92070  0.80800  0.44560  Biso   1.000  C
  H154     1.0000 0.91720  0.84640  0.46540  Biso   1.000  H
  C152     1.0000 0.88440  0.80000  0.41140  Biso   1.000  C
  H155     1.0000 0.85710  0.83400  0.40710  Biso   1.000  H
  C153     1.0000 0.88870  0.74250  0.38380  Biso   1.000  C
  H156     1.0000 0.86390  0.73400  0.36030  Biso   1.000  H
  C154     1.0000 0.93000  0.69580  0.39050  Biso   1.000  C
  H157     1.0000 0.93370  0.65600  0.37130  Biso   1.000  H
  C155     1.0000 0.96510  0.70720  0.42460  Biso   1.000  C
  C156     1.0000 0.00920  0.65510  0.43460  Biso   1.000  C
  H158     1.0000 0.01440  0.63260  0.41020  Biso   1.000  H
  H159     1.0000 0.03600  0.69180  0.44830  Biso   1.000  H
  C157     1.0000 0.00470  0.58020  0.46130  Biso   1.000  C
  H160     1.0000 0.98270  0.53730  0.44540  Biso   1.000  H
  H161     1.0000 0.99150  0.60220  0.48190  Biso   1.000  H
  C158     1.0000 0.08030  0.57760  0.50960  Biso   1.000  C
  C159     1.0000 0.12350  0.52880  0.53160  Biso   1.000  C
  C160     1.0000 0.13060  0.44250  0.52500  Biso   1.000  C
  H162     1.0000 0.10760  0.41140  0.50560  Biso   1.000  H
  C161     1.0000 0.21090  0.93950  0.45360  Biso   1.000  C
  H163     1.0000 0.23040  0.89370  0.46660  Biso   1.000  H
  C162     1.0000 0.17900  0.92270  0.41890  Biso   1.000  C
  H164     1.0000 0.17600  0.86640  0.40790  Biso   1.000  H
  C163     1.0000 0.15050  0.98910  0.39950  Biso   1.000  C
  H165     1.0000 0.12770  0.97910  0.37490  Biso   1.000  H
  C164     1.0000 0.15580  0.06950  0.41630  Biso   1.000  C
  H166     1.0000 0.13640  0.11570  0.40350  Biso   1.000  H
  C165     1.0000 0.18940  0.08330  0.45210  Biso   1.000  C
  C166     1.0000 0.19460  0.17210  0.47050  Biso   1.000  C
  H167     1.0000 0.22730  0.18110  0.48640  Biso   1.000  H
  H168     1.0000 0.18670  0.21630  0.44940  Biso   1.000  H
  C167     1.0000 0.16300  0.18230  0.49650  Biso   1.000  C
  H169     1.0000 0.17570  0.14860  0.52110  Biso   1.000  H
  H170     1.0000 0.13180  0.15930  0.48260  Biso   1.000  H
  C168     1.0000 0.18150  0.30850  0.54100  Biso   1.000  C
  C169     1.0000 0.17130  0.40120  0.54650  Biso   1.000  C
  C170     1.0000 0.20370  0.44700  0.57500  Biso   1.000  C
  H171     1.0000 0.23180  0.41950  0.58950  Biso   1.000  H
  C171     1.0000 0.36780  0.59210  0.80410  Biso   1.000  C
  H172     1.0000 0.35700  0.60040  0.82640  Biso   1.000  H
  C172     1.0000 0.41170  0.61860  0.80630  Biso   1.000  C
  H173     1.0000 0.43140  0.64330  0.82980  Biso   1.000  H
  C173     1.0000 0.42700  0.60840  0.77290  Biso   1.000  C
  H174     1.0000 0.45690  0.62810  0.77290  Biso   1.000  H
  C174     1.0000 0.39830  0.57010  0.74050  Biso   1.000  C
  H175     1.0000 0.40830  0.56160  0.71780  Biso   1.000  H
  C175     1.0000 0.35420  0.54300  0.74050  Biso   1.000  C
  C176     1.0000 0.32120  0.50350  0.70420  Biso   1.000  C
  H176     1.0000 0.33910  0.47390  0.68860  Biso   1.000  H
  H177     1.0000 0.30150  0.46010  0.71210  Biso   1.000  H
  C177     1.0000 0.29060  0.57330  0.67920  Biso   1.000  C
  H178     1.0000 0.31010  0.61360  0.66930  Biso   1.000  H
  H179     1.0000 0.27510  0.60650  0.69560  Biso   1.000  H
  C178     1.0000 0.23020  0.58140  0.61570  Biso   1.000  C
  C179     1.0000 0.19640  0.53230  0.58300  Biso   1.000  C
  C180     1.0000 0.15630  0.57320  0.56040  Biso   1.000  C
  H180     1.0000 0.15160  0.63250  0.56470  Biso   1.000  H
  Ag10     1.0000 0.26823  0.03669  0.52672  Biso   1.000  Ag
  Ag11     1.0000 0.51351  0.28357  0.51019  Biso   1.000  Ag
  Ag12     1.0000 0.77057  0.01125  0.77237  Biso   1.000  Ag
  O19      1.0000 0.30030  0.85970  0.50977  Biso   1.000  O
  O20      1.0000 0.27100  0.52180  0.40634  Biso   1.000  O
  O21      1.0000 0.41836  0.46080  0.50496  Biso   1.000  O
  O22      1.0000 0.57450  0.15290  0.51880  Biso   1.000  O
  O23      1.0000 0.70960  0.76830  0.56755  Biso   1.000  O
  O24      1.0000 0.73430  0.16020  0.61451  Biso   1.000  O
  N37      1.0000 0.31410  0.08160  0.58135  Biso   1.000  N
  N38      1.0000 0.35590  0.81600  0.56352  Biso   1.000  N
  H181     1.0000 0.37800  0.77850  0.57410  Biso   1.000  H
  N39      1.0000 0.20550  0.55960  0.25860  Biso   1.000  N
  N40      1.0000 0.25490  0.66010  0.38770  Biso   1.000  N
  H182     1.0000 0.26210  0.71430  0.39390  Biso   1.000  H
  N41      1.0000 0.56210  0.33740  0.56466  Biso   1.000  N
  N42      1.0000 0.44940  0.55010  0.55555  Biso   1.000  N
  H183     1.0000 0.44890  0.60110  0.56630  Biso   1.000  H
  N43      1.0000 0.46080  0.26420  0.45235  Biso   1.000  N
  N44      1.0000 0.54850  0.03810  0.48007  Biso   1.000  N
  H184     1.0000 0.55430  0.98660  0.47210  Biso   1.000  H
  N45      1.0000 0.71670  0.51850  0.47108  Biso   1.000  N
  N46      1.0000 0.65920  0.77320  0.50640  Biso   1.000  N
  H185     1.0000 0.64100  0.80660  0.48820  Biso   1.000  H
  N47      1.0000 0.83910  0.05480  0.77185  Biso   1.000  N
  N48      1.0000 0.75570  0.03440  0.64610  Biso   1.000  N
  H186     1.0000 0.75130  0.97830  0.64600  Biso   1.000  H
  C181     1.0000 0.29870  0.14710  0.59910  Biso   1.000  C
  H187     1.0000 0.27030  0.17440  0.58540  Biso   1.000  H
  C182     1.0000 0.32240  0.17640  0.63630  Biso   1.000  C
  H188     1.0000 0.31120  0.22440  0.64750  Biso   1.000  H
  C183     1.0000 0.36240  0.13460  0.65690  Biso   1.000  C
  H189     1.0000 0.37880  0.15180  0.68300  Biso   1.000  H
  C184     1.0000 0.37840  0.06780  0.63930  Biso   1.000  C
  H190     1.0000 0.40590  0.03810  0.65320  Biso   1.000  H
  C185     1.0000 0.35410  0.04320  0.60090  Biso   1.000  C
  C186     1.0000 0.37010  0.97020  0.58020  Biso   1.000  C
  H191     1.0000 0.36160  0.98220  0.55150  Biso   1.000  H
  H192     1.0000 0.40440  0.96480  0.59020  Biso   1.000  H
  C187     1.0000 0.34760  0.88710  0.58730  Biso   1.000  C
  H193     1.0000 0.31370  0.89620  0.58130  Biso   1.000  H
  H194     1.0000 0.35990  0.87150  0.61560  Biso   1.000  H
  C188     1.0000 0.33070  0.80690  0.52610  Biso   1.000  C
  C189     1.0000 0.33980  0.72760  0.50490  Biso   1.000  C
  C190     1.0000 0.37620  0.67260  0.52130  Biso   1.000  C
  H195     1.0000 0.39870  0.68810  0.54530  Biso   1.000  H
  C191     1.0000 0.17140  0.53440  0.22630  Biso   1.000  C
  H196     1.0000 0.17630  0.48490  0.21220  Biso   1.000  H
  C192     1.0000 0.13000  0.57810  0.21310  Biso   1.000  C
  H197     1.0000 0.10630  0.55850  0.19060  Biso   1.000  H
  C193     1.0000 0.12350  0.64960  0.23290  Biso   1.000  C
  H198     1.0000 0.09510  0.68100  0.22420  Biso   1.000  H
  C194     1.0000 0.15870  0.67690  0.26620  Biso   1.000  C
  H199     1.0000 0.15470  0.72710  0.28020  Biso   1.000  H
  C195     1.0000 0.19900  0.63020  0.27840  Biso   1.000  C
  C196     1.0000 0.23650  0.65420  0.31490  Biso   1.000  C
  H200     1.0000 0.26420  0.61770  0.31750  Biso   1.000  H
  H201     1.0000 0.24560  0.71520  0.31330  Biso   1.000  H
  C197     1.0000 0.21920  0.64180  0.35080  Biso   1.000  C
  H202     1.0000 0.20840  0.58160  0.35130  Biso   1.000  H
  H203     1.0000 0.19230  0.68030  0.34850  Biso   1.000  H
  C198     1.0000 0.27750  0.59930  0.41260  Biso   1.000  C
  C199     1.0000 0.31170  0.62930  0.45050  Biso   1.000  C
  C200     1.0000 0.30790  0.70670  0.46920  Biso   1.000  C
  H204     1.0000 0.28310  0.74530  0.45740  Biso   1.000  H
  C201     1.0000 0.59560  0.28440  0.58660  Biso   1.000  C
  H205     1.0000 0.59660  0.22630  0.57840  Biso   1.000  H
  C202     1.0000 0.62780  0.31160  0.61960  Biso   1.000  C
  H206     1.0000 0.65090  0.27270  0.63420  Biso   1.000  H
  C203     1.0000 0.62750  0.39400  0.63220  Biso   1.000  C
  H207     1.0000 0.65020  0.41360  0.65530  Biso   1.000  H
  C204     1.0000 0.59360  0.44840  0.61050  Biso   1.000  C
  H208     1.0000 0.59260  0.50660  0.61860  Biso   1.000  H
  C205     1.0000 0.56090  0.41880  0.57690  Biso   1.000  C
  C206     1.0000 0.52190  0.47600  0.55420  Biso   1.000  C
  H209     1.0000 0.53460  0.53330  0.55070  Biso   1.000  H
  H210     1.0000 0.50770  0.45100  0.52770  Biso   1.000  H
  C207     1.0000 0.48470  0.48690  0.57480  Biso   1.000  C
  H211     1.0000 0.49960  0.50510  0.60240  Biso   1.000  H
  H212     1.0000 0.46950  0.43050  0.57540  Biso   1.000  H
  C208     1.0000 0.41830  0.53030  0.52180  Biso   1.000  C
  C209     1.0000 0.38040  0.59530  0.50350  Biso   1.000  C
  C210     1.0000 0.34740  0.57340  0.46820  Biso   1.000  C
  H213     1.0000 0.34940  0.51950  0.45610  Biso   1.000  H
  C211     1.0000 0.42070  0.30800  0.44560  Biso   1.000  C
  H214     1.0000 0.41720  0.34640  0.46540  Biso   1.000  H
  C212     1.0000 0.38440  0.30000  0.41140  Biso   1.000  C
  H215     1.0000 0.35710  0.33400  0.40710  Biso   1.000  H
  C213     1.0000 0.38870  0.24250  0.38380  Biso   1.000  C
  H216     1.0000 0.36390  0.23400  0.36030  Biso   1.000  H
  C214     1.0000 0.43000  0.19580  0.39050  Biso   1.000  C
  H217     1.0000 0.43370  0.15600  0.37130  Biso   1.000  H
  C215     1.0000 0.46510  0.20720  0.42460  Biso   1.000  C
  C216     1.0000 0.50920  0.15510  0.43460  Biso   1.000  C
  H218     1.0000 0.51440  0.13260  0.41020  Biso   1.000  H
  H219     1.0000 0.53600  0.19180  0.44830  Biso   1.000  H
  C217     1.0000 0.50470  0.08020  0.46130  Biso   1.000  C
  H220     1.0000 0.48270  0.03730  0.44540  Biso   1.000  H
  H221     1.0000 0.49150  0.10220  0.48190  Biso   1.000  H
  C218     1.0000 0.58030  0.07760  0.50960  Biso   1.000  C
  C219     1.0000 0.62350  0.02880  0.53160  Biso   1.000  C
  C220     1.0000 0.63060  0.94250  0.52500  Biso   1.000  C
  H222     1.0000 0.60760  0.91140  0.50560  Biso   1.000  H
  C221     1.0000 0.71090  0.43950  0.45360  Biso   1.000  C
  H223     1.0000 0.73040  0.39370  0.46660  Biso   1.000  H
  C222     1.0000 0.67900  0.42270  0.41890  Biso   1.000  C
  H224     1.0000 0.67600  0.36640  0.40790  Biso   1.000  H
  C223     1.0000 0.65050  0.48910  0.39950  Biso   1.000  C
  H225     1.0000 0.62770  0.47910  0.37490  Biso   1.000  H
  C224     1.0000 0.65580  0.56950  0.41630  Biso   1.000  C
  H226     1.0000 0.63640  0.61570  0.40350  Biso   1.000  H
  C225     1.0000 0.68940  0.58330  0.45210  Biso   1.000  C
  C226     1.0000 0.69460  0.67210  0.47050  Biso   1.000  C
  H227     1.0000 0.72730  0.68110  0.48640  Biso   1.000  H
  H228     1.0000 0.68670  0.71630  0.44940  Biso   1.000  H
  C227     1.0000 0.66300  0.68230  0.49650  Biso   1.000  C
  H229     1.0000 0.67570  0.64860  0.52110  Biso   1.000  H
  H230     1.0000 0.63180  0.65930  0.48260  Biso   1.000  H
  C228     1.0000 0.68150  0.80850  0.54100  Biso   1.000  C
  C229     1.0000 0.67130  0.90120  0.54650  Biso   1.000  C
  C230     1.0000 0.70370  0.94700  0.57500  Biso   1.000  C
  H231     1.0000 0.73180  0.91950  0.58950  Biso   1.000  H
  C231     1.0000 0.86780  0.09210  0.80410  Biso   1.000  C
  H232     1.0000 0.85700  0.10040  0.82640  Biso   1.000  H
  C232     1.0000 0.91170  0.11860  0.80630  Biso   1.000  C
  H233     1.0000 0.93140  0.14330  0.82980  Biso   1.000  H
  C233     1.0000 0.92700  0.10840  0.77290  Biso   1.000  C
  H234     1.0000 0.95690  0.12810  0.77290  Biso   1.000  H
  C234     1.0000 0.89830  0.07010  0.74050  Biso   1.000  C
  H235     1.0000 0.90830  0.06160  0.71780  Biso   1.000  H
  C235     1.0000 0.85420  0.04300  0.74050  Biso   1.000  C
  C236     1.0000 0.82120  0.00350  0.70420  Biso   1.000  C
  H236     1.0000 0.83910  0.97390  0.68860  Biso   1.000  H
  H237     1.0000 0.80150  0.96010  0.71210  Biso   1.000  H
  C237     1.0000 0.79060  0.07330  0.67920  Biso   1.000  C
  H238     1.0000 0.81010  0.11360  0.66930  Biso   1.000  H
  H239     1.0000 0.77510  0.10650  0.69560  Biso   1.000  H
  C238     1.0000 0.73020  0.08140  0.61570  Biso   1.000  C
  C239     1.0000 0.69640  0.03230  0.58300  Biso   1.000  C
  C240     1.0000 0.65630  0.07320  0.56040  Biso   1.000  C
  H240     1.0000 0.65160  0.13250  0.56470  Biso   1.000  H
  Ag13     1.0000 0.23177  0.46331  0.47328  Biso   1.000  Ag
  Ag14     1.0000 0.98649  0.21643  0.48981  Biso   1.000  Ag
  Ag15     1.0000 0.72943  0.48875  0.22763  Biso   1.000  Ag
  O25      1.0000 0.19970  0.64030  0.49023  Biso   1.000  O
  O26      1.0000 0.22900  0.97820  0.59366  Biso   1.000  O
  O27      1.0000 0.08164  0.03920  0.49504  Biso   1.000  O
  O28      1.0000 0.92550  0.34710  0.48120  Biso   1.000  O
  O29      1.0000 0.79040  0.73170  0.43245  Biso   1.000  O
  O30      1.0000 0.76570  0.33980  0.38549  Biso   1.000  O
  N49      1.0000 0.18590  0.41840  0.41865  Biso   1.000  N
  N50      1.0000 0.14410  0.68400  0.43648  Biso   1.000  N
  H241     1.0000 0.12200  0.72150  0.42590  Biso   1.000  H
  N51      1.0000 0.29450  0.94040  0.74140  Biso   1.000  N
  N52      1.0000 0.24510  0.83990  0.61230  Biso   1.000  N
  H242     1.0000 0.23790  0.78570  0.60610  Biso   1.000  H
  N53      1.0000 0.93790  0.16260  0.43534  Biso   1.000  N
  N54      1.0000 0.05060  0.94990  0.44445  Biso   1.000  N
  H243     1.0000 0.05110  0.89890  0.43370  Biso   1.000  H
  N55      1.0000 0.03920  0.23580  0.54765  Biso   1.000  N
  N56      1.0000 0.95150  0.46190  0.51993  Biso   1.000  N
  H244     1.0000 0.94570  0.51340  0.52790  Biso   1.000  H
  N57      1.0000 0.78330  0.98150  0.52892  Biso   1.000  N
  N58      1.0000 0.84080  0.72680  0.49360  Biso   1.000  N
  H245     1.0000 0.85900  0.69340  0.51180  Biso   1.000  H
  N59      1.0000 0.66090  0.44520  0.22815  Biso   1.000  N
  N60      1.0000 0.74430  0.46560  0.35390  Biso   1.000  N
  H246     1.0000 0.74870  0.52170  0.35400  Biso   1.000  H
  C241     1.0000 0.20130  0.35290  0.40090  Biso   1.000  C
  H247     1.0000 0.22970  0.32560  0.41460  Biso   1.000  H
  C242     1.0000 0.17760  0.32360  0.36370  Biso   1.000  C
  H248     1.0000 0.18880  0.27560  0.35250  Biso   1.000  H
  C243     1.0000 0.13760  0.36540  0.34310  Biso   1.000  C
  H249     1.0000 0.12120  0.34820  0.31700  Biso   1.000  H
  C244     1.0000 0.12160  0.43220  0.36070  Biso   1.000  C
  H250     1.0000 0.09410  0.46190  0.34680  Biso   1.000  H
  C245     1.0000 0.14590  0.45680  0.39910  Biso   1.000  C
  C246     1.0000 0.12990  0.52980  0.41980  Biso   1.000  C
  H251     1.0000 0.13840  0.51780  0.44850  Biso   1.000  H
  H252     1.0000 0.09560  0.53520  0.40980  Biso   1.000  H
  C247     1.0000 0.15240  0.61290  0.41270  Biso   1.000  C
  H253     1.0000 0.18630  0.60380  0.41870  Biso   1.000  H
  H254     1.0000 0.14010  0.62850  0.38440  Biso   1.000  H
  C248     1.0000 0.16930  0.69310  0.47390  Biso   1.000  C
  C249     1.0000 0.16020  0.77240  0.49510  Biso   1.000  C
  C250     1.0000 0.12380  0.82740  0.47870  Biso   1.000  C
  H255     1.0000 0.10130  0.81190  0.45470  Biso   1.000  H
  C251     1.0000 0.32860  0.96560  0.77370  Biso   1.000  C
  H256     1.0000 0.32370  0.01510  0.78780  Biso   1.000  H
  C252     1.0000 0.37000  0.92190  0.78690  Biso   1.000  C
  H257     1.0000 0.39370  0.94150  0.80940  Biso   1.000  H
  C253     1.0000 0.37650  0.85040  0.76710  Biso   1.000  C
  H258     1.0000 0.40490  0.81900  0.77580  Biso   1.000  H
  C254     1.0000 0.34130  0.82310  0.73380  Biso   1.000  C
  H259     1.0000 0.34530  0.77290  0.71980  Biso   1.000  H
  C255     1.0000 0.30100  0.86980  0.72160  Biso   1.000  C
  C256     1.0000 0.26350  0.84580  0.68510  Biso   1.000  C
  H260     1.0000 0.23580  0.88230  0.68250  Biso   1.000  H
  H261     1.0000 0.25440  0.78480  0.68670  Biso   1.000  H
  C257     1.0000 0.28080  0.85820  0.64920  Biso   1.000  C
  H262     1.0000 0.29160  0.91840  0.64870  Biso   1.000  H
  H263     1.0000 0.30770  0.81970  0.65150  Biso   1.000  H
  C258     1.0000 0.22250  0.90070  0.58740  Biso   1.000  C
  C259     1.0000 0.18830  0.87070  0.54950  Biso   1.000  C
  C260     1.0000 0.19210  0.79330  0.53080  Biso   1.000  C
  H264     1.0000 0.21690  0.75470  0.54260  Biso   1.000  H
  C261     1.0000 0.90440  0.21560  0.41340  Biso   1.000  C
  H265     1.0000 0.90340  0.27370  0.42160  Biso   1.000  H
  C262     1.0000 0.87220  0.18840  0.38040  Biso   1.000  C
  H266     1.0000 0.84910  0.22730  0.36580  Biso   1.000  H
  C263     1.0000 0.87250  0.10600  0.36780  Biso   1.000  C
  H267     1.0000 0.84980  0.08640  0.34470  Biso   1.000  H
  C264     1.0000 0.90640  0.05160  0.38950  Biso   1.000  C
  H268     1.0000 0.90740  0.99340  0.38140  Biso   1.000  H
  C265     1.0000 0.93910  0.08120  0.42310  Biso   1.000  C
  C266     1.0000 0.97810  0.02400  0.44580  Biso   1.000  C
  H269     1.0000 0.96540  0.96670  0.44930  Biso   1.000  H
  H270     1.0000 0.99230  0.04900  0.47230  Biso   1.000  H
  C267     1.0000 0.01530  0.01310  0.42520  Biso   1.000  C
  H271     1.0000 0.00040  0.99490  0.39760  Biso   1.000  H
  H272     1.0000 0.03050  0.06950  0.42460  Biso   1.000  H
  C268     1.0000 0.08170  0.96970  0.47820  Biso   1.000  C
  C269     1.0000 0.11960  0.90470  0.49650  Biso   1.000  C
  C270     1.0000 0.15260  0.92660  0.53180  Biso   1.000  C
  H273     1.0000 0.15060  0.98050  0.54390  Biso   1.000  H
  C271     1.0000 0.07930  0.19200  0.55440  Biso   1.000  C
  H274     1.0000 0.08280  0.15360  0.53460  Biso   1.000  H
  C272     1.0000 0.11560  0.20000  0.58860  Biso   1.000  C
  H275     1.0000 0.14290  0.16600  0.59290  Biso   1.000  H
  C273     1.0000 0.11130  0.25750  0.61620  Biso   1.000  C
  H276     1.0000 0.13610  0.26600  0.63970  Biso   1.000  H
  C274     1.0000 0.07000  0.30420  0.60950  Biso   1.000  C
  H277     1.0000 0.06630  0.34400  0.62870  Biso   1.000  H
  C275     1.0000 0.03490  0.29280  0.57540  Biso   1.000  C
  C276     1.0000 0.99080  0.34490  0.56540  Biso   1.000  C
  H278     1.0000 0.98560  0.36740  0.58980  Biso   1.000  H
  H279     1.0000 0.96400  0.30820  0.55170  Biso   1.000  H
  C277     1.0000 0.99530  0.41980  0.53870  Biso   1.000  C
  H280     1.0000 0.01730  0.46270  0.55460  Biso   1.000  H
  H281     1.0000 0.00850  0.39780  0.51810  Biso   1.000  H
  C278     1.0000 0.91970  0.42240  0.49040  Biso   1.000  C
  C279     1.0000 0.87650  0.47120  0.46840  Biso   1.000  C
  C280     1.0000 0.86940  0.55750  0.47500  Biso   1.000  C
  H282     1.0000 0.89240  0.58860  0.49440  Biso   1.000  H
  C281     1.0000 0.78910  0.06050  0.54640  Biso   1.000  C
  H283     1.0000 0.76960  0.10630  0.53340  Biso   1.000  H
  C282     1.0000 0.82100  0.07730  0.58110  Biso   1.000  C
  H284     1.0000 0.82400  0.13360  0.59210  Biso   1.000  H
  C283     1.0000 0.84950  0.01090  0.60050  Biso   1.000  C
  H285     1.0000 0.87230  0.02090  0.62510  Biso   1.000  H
  C284     1.0000 0.84420  0.93050  0.58370  Biso   1.000  C
  H286     1.0000 0.86360  0.88430  0.59650  Biso   1.000  H
  C285     1.0000 0.81060  0.91670  0.54790  Biso   1.000  C
  C286     1.0000 0.80540  0.82790  0.52950  Biso   1.000  C
  H287     1.0000 0.77270  0.81890  0.51360  Biso   1.000  H
  H288     1.0000 0.81330  0.78370  0.55060  Biso   1.000  H
  C287     1.0000 0.83700  0.81770  0.50350  Biso   1.000  C
  H289     1.0000 0.82430  0.85140  0.47890  Biso   1.000  H
  H290     1.0000 0.86820  0.84070  0.51740  Biso   1.000  H
  C288     1.0000 0.81850  0.69150  0.45900  Biso   1.000  C
  C289     1.0000 0.82870  0.59880  0.45350  Biso   1.000  C
  C290     1.0000 0.79630  0.55300  0.42500  Biso   1.000  C
  H291     1.0000 0.76820  0.58050  0.41050  Biso   1.000  H
  C291     1.0000 0.63220  0.40790  0.19590  Biso   1.000  C
  H292     1.0000 0.64300  0.39960  0.17360  Biso   1.000  H
  C292     1.0000 0.58830  0.38140  0.19370  Biso   1.000  C
  H293     1.0000 0.56860  0.35670  0.17020  Biso   1.000  H
  C293     1.0000 0.57300  0.39160  0.22710  Biso   1.000  C
  H294     1.0000 0.54310  0.37190  0.22710  Biso   1.000  H
  C294     1.0000 0.60170  0.42990  0.25950  Biso   1.000  C
  H295     1.0000 0.59170  0.43840  0.28220  Biso   1.000  H
  C295     1.0000 0.64580  0.45700  0.25950  Biso   1.000  C
  C296     1.0000 0.67880  0.49650  0.29580  Biso   1.000  C
  H296     1.0000 0.66090  0.52610  0.31140  Biso   1.000  H
  H297     1.0000 0.69850  0.53990  0.28790  Biso   1.000  H
  C297     1.0000 0.70940  0.42670  0.32080  Biso   1.000  C
  H298     1.0000 0.68990  0.38640  0.33070  Biso   1.000  H
  H299     1.0000 0.72490  0.39350  0.30440  Biso   1.000  H
  C298     1.0000 0.76980  0.41860  0.38430  Biso   1.000  C
  C299     1.0000 0.80360  0.46770  0.41700  Biso   1.000  C
  C300     1.0000 0.84370  0.42680  0.43960  Biso   1.000  C
  H300     1.0000 0.84840  0.36750  0.43530  Biso   1.000  H
  Ag16     1.0000 0.73177  0.96331  0.47328  Biso   1.000  Ag
  Ag17     1.0000 0.48649  0.71643  0.48981  Biso   1.000  Ag
  Ag18     1.0000 0.22943  0.98875  0.22763  Biso   1.000  Ag
  O31      1.0000 0.69970  0.14030  0.49023  Biso   1.000  O
  O32      1.0000 0.72900  0.47820  0.59366  Biso   1.000  O
  O33      1.0000 0.58164  0.53920  0.49504  Biso   1.000  O
  O34      1.0000 0.42550  0.84710  0.48120  Biso   1.000  O
  O35      1.0000 0.29040  0.23170  0.43245  Biso   1.000  O
  O36      1.0000 0.26570  0.83980  0.38549  Biso   1.000  O
  N61      1.0000 0.68590  0.91840  0.41865  Biso   1.000  N
  N62      1.0000 0.64410  0.18400  0.43648  Biso   1.000  N
  H301     1.0000 0.62200  0.22150  0.42590  Biso   1.000  H
  N63      1.0000 0.79450  0.44040  0.74140  Biso   1.000  N
  N64      1.0000 0.74510  0.33990  0.61230  Biso   1.000  N
  H302     1.0000 0.73790  0.28570  0.60610  Biso   1.000  H
  N65      1.0000 0.43790  0.66260  0.43534  Biso   1.000  N
  N66      1.0000 0.55060  0.44990  0.44445  Biso   1.000  N
  H303     1.0000 0.55110  0.39890  0.43370  Biso   1.000  H
  N67      1.0000 0.53920  0.73580  0.54765  Biso   1.000  N
  N68      1.0000 0.45150  0.96190  0.51993  Biso   1.000  N
  H304     1.0000 0.44570  0.01340  0.52790  Biso   1.000  H
  N69      1.0000 0.28330  0.48150  0.52892  Biso   1.000  N
  N70      1.0000 0.34080  0.22680  0.49360  Biso   1.000  N
  H305     1.0000 0.35900  0.19340  0.51180  Biso   1.000  H
  N71      1.0000 0.16090  0.94520  0.22815  Biso   1.000  N
  N72      1.0000 0.24430  0.96560  0.35390  Biso   1.000  N
  H306     1.0000 0.24870  0.02170  0.35400  Biso   1.000  H
  C301     1.0000 0.70130  0.85290  0.40090  Biso   1.000  C
  H307     1.0000 0.72970  0.82560  0.41460  Biso   1.000  H
  C302     1.0000 0.67760  0.82360  0.36370  Biso   1.000  C
  H308     1.0000 0.68880  0.77560  0.35250  Biso   1.000  H
  C303     1.0000 0.63760  0.86540  0.34310  Biso   1.000  C
  H309     1.0000 0.62120  0.84820  0.31700  Biso   1.000  H
  C304     1.0000 0.62160  0.93220  0.36070  Biso   1.000  C
  H310     1.0000 0.59410  0.96190  0.34680  Biso   1.000  H
  C305     1.0000 0.64590  0.95680  0.39910  Biso   1.000  C
  C306     1.0000 0.62990  0.02980  0.41980  Biso   1.000  C
  H311     1.0000 0.63840  0.01780  0.44850  Biso   1.000  H
  H312     1.0000 0.59560  0.03520  0.40980  Biso   1.000  H
  C307     1.0000 0.65240  0.11290  0.41270  Biso   1.000  C
  H313     1.0000 0.68630  0.10380  0.41870  Biso   1.000  H
  H314     1.0000 0.64010  0.12850  0.38440  Biso   1.000  H
  C308     1.0000 0.66930  0.19310  0.47390  Biso   1.000  C
  C309     1.0000 0.66020  0.27240  0.49510  Biso   1.000  C
  C310     1.0000 0.62380  0.32740  0.47870  Biso   1.000  C
  H315     1.0000 0.60130  0.31190  0.45470  Biso   1.000  H
  C311     1.0000 0.82860  0.46560  0.77370  Biso   1.000  C
  H316     1.0000 0.82370  0.51510  0.78780  Biso   1.000  H
  C312     1.0000 0.87000  0.42190  0.78690  Biso   1.000  C
  H317     1.0000 0.89370  0.44150  0.80940  Biso   1.000  H
  C313     1.0000 0.87650  0.35040  0.76710  Biso   1.000  C
  H318     1.0000 0.90490  0.31900  0.77580  Biso   1.000  H
  C314     1.0000 0.84130  0.32310  0.73380  Biso   1.000  C
  H319     1.0000 0.84530  0.27290  0.71980  Biso   1.000  H
  C315     1.0000 0.80100  0.36980  0.72160  Biso   1.000  C
  C316     1.0000 0.76350  0.34580  0.68510  Biso   1.000  C
  H320     1.0000 0.73580  0.38230  0.68250  Biso   1.000  H
  H321     1.0000 0.75440  0.28480  0.68670  Biso   1.000  H
  C317     1.0000 0.78080  0.35820  0.64920  Biso   1.000  C
  H322     1.0000 0.79160  0.41840  0.64870  Biso   1.000  H
  H323     1.0000 0.80770  0.31970  0.65150  Biso   1.000  H
  C318     1.0000 0.72250  0.40070  0.58740  Biso   1.000  C
  C319     1.0000 0.68830  0.37070  0.54950  Biso   1.000  C
  C320     1.0000 0.69210  0.29330  0.53080  Biso   1.000  C
  H324     1.0000 0.71690  0.25470  0.54260  Biso   1.000  H
  C321     1.0000 0.40440  0.71560  0.41340  Biso   1.000  C
  H325     1.0000 0.40340  0.77370  0.42160  Biso   1.000  H
  C322     1.0000 0.37220  0.68840  0.38040  Biso   1.000  C
  H326     1.0000 0.34910  0.72730  0.36580  Biso   1.000  H
  C323     1.0000 0.37250  0.60600  0.36780  Biso   1.000  C
  H327     1.0000 0.34980  0.58640  0.34470  Biso   1.000  H
  C324     1.0000 0.40640  0.55160  0.38950  Biso   1.000  C
  H328     1.0000 0.40740  0.49340  0.38140  Biso   1.000  H
  C325     1.0000 0.43910  0.58120  0.42310  Biso   1.000  C
  C326     1.0000 0.47810  0.52400  0.44580  Biso   1.000  C
  H329     1.0000 0.46540  0.46670  0.44930  Biso   1.000  H
  H330     1.0000 0.49230  0.54900  0.47230  Biso   1.000  H
  C327     1.0000 0.51530  0.51310  0.42520  Biso   1.000  C
  H331     1.0000 0.50040  0.49490  0.39760  Biso   1.000  H
  H332     1.0000 0.53050  0.56950  0.42460  Biso   1.000  H
  C328     1.0000 0.58170  0.46970  0.47820  Biso   1.000  C
  C329     1.0000 0.61960  0.40470  0.49650  Biso   1.000  C
  C330     1.0000 0.65260  0.42660  0.53180  Biso   1.000  C
  H333     1.0000 0.65060  0.48050  0.54390  Biso   1.000  H
  C331     1.0000 0.57930  0.69200  0.55440  Biso   1.000  C
  H334     1.0000 0.58280  0.65360  0.53460  Biso   1.000  H
  C332     1.0000 0.61560  0.70000  0.58860  Biso   1.000  C
  H335     1.0000 0.64290  0.66600  0.59290  Biso   1.000  H
  C333     1.0000 0.61130  0.75750  0.61620  Biso   1.000  C
  H336     1.0000 0.63610  0.76600  0.63970  Biso   1.000  H
  C334     1.0000 0.57000  0.80420  0.60950  Biso   1.000  C
  H337     1.0000 0.56630  0.84400  0.62870  Biso   1.000  H
  C335     1.0000 0.53490  0.79280  0.57540  Biso   1.000  C
  C336     1.0000 0.49080  0.84490  0.56540  Biso   1.000  C
  H338     1.0000 0.48560  0.86740  0.58980  Biso   1.000  H
  H339     1.0000 0.46400  0.80820  0.55170  Biso   1.000  H
  C337     1.0000 0.49530  0.91980  0.53870  Biso   1.000  C
  H340     1.0000 0.51730  0.96270  0.55460  Biso   1.000  H
  H341     1.0000 0.50850  0.89780  0.51810  Biso   1.000  H
  C338     1.0000 0.41970  0.92240  0.49040  Biso   1.000  C
  C339     1.0000 0.37650  0.97120  0.46840  Biso   1.000  C
  C340     1.0000 0.36940  0.05750  0.47500  Biso   1.000  C
  H342     1.0000 0.39240  0.08860  0.49440  Biso   1.000  H
  C341     1.0000 0.28910  0.56050  0.54640  Biso   1.000  C
  H343     1.0000 0.26960  0.60630  0.53340  Biso   1.000  H
  C342     1.0000 0.32100  0.57730  0.58110  Biso   1.000  C
  H344     1.0000 0.32400  0.63360  0.59210  Biso   1.000  H
  C343     1.0000 0.34950  0.51090  0.60050  Biso   1.000  C
  H345     1.0000 0.37230  0.52090  0.62510  Biso   1.000  H
  C344     1.0000 0.34420  0.43050  0.58370  Biso   1.000  C
  H346     1.0000 0.36360  0.38430  0.59650  Biso   1.000  H
  C345     1.0000 0.31060  0.41670  0.54790  Biso   1.000  C
  C346     1.0000 0.30540  0.32790  0.52950  Biso   1.000  C
  H347     1.0000 0.27270  0.31890  0.51360  Biso   1.000  H
  H348     1.0000 0.31330  0.28370  0.55060  Biso   1.000  H
  C347     1.0000 0.33700  0.31770  0.50350  Biso   1.000  C
  H349     1.0000 0.32430  0.35140  0.47890  Biso   1.000  H
  H350     1.0000 0.36820  0.34070  0.51740  Biso   1.000  H
  C348     1.0000 0.31850  0.19150  0.45900  Biso   1.000  C
  C349     1.0000 0.32870  0.09880  0.45350  Biso   1.000  C
  C350     1.0000 0.29630  0.05300  0.42500  Biso   1.000  C
  H351     1.0000 0.26820  0.08050  0.41050  Biso   1.000  H
  C351     1.0000 0.13220  0.90790  0.19590  Biso   1.000  C
  H352     1.0000 0.14300  0.89960  0.17360  Biso   1.000  H
  C352     1.0000 0.08830  0.88140  0.19370  Biso   1.000  C
  H353     1.0000 0.06860  0.85670  0.17020  Biso   1.000  H
  C353     1.0000 0.07300  0.89160  0.22710  Biso   1.000  C
  H354     1.0000 0.04310  0.87190  0.22710  Biso   1.000  H
  C354     1.0000 0.10170  0.92990  0.25950  Biso   1.000  C
  H355     1.0000 0.09170  0.93840  0.28220  Biso   1.000  H
  C355     1.0000 0.14580  0.95700  0.25950  Biso   1.000  C
  C356     1.0000 0.17880  0.99650  0.29580  Biso   1.000  C
  H356     1.0000 0.16090  0.02610  0.31140  Biso   1.000  H
  H357     1.0000 0.19850  0.03990  0.28790  Biso   1.000  H
  C357     1.0000 0.20940  0.92670  0.32080  Biso   1.000  C
  H358     1.0000 0.18990  0.88640  0.33070  Biso   1.000  H
  H359     1.0000 0.22490  0.89350  0.30440  Biso   1.000  H
  C358     1.0000 0.26980  0.91860  0.38430  Biso   1.000  C
  C359     1.0000 0.30360  0.96770  0.41700  Biso   1.000  C
  C360     1.0000 0.34370  0.92680  0.43960  Biso   1.000  C
  H360     1.0000 0.34840  0.86750  0.43530  Biso   1.000  H
  Ag19     1.0000 0.23177  0.53669  0.97328  Biso   1.000  Ag
  Ag20     1.0000 0.98649  0.78357  0.98981  Biso   1.000  Ag
  Ag21     1.0000 0.72943  0.51125  0.72763  Biso   1.000  Ag
  O37      1.0000 0.19970  0.35970  0.99023  Biso   1.000  O
  O38      1.0000 0.22900  0.02180  0.09366  Biso   1.000  O
  O39      1.0000 0.08164  0.96080  0.99504  Biso   1.000  O
  O40      1.0000 0.92550  0.65290  0.98120  Biso   1.000  O
  O41      1.0000 0.79040  0.26830  0.93245  Biso   1.000  O
  O42      1.0000 0.76570  0.66020  0.88549  Biso   1.000  O
  N73      1.0000 0.18590  0.58160  0.91865  Biso   1.000  N
  N74      1.0000 0.14410  0.31600  0.93648  Biso   1.000  N
  H361     1.0000 0.12200  0.27850  0.92590  Biso   1.000  H
  N75      1.0000 0.29450  0.05960  0.24140  Biso   1.000  N
  N76      1.0000 0.24510  0.16010  0.11230  Biso   1.000  N
  H362     1.0000 0.23790  0.21430  0.10610  Biso   1.000  H
  N77      1.0000 0.93790  0.83740  0.93534  Biso   1.000  N
  N78      1.0000 0.05060  0.05010  0.94445  Biso   1.000  N
  H363     1.0000 0.05110  0.10110  0.93370  Biso   1.000  H
  N79      1.0000 0.03920  0.76420  0.04765  Biso   1.000  N
  N80      1.0000 0.95150  0.53810  0.01993  Biso   1.000  N
  H364     1.0000 0.94570  0.48660  0.02790  Biso   1.000  H
  N81      1.0000 0.78330  0.01850  0.02892  Biso   1.000  N
  N82      1.0000 0.84080  0.27320  0.99360  Biso   1.000  N
  H365     1.0000 0.85900  0.30660  0.01180  Biso   1.000  H
  N83      1.0000 0.66090  0.55480  0.72815  Biso   1.000  N
  N84      1.0000 0.74430  0.53440  0.85390  Biso   1.000  N
  H366     1.0000 0.74870  0.47830  0.85400  Biso   1.000  H
  C361     1.0000 0.20130  0.64710  0.90090  Biso   1.000  C
  H367     1.0000 0.22970  0.67440  0.91460  Biso   1.000  H
  C362     1.0000 0.17760  0.67640  0.86370  Biso   1.000  C
  H368     1.0000 0.18880  0.72440  0.85250  Biso   1.000  H
  C363     1.0000 0.13760  0.63460  0.84310  Biso   1.000  C
  H369     1.0000 0.12120  0.65180  0.81700  Biso   1.000  H
  C364     1.0000 0.12160  0.56780  0.86070  Biso   1.000  C
  H370     1.0000 0.09410  0.53810  0.84680  Biso   1.000  H
  C365     1.0000 0.14590  0.54320  0.89910  Biso   1.000  C
  C366     1.0000 0.12990  0.47020  0.91980  Biso   1.000  C
  H371     1.0000 0.13840  0.48220  0.94850  Biso   1.000  H
  H372     1.0000 0.09560  0.46480  0.90980  Biso   1.000  H
  C367     1.0000 0.15240  0.38710  0.91270  Biso   1.000  C
  H373     1.0000 0.18630  0.39620  0.91870  Biso   1.000  H
  H374     1.0000 0.14010  0.37150  0.88440  Biso   1.000  H
  C368     1.0000 0.16930  0.30690  0.97390  Biso   1.000  C
  C369     1.0000 0.16020  0.22760  0.99510  Biso   1.000  C
  C370     1.0000 0.12380  0.17260  0.97870  Biso   1.000  C
  H375     1.0000 0.10130  0.18810  0.95470  Biso   1.000  H
  C371     1.0000 0.32860  0.03440  0.27370  Biso   1.000  C
  H376     1.0000 0.32370  0.98490  0.28780  Biso   1.000  H
  C372     1.0000 0.37000  0.07810  0.28690  Biso   1.000  C
  H377     1.0000 0.39370  0.05850  0.30940  Biso   1.000  H
  C373     1.0000 0.37650  0.14960  0.26710  Biso   1.000  C
  H378     1.0000 0.40490  0.18100  0.27580  Biso   1.000  H
  C374     1.0000 0.34130  0.17690  0.23380  Biso   1.000  C
  H379     1.0000 0.34530  0.22710  0.21980  Biso   1.000  H
  C375     1.0000 0.30100  0.13020  0.22160  Biso   1.000  C
  C376     1.0000 0.26350  0.15420  0.18510  Biso   1.000  C
  H380     1.0000 0.23580  0.11770  0.18250  Biso   1.000  H
  H381     1.0000 0.25440  0.21520  0.18670  Biso   1.000  H
  C377     1.0000 0.28080  0.14180  0.14920  Biso   1.000  C
  H382     1.0000 0.29160  0.08160  0.14870  Biso   1.000  H
  H383     1.0000 0.30770  0.18030  0.15150  Biso   1.000  H
  C378     1.0000 0.22250  0.09930  0.08740  Biso   1.000  C
  C379     1.0000 0.18830  0.12930  0.04950  Biso   1.000  C
  C380     1.0000 0.19210  0.20670  0.03080  Biso   1.000  C
  H384     1.0000 0.21690  0.24530  0.04260  Biso   1.000  H
  C381     1.0000 0.90440  0.78440  0.91340  Biso   1.000  C
  H385     1.0000 0.90340  0.72630  0.92160  Biso   1.000  H
  C382     1.0000 0.87220  0.81160  0.88040  Biso   1.000  C
  H386     1.0000 0.84910  0.77270  0.86580  Biso   1.000  H
  C383     1.0000 0.87250  0.89400  0.86780  Biso   1.000  C
  H387     1.0000 0.84980  0.91360  0.84470  Biso   1.000  H
  C384     1.0000 0.90640  0.94840  0.88950  Biso   1.000  C
  H388     1.0000 0.90740  0.00660  0.88140  Biso   1.000  H
  C385     1.0000 0.93910  0.91880  0.92310  Biso   1.000  C
  C386     1.0000 0.97810  0.97600  0.94580  Biso   1.000  C
  H389     1.0000 0.96540  0.03330  0.94930  Biso   1.000  H
  H390     1.0000 0.99230  0.95100  0.97230  Biso   1.000  H
  C387     1.0000 0.01530  0.98690  0.92520  Biso   1.000  C
  H391     1.0000 0.00040  0.00510  0.89760  Biso   1.000  H
  H392     1.0000 0.03050  0.93050  0.92460  Biso   1.000  H
  C388     1.0000 0.08170  0.03030  0.97820  Biso   1.000  C
  C389     1.0000 0.11960  0.09530  0.99650  Biso   1.000  C
  C390     1.0000 0.15260  0.07340  0.03180  Biso   1.000  C
  H393     1.0000 0.15060  0.01950  0.04390  Biso   1.000  H
  C391     1.0000 0.07930  0.80800  0.05440  Biso   1.000  C
  H394     1.0000 0.08280  0.84640  0.03460  Biso   1.000  H
  C392     1.0000 0.11560  0.80000  0.08860  Biso   1.000  C
  H395     1.0000 0.14290  0.83400  0.09290  Biso   1.000  H
  C393     1.0000 0.11130  0.74250  0.11620  Biso   1.000  C
  H396     1.0000 0.13610  0.73400  0.13970  Biso   1.000  H
  C394     1.0000 0.07000  0.69580  0.10950  Biso   1.000  C
  H397     1.0000 0.06630  0.65600  0.12870  Biso   1.000  H
  C395     1.0000 0.03490  0.70720  0.07540  Biso   1.000  C
  C396     1.0000 0.99080  0.65510  0.06540  Biso   1.000  C
  H398     1.0000 0.98560  0.63260  0.08980  Biso   1.000  H
  H399     1.0000 0.96400  0.69180  0.05170  Biso   1.000  H
  C397     1.0000 0.99530  0.58020  0.03870  Biso   1.000  C
  H400     1.0000 0.01730  0.53730  0.05460  Biso   1.000  H
  H401     1.0000 0.00850  0.60220  0.01810  Biso   1.000  H
  C398     1.0000 0.91970  0.57760  0.99040  Biso   1.000  C
  C399     1.0000 0.87650  0.52880  0.96840  Biso   1.000  C
  C400     1.0000 0.86940  0.44250  0.97500  Biso   1.000  C
  H402     1.0000 0.89240  0.41140  0.99440  Biso   1.000  H
  C401     1.0000 0.78910  0.93950  0.04640  Biso   1.000  C
  H403     1.0000 0.76960  0.89370  0.03340  Biso   1.000  H
  C402     1.0000 0.82100  0.92270  0.08110  Biso   1.000  C
  H404     1.0000 0.82400  0.86640  0.09210  Biso   1.000  H
  C403     1.0000 0.84950  0.98910  0.10050  Biso   1.000  C
  H405     1.0000 0.87230  0.97910  0.12510  Biso   1.000  H
  C404     1.0000 0.84420  0.06950  0.08370  Biso   1.000  C
  H406     1.0000 0.86360  0.11570  0.09650  Biso   1.000  H
  C405     1.0000 0.81060  0.08330  0.04790  Biso   1.000  C
  C406     1.0000 0.80540  0.17210  0.02950  Biso   1.000  C
  H407     1.0000 0.77270  0.18110  0.01360  Biso   1.000  H
  H408     1.0000 0.81330  0.21630  0.05060  Biso   1.000  H
  C407     1.0000 0.83700  0.18230  0.00350  Biso   1.000  C
  H409     1.0000 0.82430  0.14860  0.97890  Biso   1.000  H
  H410     1.0000 0.86820  0.15930  0.01740  Biso   1.000  H
  C408     1.0000 0.81850  0.30850  0.95900  Biso   1.000  C
  C409     1.0000 0.82870  0.40120  0.95350  Biso   1.000  C
  C410     1.0000 0.79630  0.44700  0.92500  Biso   1.000  C
  H411     1.0000 0.76820  0.41950  0.91050  Biso   1.000  H
  C411     1.0000 0.63220  0.59210  0.69590  Biso   1.000  C
  H412     1.0000 0.64300  0.60040  0.67360  Biso   1.000  H
  C412     1.0000 0.58830  0.61860  0.69370  Biso   1.000  C
  H413     1.0000 0.56860  0.64330  0.67020  Biso   1.000  H
  C413     1.0000 0.57300  0.60840  0.72710  Biso   1.000  C
  H414     1.0000 0.54310  0.62810  0.72710  Biso   1.000  H
  C414     1.0000 0.60170  0.57010  0.75950  Biso   1.000  C
  H415     1.0000 0.59170  0.56160  0.78220  Biso   1.000  H
  C415     1.0000 0.64580  0.54300  0.75950  Biso   1.000  C
  C416     1.0000 0.67880  0.50350  0.79580  Biso   1.000  C
  H416     1.0000 0.66090  0.47390  0.81140  Biso   1.000  H
  H417     1.0000 0.69850  0.46010  0.78790  Biso   1.000  H
  C417     1.0000 0.70940  0.57330  0.82080  Biso   1.000  C
  H418     1.0000 0.68990  0.61360  0.83070  Biso   1.000  H
  H419     1.0000 0.72490  0.60650  0.80440  Biso   1.000  H
  C418     1.0000 0.76980  0.58140  0.88430  Biso   1.000  C
  C419     1.0000 0.80360  0.53230  0.91700  Biso   1.000  C
  C420     1.0000 0.84370  0.57320  0.93960  Biso   1.000  C
  H420     1.0000 0.84840  0.63250  0.93530  Biso   1.000  H
  Ag22     1.0000 0.73177  0.03669  0.97328  Biso   1.000  Ag
  Ag23     1.0000 0.48649  0.28357  0.98981  Biso   1.000  Ag
  Ag24     1.0000 0.22943  0.01125  0.72763  Biso   1.000  Ag
  O43      1.0000 0.69970  0.85970  0.99023  Biso   1.000  O
  O44      1.0000 0.72900  0.52180  0.09366  Biso   1.000  O
  O45      1.0000 0.58164  0.46080  0.99504  Biso   1.000  O
  O46      1.0000 0.42550  0.15290  0.98120  Biso   1.000  O
  O47      1.0000 0.29040  0.76830  0.93245  Biso   1.000  O
  O48      1.0000 0.26570  0.16020  0.88549  Biso   1.000  O
  N85      1.0000 0.68590  0.08160  0.91865  Biso   1.000  N
  N86      1.0000 0.64410  0.81600  0.93648  Biso   1.000  N
  H421     1.0000 0.62200  0.77850  0.92590  Biso   1.000  H
  N87      1.0000 0.79450  0.55960  0.24140  Biso   1.000  N
  N88      1.0000 0.74510  0.66010  0.11230  Biso   1.000  N
  H422     1.0000 0.73790  0.71430  0.10610  Biso   1.000  H
  N89      1.0000 0.43790  0.33740  0.93534  Biso   1.000  N
  N90      1.0000 0.55060  0.55010  0.94445  Biso   1.000  N
  H423     1.0000 0.55110  0.60110  0.93370  Biso   1.000  H
  N91      1.0000 0.53920  0.26420  0.04765  Biso   1.000  N
  N92      1.0000 0.45150  0.03810  0.01993  Biso   1.000  N
  H424     1.0000 0.44570  0.98660  0.02790  Biso   1.000  H
  N93      1.0000 0.28330  0.51850  0.02892  Biso   1.000  N
  N94      1.0000 0.34080  0.77320  0.99360  Biso   1.000  N
  H425     1.0000 0.35900  0.80660  0.01180  Biso   1.000  H
  N95      1.0000 0.16090  0.05480  0.72815  Biso   1.000  N
  N96      1.0000 0.24430  0.03440  0.85390  Biso   1.000  N
  H426     1.0000 0.24870  0.97830  0.85400  Biso   1.000  H
  C421     1.0000 0.70130  0.14710  0.90090  Biso   1.000  C
  H427     1.0000 0.72970  0.17440  0.91460  Biso   1.000  H
  C422     1.0000 0.67760  0.17640  0.86370  Biso   1.000  C
  H428     1.0000 0.68880  0.22440  0.85250  Biso   1.000  H
  C423     1.0000 0.63760  0.13460  0.84310  Biso   1.000  C
  H429     1.0000 0.62120  0.15180  0.81700  Biso   1.000  H
  C424     1.0000 0.62160  0.06780  0.86070  Biso   1.000  C
  H430     1.0000 0.59410  0.03810  0.84680  Biso   1.000  H
  C425     1.0000 0.64590  0.04320  0.89910  Biso   1.000  C
  C426     1.0000 0.62990  0.97020  0.91980  Biso   1.000  C
  H431     1.0000 0.63840  0.98220  0.94850  Biso   1.000  H
  H432     1.0000 0.59560  0.96480  0.90980  Biso   1.000  H
  C427     1.0000 0.65240  0.88710  0.91270  Biso   1.000  C
  H433     1.0000 0.68630  0.89620  0.91870  Biso   1.000  H
  H434     1.0000 0.64010  0.87150  0.88440  Biso   1.000  H
  C428     1.0000 0.66930  0.80690  0.97390  Biso   1.000  C
  C429     1.0000 0.66020  0.72760  0.99510  Biso   1.000  C
  C430     1.0000 0.62380  0.67260  0.97870  Biso   1.000  C
  H435     1.0000 0.60130  0.68810  0.95470  Biso   1.000  H
  C431     1.0000 0.82860  0.53440  0.27370  Biso   1.000  C
  H436     1.0000 0.82370  0.48490  0.28780  Biso   1.000  H
  C432     1.0000 0.87000  0.57810  0.28690  Biso   1.000  C
  H437     1.0000 0.89370  0.55850  0.30940  Biso   1.000  H
  C433     1.0000 0.87650  0.64960  0.26710  Biso   1.000  C
  H438     1.0000 0.90490  0.68100  0.27580  Biso   1.000  H
  C434     1.0000 0.84130  0.67690  0.23380  Biso   1.000  C
  H439     1.0000 0.84530  0.72710  0.21980  Biso   1.000  H
  C435     1.0000 0.80100  0.63020  0.22160  Biso   1.000  C
  C436     1.0000 0.76350  0.65420  0.18510  Biso   1.000  C
  H440     1.0000 0.73580  0.61770  0.18250  Biso   1.000  H
  H441     1.0000 0.75440  0.71520  0.18670  Biso   1.000  H
  C437     1.0000 0.78080  0.64180  0.14920  Biso   1.000  C
  H442     1.0000 0.79160  0.58160  0.14870  Biso   1.000  H
  H443     1.0000 0.80770  0.68030  0.15150  Biso   1.000  H
  C438     1.0000 0.72250  0.59930  0.08740  Biso   1.000  C
  C439     1.0000 0.68830  0.62930  0.04950  Biso   1.000  C
  C440     1.0000 0.69210  0.70670  0.03080  Biso   1.000  C
  H444     1.0000 0.71690  0.74530  0.04260  Biso   1.000  H
  C441     1.0000 0.40440  0.28440  0.91340  Biso   1.000  C
  H445     1.0000 0.40340  0.22630  0.92160  Biso   1.000  H
  C442     1.0000 0.37220  0.31160  0.88040  Biso   1.000  C
  H446     1.0000 0.34910  0.27270  0.86580  Biso   1.000  H
  C443     1.0000 0.37250  0.39400  0.86780  Biso   1.000  C
  H447     1.0000 0.34980  0.41360  0.84470  Biso   1.000  H
  C444     1.0000 0.40640  0.44840  0.88950  Biso   1.000  C
  H448     1.0000 0.40740  0.50660  0.88140  Biso   1.000  H
  C445     1.0000 0.43910  0.41880  0.92310  Biso   1.000  C
  C446     1.0000 0.47810  0.47600  0.94580  Biso   1.000  C
  H449     1.0000 0.46540  0.53330  0.94930  Biso   1.000  H
  H450     1.0000 0.49230  0.45100  0.97230  Biso   1.000  H
  C447     1.0000 0.51530  0.48690  0.92520  Biso   1.000  C
  H451     1.0000 0.50040  0.50510  0.89760  Biso   1.000  H
  H452     1.0000 0.53050  0.43050  0.92460  Biso   1.000  H
  C448     1.0000 0.58170  0.53030  0.97820  Biso   1.000  C
  C449     1.0000 0.61960  0.59530  0.99650  Biso   1.000  C
  C450     1.0000 0.65260  0.57340  0.03180  Biso   1.000  C
  H453     1.0000 0.65060  0.51950  0.04390  Biso   1.000  H
  C451     1.0000 0.57930  0.30800  0.05440  Biso   1.000  C
  H454     1.0000 0.58280  0.34640  0.03460  Biso   1.000  H
  C452     1.0000 0.61560  0.30000  0.08860  Biso   1.000  C
  H455     1.0000 0.64290  0.33400  0.09290  Biso   1.000  H
  C453     1.0000 0.61130  0.24250  0.11620  Biso   1.000  C
  H456     1.0000 0.63610  0.23400  0.13970  Biso   1.000  H
  C454     1.0000 0.57000  0.19580  0.10950  Biso   1.000  C
  H457     1.0000 0.56630  0.15600  0.12870  Biso   1.000  H
  C455     1.0000 0.53490  0.20720  0.07540  Biso   1.000  C
  C456     1.0000 0.49080  0.15510  0.06540  Biso   1.000  C
  H458     1.0000 0.48560  0.13260  0.08980  Biso   1.000  H
  H459     1.0000 0.46400  0.19180  0.05170  Biso   1.000  H
  C457     1.0000 0.49530  0.08020  0.03870  Biso   1.000  C
  H460     1.0000 0.51730  0.03730  0.05460  Biso   1.000  H
  H461     1.0000 0.50850  0.10220  0.01810  Biso   1.000  H
  C458     1.0000 0.41970  0.07760  0.99040  Biso   1.000  C
  C459     1.0000 0.37650  0.02880  0.96840  Biso   1.000  C
  C460     1.0000 0.36940  0.94250  0.97500  Biso   1.000  C
  H462     1.0000 0.39240  0.91140  0.99440  Biso   1.000  H
  C461     1.0000 0.28910  0.43950  0.04640  Biso   1.000  C
  H463     1.0000 0.26960  0.39370  0.03340  Biso   1.000  H
  C462     1.0000 0.32100  0.42270  0.08110  Biso   1.000  C
  H464     1.0000 0.32400  0.36640  0.09210  Biso   1.000  H
  C463     1.0000 0.34950  0.48910  0.10050  Biso   1.000  C
  H465     1.0000 0.37230  0.47910  0.12510  Biso   1.000  H
  C464     1.0000 0.34420  0.56950  0.08370  Biso   1.000  C
  H466     1.0000 0.36360  0.61570  0.09650  Biso   1.000  H
  C465     1.0000 0.31060  0.58330  0.04790  Biso   1.000  C
  C466     1.0000 0.30540  0.67210  0.02950  Biso   1.000  C
  H467     1.0000 0.27270  0.68110  0.01360  Biso   1.000  H
  H468     1.0000 0.31330  0.71630  0.05060  Biso   1.000  H
  C467     1.0000 0.33700  0.68230  0.00350  Biso   1.000  C
  H469     1.0000 0.32430  0.64860  0.97890  Biso   1.000  H
  H470     1.0000 0.36820  0.65930  0.01740  Biso   1.000  H
  C468     1.0000 0.31850  0.80850  0.95900  Biso   1.000  C
  C469     1.0000 0.32870  0.90120  0.95350  Biso   1.000  C
  C470     1.0000 0.29630  0.94700  0.92500  Biso   1.000  C
  H471     1.0000 0.26820  0.91950  0.91050  Biso   1.000  H
  C471     1.0000 0.13220  0.09210  0.69590  Biso   1.000  C
  H472     1.0000 0.14300  0.10040  0.67360  Biso   1.000  H
  C472     1.0000 0.08830  0.11860  0.69370  Biso   1.000  C
  H473     1.0000 0.06860  0.14330  0.67020  Biso   1.000  H
  C473     1.0000 0.07300  0.10840  0.72710  Biso   1.000  C
  H474     1.0000 0.04310  0.12810  0.72710  Biso   1.000  H
  C474     1.0000 0.10170  0.07010  0.75950  Biso   1.000  C
  H475     1.0000 0.09170  0.06160  0.78220  Biso   1.000  H
  C475     1.0000 0.14580  0.04300  0.75950  Biso   1.000  C
  C476     1.0000 0.17880  0.00350  0.79580  Biso   1.000  C
  H476     1.0000 0.16090  0.97390  0.81140  Biso   1.000  H
  H477     1.0000 0.19850  0.96010  0.78790  Biso   1.000  H
  C477     1.0000 0.20940  0.07330  0.82080  Biso   1.000  C
  H478     1.0000 0.18990  0.11360  0.83070  Biso   1.000  H
  H479     1.0000 0.22490  0.10650  0.80440  Biso   1.000  H
  C478     1.0000 0.26980  0.08140  0.88430  Biso   1.000  C
  C479     1.0000 0.30360  0.03230  0.91700  Biso   1.000  C
  C480     1.0000 0.34370  0.07320  0.93960  Biso   1.000  C
  H480     1.0000 0.34840  0.13250  0.93530  Biso   1.000  H
