data_image0
_cell_length_a       13.8844
_cell_length_b       28.3579
_cell_length_c       44.8125
_cell_angle_alpha    90
_cell_angle_beta     90
_cell_angle_gamma    90

_symmetry_space_group_name_H-M    P 1
_symmetry_int_tables_number       1

loop_
  _symmetry_equiv_pos_as_xyz
  'x, y, z'

loop_
  _atom_site_label
  _atom_site_occupancy
  _atom_site_fract_x
  _atom_site_fract_y
  _atom_site_fract_z
  _atom_site_thermal_displace_type
  _atom_site_B_iso_or_equiv
  _atom_site_type_symbol
  Zn1      1.0000 0.14332  0.05084  0.58176  Biso   1.000  Zn
  Zn2      1.0000 0.12392  0.51978  0.58442  Biso   1.000  Zn
  Zn3      1.0000 0.16759  0.24008  0.31651  Biso   1.000  Zn
  Zn4      1.0000 0.85668  0.44916  0.08176  Biso   1.000  Zn
  Zn5      1.0000 0.87608  0.98022  0.08442  Biso   1.000  Zn
  Zn6      1.0000 0.83241  0.25992  0.81651  Biso   1.000  Zn
  Zn7      1.0000 0.64332  0.94916  0.91824  Biso   1.000  Zn
  Zn8      1.0000 0.62392  0.48022  0.91558  Biso   1.000  Zn
  Zn9      1.0000 0.66759  0.75992  0.18349  Biso   1.000  Zn
  Zn10     1.0000 0.35668  0.55084  0.41824  Biso   1.000  Zn
  Zn11     1.0000 0.37608  0.01978  0.41558  Biso   1.000  Zn
  Zn12     1.0000 0.33241  0.74008  0.68349  Biso   1.000  Zn
  H1       1.0000 0.51790  0.03720  0.46550  Biso   1.000  H
  H2       1.0000 0.67070  0.06610  0.47250  Biso   1.000  H
  H3       1.0000 0.52800  0.07300  0.38090  Biso   1.000  H
  H4       1.0000 0.68250  0.10190  0.38560  Biso   1.000  H
  H5       1.0000 0.96020  0.22060  0.33250  Biso   1.000  H
  H6       1.0000 0.87050  0.18170  0.36850  Biso   1.000  H
  H7       1.0000 0.20190  0.18130  0.36960  Biso   1.000  H
  H8       1.0000 0.11970  0.14220  0.40730  Biso   1.000  H
  H9       1.0000 0.19670  0.07780  0.51840  Biso   1.000  H
  H10      1.0000 0.12190  0.09720  0.47410  Biso   1.000  H
  H11      1.0000 0.95130  0.03320  0.55260  Biso   1.000  H
  H12      1.0000 0.87050  0.05310  0.50920  Biso   1.000  H
  H13      1.0000 0.06660  0.08730  0.63980  Biso   1.000  H
  H14      1.0000 0.03910  0.15670  0.66450  Biso   1.000  H
  H15      1.0000 0.12930  0.15560  0.56540  Biso   1.000  H
  H16      1.0000 0.09970  0.22760  0.58840  Biso   1.000  H
  H17      1.0000 0.10600  0.41630  0.56840  Biso   1.000  H
  H18      1.0000 0.08690  0.34370  0.59090  Biso   1.000  H
  H19      1.0000 0.06270  0.48150  0.64450  Biso   1.000  H
  H20      1.0000 0.04020  0.41050  0.66870  Biso   1.000  H
  H21      1.0000 0.89030  0.33700  0.77460  Biso   1.000  H
  H22      1.0000 0.95130  0.34690  0.72750  Biso   1.000  H
  H23      1.0000 0.94300  0.20090  0.77250  Biso   1.000  H
  H24      1.0000 0.00290  0.20670  0.72390  Biso   1.000  H
  H25      1.0000 0.48210  0.46280  0.96550  Biso   1.000  H
  H26      1.0000 0.32930  0.43390  0.97250  Biso   1.000  H
  H27      1.0000 0.47200  0.42700  0.88090  Biso   1.000  H
  H28      1.0000 0.31750  0.39810  0.88560  Biso   1.000  H
  H29      1.0000 0.03980  0.27940  0.83250  Biso   1.000  H
  H30      1.0000 0.12950  0.31830  0.86850  Biso   1.000  H
  H31      1.0000 0.79810  0.31870  0.86960  Biso   1.000  H
  H32      1.0000 0.88030  0.35780  0.90730  Biso   1.000  H
  H33      1.0000 0.80330  0.42220  0.01840  Biso   1.000  H
  H34      1.0000 0.87810  0.40280  0.97410  Biso   1.000  H
  H35      1.0000 0.04870  0.46680  0.05260  Biso   1.000  H
  H36      1.0000 0.12950  0.44690  0.00920  Biso   1.000  H
  H37      1.0000 0.93340  0.41270  0.13980  Biso   1.000  H
  H38      1.0000 0.96090  0.34330  0.16450  Biso   1.000  H
  H39      1.0000 0.87070  0.34440  0.06540  Biso   1.000  H
  H40      1.0000 0.90030  0.27240  0.08840  Biso   1.000  H
  H41      1.0000 0.89400  0.08370  0.06840  Biso   1.000  H
  H42      1.0000 0.91310  0.15630  0.09090  Biso   1.000  H
  H43      1.0000 0.93730  0.01850  0.14450  Biso   1.000  H
  H44      1.0000 0.95980  0.08950  0.16870  Biso   1.000  H
  H45      1.0000 0.10970  0.16300  0.27460  Biso   1.000  H
  H46      1.0000 0.04870  0.15310  0.22750  Biso   1.000  H
  H47      1.0000 0.05700  0.29910  0.27250  Biso   1.000  H
  H48      1.0000 0.99710  0.29330  0.22390  Biso   1.000  H
  H49      1.0000 0.01790  0.96280  0.03450  Biso   1.000  H
  H50      1.0000 0.17070  0.93390  0.02750  Biso   1.000  H
  H51      1.0000 0.02800  0.92700  0.11910  Biso   1.000  H
  H52      1.0000 0.18250  0.89810  0.11440  Biso   1.000  H
  H53      1.0000 0.46020  0.77940  0.16750  Biso   1.000  H
  H54      1.0000 0.37050  0.81830  0.13150  Biso   1.000  H
  H55      1.0000 0.70190  0.81870  0.13040  Biso   1.000  H
  H56      1.0000 0.61970  0.85780  0.09270  Biso   1.000  H
  H57      1.0000 0.69670  0.92220  0.98160  Biso   1.000  H
  H58      1.0000 0.62190  0.90280  0.02590  Biso   1.000  H
  H59      1.0000 0.45130  0.96680  0.94740  Biso   1.000  H
  H60      1.0000 0.37050  0.94690  0.99080  Biso   1.000  H
  H61      1.0000 0.56660  0.91270  0.86020  Biso   1.000  H
  H62      1.0000 0.53910  0.84330  0.83550  Biso   1.000  H
  H63      1.0000 0.62930  0.84440  0.93460  Biso   1.000  H
  H64      1.0000 0.59970  0.77240  0.91160  Biso   1.000  H
  H65      1.0000 0.60600  0.58370  0.93160  Biso   1.000  H
  H66      1.0000 0.58690  0.65630  0.90910  Biso   1.000  H
  H67      1.0000 0.56270  0.51850  0.85550  Biso   1.000  H
  H68      1.0000 0.54020  0.58950  0.83130  Biso   1.000  H
  H69      1.0000 0.39030  0.66300  0.72540  Biso   1.000  H
  H70      1.0000 0.45130  0.65310  0.77250  Biso   1.000  H
  H71      1.0000 0.44300  0.79910  0.72750  Biso   1.000  H
  H72      1.0000 0.50290  0.79330  0.77610  Biso   1.000  H
  H73      1.0000 0.98210  0.53720  0.53450  Biso   1.000  H
  H74      1.0000 0.82930  0.56610  0.52750  Biso   1.000  H
  H75      1.0000 0.97200  0.57300  0.61910  Biso   1.000  H
  H76      1.0000 0.81750  0.60190  0.61440  Biso   1.000  H
  H77      1.0000 0.53980  0.72060  0.66750  Biso   1.000  H
  H78      1.0000 0.62950  0.68170  0.63150  Biso   1.000  H
  H79      1.0000 0.29810  0.68130  0.63040  Biso   1.000  H
  H80      1.0000 0.38030  0.64220  0.59270  Biso   1.000  H
  H81      1.0000 0.30330  0.57780  0.48160  Biso   1.000  H
  H82      1.0000 0.37810  0.59720  0.52590  Biso   1.000  H
  H83      1.0000 0.54870  0.53320  0.44740  Biso   1.000  H
  H84      1.0000 0.62950  0.55310  0.49080  Biso   1.000  H
  H85      1.0000 0.43340  0.58730  0.36020  Biso   1.000  H
  H86      1.0000 0.46090  0.65670  0.33550  Biso   1.000  H
  H87      1.0000 0.37070  0.65560  0.43460  Biso   1.000  H
  H88      1.0000 0.40030  0.72760  0.41160  Biso   1.000  H
  H89      1.0000 0.39400  0.91630  0.43160  Biso   1.000  H
  H90      1.0000 0.41310  0.84370  0.40910  Biso   1.000  H
  H91      1.0000 0.43730  0.98150  0.35550  Biso   1.000  H
  H92      1.0000 0.45980  0.91050  0.33130  Biso   1.000  H
  H93      1.0000 0.60970  0.83700  0.22540  Biso   1.000  H
  H94      1.0000 0.54870  0.84690  0.27250  Biso   1.000  H
  H95      1.0000 0.55700  0.70090  0.22750  Biso   1.000  H
  H96      1.0000 0.49710  0.70670  0.27610  Biso   1.000  H
  C1       1.0000 0.55170  0.05030  0.44898  Biso   1.000  C
  C2       1.0000 0.64270  0.06690  0.45319  Biso   1.000  C
  C3       1.0000 0.55860  0.07120  0.39981  Biso   1.000  C
  C4       1.0000 0.65020  0.08820  0.40216  Biso   1.000  C
  C5       1.0000 0.69380  0.08460  0.42985  Biso   1.000  C
  C6       1.0000 0.79690  0.09880  0.43328  Biso   1.000  C
  C7       1.0000 0.99300  0.20400  0.34782  Biso   1.000  C
  C8       1.0000 0.93890  0.18110  0.36929  Biso   1.000  C
  C9       1.0000 0.13340  0.18130  0.36943  Biso   1.000  C
  C10      1.0000 0.08500  0.15790  0.39197  Biso   1.000  C
  C11      1.0000 0.98560  0.15760  0.39181  Biso   1.000  C
  C12      1.0000 0.93270  0.13200  0.41571  Biso   1.000  C
  C13      1.0000 0.12910  0.07340  0.51669  Biso   1.000  C
  C14      1.0000 0.08520  0.08520  0.49030  Biso   1.000  C
  C15      1.0000 0.98590  0.04750  0.53670  Biso   1.000  C
  C16      1.0000 0.93760  0.05920  0.51084  Biso   1.000  C
  C17      1.0000 0.98570  0.07930  0.48758  Biso   1.000  C
  C18      1.0000 0.93470  0.09460  0.46047  Biso   1.000  C
  C19      1.0000 0.07440  0.11610  0.62932  Biso   1.000  C
  C20      1.0000 0.05780  0.15740  0.64408  Biso   1.000  C
  C21      1.0000 0.11060  0.15590  0.58582  Biso   1.000  C
  C22      1.0000 0.09380  0.19910  0.59939  Biso   1.000  C
  C23      1.0000 0.06800  0.20000  0.62962  Biso   1.000  C
  C24      1.0000 0.05340  0.24450  0.64571  Biso   1.000  C
  C25      1.0000 0.09440  0.41540  0.58926  Biso   1.000  C
  C26      1.0000 0.08210  0.37170  0.60246  Biso   1.000  C
  C27      1.0000 0.06890  0.45310  0.63350  Biso   1.000  C
  C28      1.0000 0.05510  0.41090  0.64803  Biso   1.000  C
  C29      1.0000 0.06290  0.36940  0.63265  Biso   1.000  C
  C30      1.0000 0.04990  0.32350  0.64753  Biso   1.000  C
  C31      1.0000 0.91320  0.31020  0.76406  Biso   1.000  C
  C32      1.0000 0.94890  0.31640  0.73617  Biso   1.000  C
  C33      1.0000 0.94320  0.23080  0.76289  Biso   1.000  C
  C34      1.0000 0.97990  0.23400  0.73396  Biso   1.000  C
  C35      1.0000 0.98220  0.27690  0.72043  Biso   1.000  C
  C36      1.0000 0.01430  0.28100  0.68803  Biso   1.000  C
  C37      1.0000 0.44830  0.44970  0.94898  Biso   1.000  C
  C38      1.0000 0.35730  0.43310  0.95319  Biso   1.000  C
  C39      1.0000 0.44140  0.42880  0.89981  Biso   1.000  C
  C40      1.0000 0.34980  0.41180  0.90216  Biso   1.000  C
  C41      1.0000 0.30620  0.41540  0.92985  Biso   1.000  C
  C42      1.0000 0.20310  0.40120  0.93328  Biso   1.000  C
  C43      1.0000 0.00700  0.29600  0.84782  Biso   1.000  C
  C44      1.0000 0.06110  0.31890  0.86929  Biso   1.000  C
  C45      1.0000 0.86660  0.31870  0.86943  Biso   1.000  C
  C46      1.0000 0.91500  0.34210  0.89197  Biso   1.000  C
  C47      1.0000 0.01440  0.34240  0.89181  Biso   1.000  C
  C48      1.0000 0.06730  0.36800  0.91571  Biso   1.000  C
  C49      1.0000 0.87090  0.42660  0.01669  Biso   1.000  C
  C50      1.0000 0.91480  0.41480  0.99030  Biso   1.000  C
  C51      1.0000 0.01410  0.45250  0.03670  Biso   1.000  C
  C52      1.0000 0.06240  0.44080  0.01084  Biso   1.000  C
  C53      1.0000 0.01430  0.42070  0.98758  Biso   1.000  C
  C54      1.0000 0.06530  0.40540  0.96047  Biso   1.000  C
  C55      1.0000 0.92560  0.38390  0.12932  Biso   1.000  C
  C56      1.0000 0.94220  0.34260  0.14408  Biso   1.000  C
  C57      1.0000 0.88940  0.34410  0.08582  Biso   1.000  C
  C58      1.0000 0.90620  0.30090  0.09939  Biso   1.000  C
  C59      1.0000 0.93200  0.30000  0.12962  Biso   1.000  C
  C60      1.0000 0.94660  0.25550  0.14571  Biso   1.000  C
  C61      1.0000 0.90560  0.08460  0.08926  Biso   1.000  C
  C62      1.0000 0.91790  0.12830  0.10246  Biso   1.000  C
  C63      1.0000 0.93110  0.04690  0.13350  Biso   1.000  C
  C64      1.0000 0.94490  0.08910  0.14803  Biso   1.000  C
  C65      1.0000 0.93710  0.13060  0.13265  Biso   1.000  C
  C66      1.0000 0.95010  0.17650  0.14753  Biso   1.000  C
  C67      1.0000 0.08680  0.18980  0.26406  Biso   1.000  C
  C68      1.0000 0.05110  0.18360  0.23617  Biso   1.000  C
  C69      1.0000 0.05680  0.26920  0.26289  Biso   1.000  C
  C70      1.0000 0.02010  0.26600  0.23396  Biso   1.000  C
  C71      1.0000 0.01780  0.22310  0.22043  Biso   1.000  C
  C72      1.0000 0.98570  0.21900  0.18803  Biso   1.000  C
  C73      1.0000 0.05170  0.94970  0.05102  Biso   1.000  C
  C74      1.0000 0.14270  0.93310  0.04681  Biso   1.000  C
  C75      1.0000 0.05860  0.92880  0.10019  Biso   1.000  C
  C76      1.0000 0.15020  0.91180  0.09784  Biso   1.000  C
  C77      1.0000 0.19380  0.91540  0.07015  Biso   1.000  C
  C78      1.0000 0.29690  0.90120  0.06672  Biso   1.000  C
  C79      1.0000 0.49300  0.79600  0.15218  Biso   1.000  C
  C80      1.0000 0.43890  0.81890  0.13071  Biso   1.000  C
  C81      1.0000 0.63340  0.81870  0.13057  Biso   1.000  C
  C82      1.0000 0.58500  0.84210  0.10803  Biso   1.000  C
  C83      1.0000 0.48560  0.84240  0.10819  Biso   1.000  C
  C84      1.0000 0.43270  0.86800  0.08429  Biso   1.000  C
  C85      1.0000 0.62910  0.92660  0.98331  Biso   1.000  C
  C86      1.0000 0.58520  0.91480  0.00970  Biso   1.000  C
  C87      1.0000 0.48590  0.95250  0.96330  Biso   1.000  C
  C88      1.0000 0.43760  0.94080  0.98916  Biso   1.000  C
  C89      1.0000 0.48570  0.92070  0.01242  Biso   1.000  C
  C90      1.0000 0.43470  0.90540  0.03953  Biso   1.000  C
  C91      1.0000 0.57440  0.88390  0.87068  Biso   1.000  C
  C92      1.0000 0.55780  0.84260  0.85592  Biso   1.000  C
  C93      1.0000 0.61060  0.84410  0.91418  Biso   1.000  C
  C94      1.0000 0.59380  0.80090  0.90061  Biso   1.000  C
  C95      1.0000 0.56800  0.80000  0.87038  Biso   1.000  C
  C96      1.0000 0.55340  0.75550  0.85429  Biso   1.000  C
  C97      1.0000 0.59440  0.58460  0.91074  Biso   1.000  C
  C98      1.0000 0.58210  0.62830  0.89754  Biso   1.000  C
  C99      1.0000 0.56890  0.54690  0.86650  Biso   1.000  C
  C100     1.0000 0.55510  0.58910  0.85197  Biso   1.000  C
  C101     1.0000 0.56290  0.63060  0.86735  Biso   1.000  C
  C102     1.0000 0.54990  0.67650  0.85247  Biso   1.000  C
  C103     1.0000 0.41320  0.68980  0.73594  Biso   1.000  C
  C104     1.0000 0.44890  0.68360  0.76383  Biso   1.000  C
  C105     1.0000 0.44320  0.76920  0.73711  Biso   1.000  C
  C106     1.0000 0.47990  0.76600  0.76604  Biso   1.000  C
  C107     1.0000 0.48220  0.72310  0.77957  Biso   1.000  C
  C108     1.0000 0.51430  0.71900  0.81197  Biso   1.000  C
  C109     1.0000 0.94830  0.55030  0.55102  Biso   1.000  C
  C110     1.0000 0.85730  0.56690  0.54681  Biso   1.000  C
  C111     1.0000 0.94140  0.57120  0.60019  Biso   1.000  C
  C112     1.0000 0.84980  0.58820  0.59784  Biso   1.000  C
  C113     1.0000 0.80620  0.58460  0.57015  Biso   1.000  C
  C114     1.0000 0.70310  0.59880  0.56672  Biso   1.000  C
  C115     1.0000 0.50700  0.70400  0.65218  Biso   1.000  C
  C116     1.0000 0.56110  0.68110  0.63071  Biso   1.000  C
  C117     1.0000 0.36660  0.68130  0.63057  Biso   1.000  C
  C118     1.0000 0.41500  0.65790  0.60803  Biso   1.000  C
  C119     1.0000 0.51440  0.65760  0.60819  Biso   1.000  C
  C120     1.0000 0.56730  0.63200  0.58429  Biso   1.000  C
  C121     1.0000 0.37090  0.57340  0.48331  Biso   1.000  C
  C122     1.0000 0.41480  0.58520  0.50970  Biso   1.000  C
  C123     1.0000 0.51410  0.54750  0.46330  Biso   1.000  C
  C124     1.0000 0.56240  0.55920  0.48916  Biso   1.000  C
  C125     1.0000 0.51430  0.57930  0.51242  Biso   1.000  C
  C126     1.0000 0.56530  0.59460  0.53953  Biso   1.000  C
  C127     1.0000 0.42560  0.61610  0.37068  Biso   1.000  C
  C128     1.0000 0.44220  0.65740  0.35592  Biso   1.000  C
  C129     1.0000 0.38940  0.65590  0.41418  Biso   1.000  C
  C130     1.0000 0.40620  0.69910  0.40061  Biso   1.000  C
  C131     1.0000 0.43200  0.70000  0.37038  Biso   1.000  C
  C132     1.0000 0.44660  0.74450  0.35429  Biso   1.000  C
  C133     1.0000 0.40560  0.91540  0.41074  Biso   1.000  C
  C134     1.0000 0.41790  0.87170  0.39754  Biso   1.000  C
  C135     1.0000 0.43110  0.95310  0.36650  Biso   1.000  C
  C136     1.0000 0.44490  0.91090  0.35197  Biso   1.000  C
  C137     1.0000 0.43710  0.86940  0.36735  Biso   1.000  C
  C138     1.0000 0.45010  0.82350  0.35247  Biso   1.000  C
  C139     1.0000 0.58680  0.81020  0.23594  Biso   1.000  C
  C140     1.0000 0.55110  0.81640  0.26383  Biso   1.000  C
  C141     1.0000 0.55680  0.73080  0.23711  Biso   1.000  C
  C142     1.0000 0.52010  0.73400  0.26604  Biso   1.000  C
  C143     1.0000 0.51780  0.77690  0.27957  Biso   1.000  C
  C144     1.0000 0.48570  0.78100  0.31197  Biso   1.000  C
  I1       1.0000 0.05581  0.98719  0.61117  Biso   1.000  I
  I2       1.0000 0.32531  0.05684  0.57654  Biso   1.000  I
  I3       1.0000 0.19454  0.50267  0.53266  Biso   1.000  I
  I4       1.0000 0.21712  0.56663  0.62299  Biso   1.000  I
  I5       1.0000 0.16970  0.32675  0.33159  Biso   1.000  I
  I6       1.0000 0.32777  0.19701  0.30944  Biso   1.000  I
  I7       1.0000 0.94419  0.51281  0.11117  Biso   1.000  I
  I8       1.0000 0.67469  0.44316  0.07654  Biso   1.000  I
  I9       1.0000 0.80546  0.99733  0.03266  Biso   1.000  I
  I10      1.0000 0.78288  0.93337  0.12299  Biso   1.000  I
  I11      1.0000 0.83030  0.17325  0.83159  Biso   1.000  I
  I12      1.0000 0.67223  0.30299  0.80944  Biso   1.000  I
  I13      1.0000 0.55581  0.01281  0.88883  Biso   1.000  I
  I14      1.0000 0.82531  0.94316  0.92346  Biso   1.000  I
  I15      1.0000 0.69454  0.49733  0.96734  Biso   1.000  I
  I16      1.0000 0.71712  0.43337  0.87701  Biso   1.000  I
  I17      1.0000 0.66970  0.67325  0.16841  Biso   1.000  I
  I18      1.0000 0.82777  0.80299  0.19056  Biso   1.000  I
  I19      1.0000 0.44419  0.48719  0.38883  Biso   1.000  I
  I20      1.0000 0.17469  0.55684  0.42346  Biso   1.000  I
  I21      1.0000 0.30546  0.00267  0.46734  Biso   1.000  I
  I22      1.0000 0.28288  0.06663  0.37701  Biso   1.000  I
  I23      1.0000 0.33030  0.82675  0.66841  Biso   1.000  I
  I24      1.0000 0.17223  0.69701  0.69056  Biso   1.000  I
  N1       1.0000 0.50860  0.05200  0.42244  Biso   1.000  N
  N2       1.0000 0.08770  0.20380  0.34756  Biso   1.000  N
  N3       1.0000 0.08080  0.05590  0.54016  Biso   1.000  N
  N4       1.0000 0.83860  0.12430  0.41148  Biso   1.000  N
  N5       1.0000 0.98390  0.11880  0.43980  Biso   1.000  N
  N6       1.0000 0.84130  0.08350  0.45824  Biso   1.000  N
  N7       1.0000 0.10170  0.11460  0.60010  Biso   1.000  N
  N8       1.0000 0.09110  0.45570  0.60367  Biso   1.000  N
  N9       1.0000 0.90860  0.26790  0.77762  Biso   1.000  N
  N10      1.0000 0.06580  0.28500  0.63114  Biso   1.000  N
  N11      1.0000 0.02470  0.32410  0.67673  Biso   1.000  N
  N12      1.0000 0.02750  0.24000  0.67437  Biso   1.000  N
  N13      1.0000 0.49140  0.44800  0.92244  Biso   1.000  N
  N14      1.0000 0.91230  0.29620  0.84756  Biso   1.000  N
  N15      1.0000 0.91920  0.44410  0.04016  Biso   1.000  N
  N16      1.0000 0.16140  0.37570  0.91148  Biso   1.000  N
  N17      1.0000 0.01610  0.38120  0.93980  Biso   1.000  N
  N18      1.0000 0.15870  0.41650  0.95824  Biso   1.000  N
  N19      1.0000 0.89830  0.38540  0.10010  Biso   1.000  N
  N20      1.0000 0.90890  0.04430  0.10367  Biso   1.000  N
  N21      1.0000 0.09140  0.23210  0.27762  Biso   1.000  N
  N22      1.0000 0.93420  0.21500  0.13114  Biso   1.000  N
  N23      1.0000 0.97530  0.17590  0.17673  Biso   1.000  N
  N24      1.0000 0.97250  0.26000  0.17437  Biso   1.000  N
  N25      1.0000 0.00860  0.94800  0.07756  Biso   1.000  N
  N26      1.0000 0.58770  0.79620  0.15244  Biso   1.000  N
  N27      1.0000 0.58080  0.94410  0.95984  Biso   1.000  N
  N28      1.0000 0.33860  0.87570  0.08852  Biso   1.000  N
  N29      1.0000 0.48390  0.88120  0.06020  Biso   1.000  N
  N30      1.0000 0.34130  0.91650  0.04176  Biso   1.000  N
  N31      1.0000 0.60170  0.88540  0.89990  Biso   1.000  N
  N32      1.0000 0.59110  0.54430  0.89633  Biso   1.000  N
  N33      1.0000 0.40860  0.73210  0.72238  Biso   1.000  N
  N34      1.0000 0.56580  0.71500  0.86886  Biso   1.000  N
  N35      1.0000 0.52470  0.67590  0.82327  Biso   1.000  N
  N36      1.0000 0.52750  0.76000  0.82563  Biso   1.000  N
  N37      1.0000 0.99140  0.55200  0.57756  Biso   1.000  N
  N38      1.0000 0.41230  0.70380  0.65244  Biso   1.000  N
  N39      1.0000 0.41920  0.55590  0.45984  Biso   1.000  N
  N40      1.0000 0.66140  0.62430  0.58852  Biso   1.000  N
  N41      1.0000 0.51610  0.61880  0.56020  Biso   1.000  N
  N42      1.0000 0.65870  0.58350  0.54176  Biso   1.000  N
  N43      1.0000 0.39830  0.61460  0.39990  Biso   1.000  N
  N44      1.0000 0.40890  0.95570  0.39633  Biso   1.000  N
  N45      1.0000 0.59140  0.76790  0.22238  Biso   1.000  N
  N46      1.0000 0.43420  0.78500  0.36886  Biso   1.000  N
  N47      1.0000 0.47530  0.82410  0.32327  Biso   1.000  N
  N48      1.0000 0.47250  0.74000  0.32563  Biso   1.000  N
  Zn13     1.0000 0.85668  0.94916  0.41824  Biso   1.000  Zn
  Zn14     1.0000 0.87608  0.48022  0.41558  Biso   1.000  Zn
  Zn15     1.0000 0.83241  0.75992  0.68349  Biso   1.000  Zn
  Zn16     1.0000 0.14332  0.55084  0.91824  Biso   1.000  Zn
  Zn17     1.0000 0.12392  0.01978  0.91558  Biso   1.000  Zn
  Zn18     1.0000 0.16759  0.74008  0.18349  Biso   1.000  Zn
  Zn19     1.0000 0.35668  0.05084  0.08176  Biso   1.000  Zn
  Zn20     1.0000 0.37608  0.51978  0.08442  Biso   1.000  Zn
  Zn21     1.0000 0.33241  0.24008  0.81651  Biso   1.000  Zn
  Zn22     1.0000 0.64332  0.44916  0.58176  Biso   1.000  Zn
  Zn23     1.0000 0.62392  0.98022  0.58442  Biso   1.000  Zn
  Zn24     1.0000 0.66759  0.25992  0.31651  Biso   1.000  Zn
  H97      1.0000 0.48210  0.96280  0.53450  Biso   1.000  H
  H98      1.0000 0.32930  0.93390  0.52750  Biso   1.000  H
  H99      1.0000 0.47200  0.92700  0.61910  Biso   1.000  H
  H100     1.0000 0.31750  0.89810  0.61440  Biso   1.000  H
  H101     1.0000 0.03980  0.77940  0.66750  Biso   1.000  H
  H102     1.0000 0.12950  0.81830  0.63150  Biso   1.000  H
  H103     1.0000 0.79810  0.81870  0.63040  Biso   1.000  H
  H104     1.0000 0.88030  0.85780  0.59270  Biso   1.000  H
  H105     1.0000 0.80330  0.92220  0.48160  Biso   1.000  H
  H106     1.0000 0.87810  0.90280  0.52590  Biso   1.000  H
  H107     1.0000 0.04870  0.96680  0.44740  Biso   1.000  H
  H108     1.0000 0.12950  0.94690  0.49080  Biso   1.000  H
  H109     1.0000 0.93340  0.91270  0.36020  Biso   1.000  H
  H110     1.0000 0.96090  0.84330  0.33550  Biso   1.000  H
  H111     1.0000 0.87070  0.84440  0.43460  Biso   1.000  H
  H112     1.0000 0.90030  0.77240  0.41160  Biso   1.000  H
  H113     1.0000 0.89400  0.58370  0.43160  Biso   1.000  H
  H114     1.0000 0.91310  0.65630  0.40910  Biso   1.000  H
  H115     1.0000 0.93730  0.51850  0.35550  Biso   1.000  H
  H116     1.0000 0.95980  0.58950  0.33130  Biso   1.000  H
  H117     1.0000 0.10970  0.66300  0.22540  Biso   1.000  H
  H118     1.0000 0.04870  0.65310  0.27250  Biso   1.000  H
  H119     1.0000 0.05700  0.79910  0.22750  Biso   1.000  H
  H120     1.0000 0.99710  0.79330  0.27610  Biso   1.000  H
  H121     1.0000 0.51790  0.53720  0.03450  Biso   1.000  H
  H122     1.0000 0.67070  0.56610  0.02750  Biso   1.000  H
  H123     1.0000 0.52800  0.57300  0.11910  Biso   1.000  H
  H124     1.0000 0.68250  0.60190  0.11440  Biso   1.000  H
  H125     1.0000 0.96020  0.72060  0.16750  Biso   1.000  H
  H126     1.0000 0.87050  0.68170  0.13150  Biso   1.000  H
  H127     1.0000 0.20190  0.68130  0.13040  Biso   1.000  H
  H128     1.0000 0.11970  0.64220  0.09270  Biso   1.000  H
  H129     1.0000 0.19670  0.57780  0.98160  Biso   1.000  H
  H130     1.0000 0.12190  0.59720  0.02590  Biso   1.000  H
  H131     1.0000 0.95130  0.53320  0.94740  Biso   1.000  H
  H132     1.0000 0.87050  0.55310  0.99080  Biso   1.000  H
  H133     1.0000 0.06660  0.58730  0.86020  Biso   1.000  H
  H134     1.0000 0.03910  0.65670  0.83550  Biso   1.000  H
  H135     1.0000 0.12930  0.65560  0.93460  Biso   1.000  H
  H136     1.0000 0.09970  0.72760  0.91160  Biso   1.000  H
  H137     1.0000 0.10600  0.91630  0.93160  Biso   1.000  H
  H138     1.0000 0.08690  0.84370  0.90910  Biso   1.000  H
  H139     1.0000 0.06270  0.98150  0.85550  Biso   1.000  H
  H140     1.0000 0.04020  0.91050  0.83130  Biso   1.000  H
  H141     1.0000 0.89030  0.83700  0.72540  Biso   1.000  H
  H142     1.0000 0.95130  0.84690  0.77250  Biso   1.000  H
  H143     1.0000 0.94300  0.70090  0.72750  Biso   1.000  H
  H144     1.0000 0.00290  0.70670  0.77610  Biso   1.000  H
  H145     1.0000 0.98210  0.03720  0.96550  Biso   1.000  H
  H146     1.0000 0.82930  0.06610  0.97250  Biso   1.000  H
  H147     1.0000 0.97200  0.07300  0.88090  Biso   1.000  H
  H148     1.0000 0.81750  0.10190  0.88560  Biso   1.000  H
  H149     1.0000 0.53980  0.22060  0.83250  Biso   1.000  H
  H150     1.0000 0.62950  0.18170  0.86850  Biso   1.000  H
  H151     1.0000 0.29810  0.18130  0.86960  Biso   1.000  H
  H152     1.0000 0.38030  0.14220  0.90730  Biso   1.000  H
  H153     1.0000 0.30330  0.07780  0.01840  Biso   1.000  H
  H154     1.0000 0.37810  0.09720  0.97410  Biso   1.000  H
  H155     1.0000 0.54870  0.03320  0.05260  Biso   1.000  H
  H156     1.0000 0.62950  0.05310  0.00920  Biso   1.000  H
  H157     1.0000 0.43340  0.08730  0.13980  Biso   1.000  H
  H158     1.0000 0.46090  0.15670  0.16450  Biso   1.000  H
  H159     1.0000 0.37070  0.15560  0.06540  Biso   1.000  H
  H160     1.0000 0.40030  0.22760  0.08840  Biso   1.000  H
  H161     1.0000 0.39400  0.41630  0.06840  Biso   1.000  H
  H162     1.0000 0.41310  0.34370  0.09090  Biso   1.000  H
  H163     1.0000 0.43730  0.48150  0.14450  Biso   1.000  H
  H164     1.0000 0.45980  0.41050  0.16870  Biso   1.000  H
  H165     1.0000 0.60970  0.33700  0.27460  Biso   1.000  H
  H166     1.0000 0.54870  0.34690  0.22750  Biso   1.000  H
  H167     1.0000 0.55700  0.20090  0.27250  Biso   1.000  H
  H168     1.0000 0.49710  0.20670  0.22390  Biso   1.000  H
  H169     1.0000 0.01790  0.46280  0.46550  Biso   1.000  H
  H170     1.0000 0.17070  0.43390  0.47250  Biso   1.000  H
  H171     1.0000 0.02800  0.42700  0.38090  Biso   1.000  H
  H172     1.0000 0.18250  0.39810  0.38560  Biso   1.000  H
  H173     1.0000 0.46020  0.27940  0.33250  Biso   1.000  H
  H174     1.0000 0.37050  0.31830  0.36850  Biso   1.000  H
  H175     1.0000 0.70190  0.31870  0.36960  Biso   1.000  H
  H176     1.0000 0.61970  0.35780  0.40730  Biso   1.000  H
  H177     1.0000 0.69670  0.42220  0.51840  Biso   1.000  H
  H178     1.0000 0.62190  0.40280  0.47410  Biso   1.000  H
  H179     1.0000 0.45130  0.46680  0.55260  Biso   1.000  H
  H180     1.0000 0.37050  0.44690  0.50920  Biso   1.000  H
  H181     1.0000 0.56660  0.41270  0.63980  Biso   1.000  H
  H182     1.0000 0.53910  0.34330  0.66450  Biso   1.000  H
  H183     1.0000 0.62930  0.34440  0.56540  Biso   1.000  H
  H184     1.0000 0.59970  0.27240  0.58840  Biso   1.000  H
  H185     1.0000 0.60600  0.08370  0.56840  Biso   1.000  H
  H186     1.0000 0.58690  0.15630  0.59090  Biso   1.000  H
  H187     1.0000 0.56270  0.01850  0.64450  Biso   1.000  H
  H188     1.0000 0.54020  0.08950  0.66870  Biso   1.000  H
  H189     1.0000 0.39030  0.16300  0.77460  Biso   1.000  H
  H190     1.0000 0.45130  0.15310  0.72750  Biso   1.000  H
  H191     1.0000 0.44300  0.29910  0.77250  Biso   1.000  H
  H192     1.0000 0.50290  0.29330  0.72390  Biso   1.000  H
  C145     1.0000 0.44830  0.94970  0.55102  Biso   1.000  C
  C146     1.0000 0.35730  0.93310  0.54681  Biso   1.000  C
  C147     1.0000 0.44140  0.92880  0.60019  Biso   1.000  C
  C148     1.0000 0.34980  0.91180  0.59784  Biso   1.000  C
  C149     1.0000 0.30620  0.91540  0.57015  Biso   1.000  C
  C150     1.0000 0.20310  0.90120  0.56672  Biso   1.000  C
  C151     1.0000 0.00700  0.79600  0.65218  Biso   1.000  C
  C152     1.0000 0.06110  0.81890  0.63071  Biso   1.000  C
  C153     1.0000 0.86660  0.81870  0.63057  Biso   1.000  C
  C154     1.0000 0.91500  0.84210  0.60803  Biso   1.000  C
  C155     1.0000 0.01440  0.84240  0.60819  Biso   1.000  C
  C156     1.0000 0.06730  0.86800  0.58429  Biso   1.000  C
  C157     1.0000 0.87090  0.92660  0.48331  Biso   1.000  C
  C158     1.0000 0.91480  0.91480  0.50970  Biso   1.000  C
  C159     1.0000 0.01410  0.95250  0.46330  Biso   1.000  C
  C160     1.0000 0.06240  0.94080  0.48916  Biso   1.000  C
  C161     1.0000 0.01430  0.92070  0.51242  Biso   1.000  C
  C162     1.0000 0.06530  0.90540  0.53953  Biso   1.000  C
  C163     1.0000 0.92560  0.88390  0.37068  Biso   1.000  C
  C164     1.0000 0.94220  0.84260  0.35592  Biso   1.000  C
  C165     1.0000 0.88940  0.84410  0.41418  Biso   1.000  C
  C166     1.0000 0.90620  0.80090  0.40061  Biso   1.000  C
  C167     1.0000 0.93200  0.80000  0.37038  Biso   1.000  C
  C168     1.0000 0.94660  0.75550  0.35429  Biso   1.000  C
  C169     1.0000 0.90560  0.58460  0.41074  Biso   1.000  C
  C170     1.0000 0.91790  0.62830  0.39754  Biso   1.000  C
  C171     1.0000 0.93110  0.54690  0.36650  Biso   1.000  C
  C172     1.0000 0.94490  0.58910  0.35197  Biso   1.000  C
  C173     1.0000 0.93710  0.63060  0.36735  Biso   1.000  C
  C174     1.0000 0.95010  0.67650  0.35247  Biso   1.000  C
  C175     1.0000 0.08680  0.68980  0.23594  Biso   1.000  C
  C176     1.0000 0.05110  0.68360  0.26383  Biso   1.000  C
  C177     1.0000 0.05680  0.76920  0.23711  Biso   1.000  C
  C178     1.0000 0.02010  0.76600  0.26604  Biso   1.000  C
  C179     1.0000 0.01780  0.72310  0.27957  Biso   1.000  C
  C180     1.0000 0.98570  0.71900  0.31197  Biso   1.000  C
  C181     1.0000 0.55170  0.55030  0.05102  Biso   1.000  C
  C182     1.0000 0.64270  0.56690  0.04681  Biso   1.000  C
  C183     1.0000 0.55860  0.57120  0.10019  Biso   1.000  C
  C184     1.0000 0.65020  0.58820  0.09784  Biso   1.000  C
  C185     1.0000 0.69380  0.58460  0.07015  Biso   1.000  C
  C186     1.0000 0.79690  0.59880  0.06672  Biso   1.000  C
  C187     1.0000 0.99300  0.70400  0.15218  Biso   1.000  C
  C188     1.0000 0.93890  0.68110  0.13071  Biso   1.000  C
  C189     1.0000 0.13340  0.68130  0.13057  Biso   1.000  C
  C190     1.0000 0.08500  0.65790  0.10803  Biso   1.000  C
  C191     1.0000 0.98560  0.65760  0.10819  Biso   1.000  C
  C192     1.0000 0.93270  0.63200  0.08429  Biso   1.000  C
  C193     1.0000 0.12910  0.57340  0.98331  Biso   1.000  C
  C194     1.0000 0.08520  0.58520  0.00970  Biso   1.000  C
  C195     1.0000 0.98590  0.54750  0.96330  Biso   1.000  C
  C196     1.0000 0.93760  0.55920  0.98916  Biso   1.000  C
  C197     1.0000 0.98570  0.57930  0.01242  Biso   1.000  C
  C198     1.0000 0.93470  0.59460  0.03953  Biso   1.000  C
  C199     1.0000 0.07440  0.61610  0.87068  Biso   1.000  C
  C200     1.0000 0.05780  0.65740  0.85592  Biso   1.000  C
  C201     1.0000 0.11060  0.65590  0.91418  Biso   1.000  C
  C202     1.0000 0.09380  0.69910  0.90061  Biso   1.000  C
  C203     1.0000 0.06800  0.70000  0.87038  Biso   1.000  C
  C204     1.0000 0.05340  0.74450  0.85429  Biso   1.000  C
  C205     1.0000 0.09440  0.91540  0.91074  Biso   1.000  C
  C206     1.0000 0.08210  0.87170  0.89754  Biso   1.000  C
  C207     1.0000 0.06890  0.95310  0.86650  Biso   1.000  C
  C208     1.0000 0.05510  0.91090  0.85197  Biso   1.000  C
  C209     1.0000 0.06290  0.86940  0.86735  Biso   1.000  C
  C210     1.0000 0.04990  0.82350  0.85247  Biso   1.000  C
  C211     1.0000 0.91320  0.81020  0.73594  Biso   1.000  C
  C212     1.0000 0.94890  0.81640  0.76383  Biso   1.000  C
  C213     1.0000 0.94320  0.73080  0.73711  Biso   1.000  C
  C214     1.0000 0.97990  0.73400  0.76604  Biso   1.000  C
  C215     1.0000 0.98220  0.77690  0.77957  Biso   1.000  C
  C216     1.0000 0.01430  0.78100  0.81197  Biso   1.000  C
  C217     1.0000 0.94830  0.05030  0.94898  Biso   1.000  C
  C218     1.0000 0.85730  0.06690  0.95319  Biso   1.000  C
  C219     1.0000 0.94140  0.07120  0.89981  Biso   1.000  C
  C220     1.0000 0.84980  0.08820  0.90216  Biso   1.000  C
  C221     1.0000 0.80620  0.08460  0.92985  Biso   1.000  C
  C222     1.0000 0.70310  0.09880  0.93328  Biso   1.000  C
  C223     1.0000 0.50700  0.20400  0.84782  Biso   1.000  C
  C224     1.0000 0.56110  0.18110  0.86929  Biso   1.000  C
  C225     1.0000 0.36660  0.18130  0.86943  Biso   1.000  C
  C226     1.0000 0.41500  0.15790  0.89197  Biso   1.000  C
  C227     1.0000 0.51440  0.15760  0.89181  Biso   1.000  C
  C228     1.0000 0.56730  0.13200  0.91571  Biso   1.000  C
  C229     1.0000 0.37090  0.07340  0.01669  Biso   1.000  C
  C230     1.0000 0.41480  0.08520  0.99030  Biso   1.000  C
  C231     1.0000 0.51410  0.04750  0.03670  Biso   1.000  C
  C232     1.0000 0.56240  0.05920  0.01084  Biso   1.000  C
  C233     1.0000 0.51430  0.07930  0.98758  Biso   1.000  C
  C234     1.0000 0.56530  0.09460  0.96047  Biso   1.000  C
  C235     1.0000 0.42560  0.11610  0.12932  Biso   1.000  C
  C236     1.0000 0.44220  0.15740  0.14408  Biso   1.000  C
  C237     1.0000 0.38940  0.15590  0.08582  Biso   1.000  C
  C238     1.0000 0.40620  0.19910  0.09939  Biso   1.000  C
  C239     1.0000 0.43200  0.20000  0.12962  Biso   1.000  C
  C240     1.0000 0.44660  0.24450  0.14571  Biso   1.000  C
  C241     1.0000 0.40560  0.41540  0.08926  Biso   1.000  C
  C242     1.0000 0.41790  0.37170  0.10246  Biso   1.000  C
  C243     1.0000 0.43110  0.45310  0.13350  Biso   1.000  C
  C244     1.0000 0.44490  0.41090  0.14803  Biso   1.000  C
  C245     1.0000 0.43710  0.36940  0.13265  Biso   1.000  C
  C246     1.0000 0.45010  0.32350  0.14753  Biso   1.000  C
  C247     1.0000 0.58680  0.31020  0.26406  Biso   1.000  C
  C248     1.0000 0.55110  0.31640  0.23617  Biso   1.000  C
  C249     1.0000 0.55680  0.23080  0.26289  Biso   1.000  C
  C250     1.0000 0.52010  0.23400  0.23396  Biso   1.000  C
  C251     1.0000 0.51780  0.27690  0.22043  Biso   1.000  C
  C252     1.0000 0.48570  0.28100  0.18803  Biso   1.000  C
  C253     1.0000 0.05170  0.44970  0.44898  Biso   1.000  C
  C254     1.0000 0.14270  0.43310  0.45319  Biso   1.000  C
  C255     1.0000 0.05860  0.42880  0.39981  Biso   1.000  C
  C256     1.0000 0.15020  0.41180  0.40216  Biso   1.000  C
  C257     1.0000 0.19380  0.41540  0.42985  Biso   1.000  C
  C258     1.0000 0.29690  0.40120  0.43328  Biso   1.000  C
  C259     1.0000 0.49300  0.29600  0.34782  Biso   1.000  C
  C260     1.0000 0.43890  0.31890  0.36929  Biso   1.000  C
  C261     1.0000 0.63340  0.31870  0.36943  Biso   1.000  C
  C262     1.0000 0.58500  0.34210  0.39197  Biso   1.000  C
  C263     1.0000 0.48560  0.34240  0.39181  Biso   1.000  C
  C264     1.0000 0.43270  0.36800  0.41571  Biso   1.000  C
  C265     1.0000 0.62910  0.42660  0.51669  Biso   1.000  C
  C266     1.0000 0.58520  0.41480  0.49030  Biso   1.000  C
  C267     1.0000 0.48590  0.45250  0.53670  Biso   1.000  C
  C268     1.0000 0.43760  0.44080  0.51084  Biso   1.000  C
  C269     1.0000 0.48570  0.42070  0.48758  Biso   1.000  C
  C270     1.0000 0.43470  0.40540  0.46047  Biso   1.000  C
  C271     1.0000 0.57440  0.38390  0.62932  Biso   1.000  C
  C272     1.0000 0.55780  0.34260  0.64408  Biso   1.000  C
  C273     1.0000 0.61060  0.34410  0.58582  Biso   1.000  C
  C274     1.0000 0.59380  0.30090  0.59939  Biso   1.000  C
  C275     1.0000 0.56800  0.30000  0.62962  Biso   1.000  C
  C276     1.0000 0.55340  0.25550  0.64571  Biso   1.000  C
  C277     1.0000 0.59440  0.08460  0.58926  Biso   1.000  C
  C278     1.0000 0.58210  0.12830  0.60246  Biso   1.000  C
  C279     1.0000 0.56890  0.04690  0.63350  Biso   1.000  C
  C280     1.0000 0.55510  0.08910  0.64803  Biso   1.000  C
  C281     1.0000 0.56290  0.13060  0.63265  Biso   1.000  C
  C282     1.0000 0.54990  0.17650  0.64753  Biso   1.000  C
  C283     1.0000 0.41320  0.18980  0.76406  Biso   1.000  C
  C284     1.0000 0.44890  0.18360  0.73617  Biso   1.000  C
  C285     1.0000 0.44320  0.26920  0.76289  Biso   1.000  C
  C286     1.0000 0.47990  0.26600  0.73396  Biso   1.000  C
  C287     1.0000 0.48220  0.22310  0.72043  Biso   1.000  C
  C288     1.0000 0.51430  0.21900  0.68803  Biso   1.000  C
  I25      1.0000 0.94419  0.01281  0.38883  Biso   1.000  I
  I26      1.0000 0.67469  0.94316  0.42346  Biso   1.000  I
  I27      1.0000 0.80546  0.49733  0.46734  Biso   1.000  I
  I28      1.0000 0.78288  0.43337  0.37701  Biso   1.000  I
  I29      1.0000 0.83030  0.67325  0.66841  Biso   1.000  I
  I30      1.0000 0.67223  0.80299  0.69056  Biso   1.000  I
  I31      1.0000 0.05581  0.48719  0.88883  Biso   1.000  I
  I32      1.0000 0.32531  0.55684  0.92346  Biso   1.000  I
  I33      1.0000 0.19454  0.00267  0.96734  Biso   1.000  I
  I34      1.0000 0.21712  0.06663  0.87701  Biso   1.000  I
  I35      1.0000 0.16970  0.82675  0.16841  Biso   1.000  I
  I36      1.0000 0.32777  0.69701  0.19056  Biso   1.000  I
  I37      1.0000 0.44419  0.98719  0.11117  Biso   1.000  I
  I38      1.0000 0.17469  0.05684  0.07654  Biso   1.000  I
  I39      1.0000 0.30546  0.50267  0.03266  Biso   1.000  I
  I40      1.0000 0.28288  0.56663  0.12299  Biso   1.000  I
  I41      1.0000 0.33030  0.32675  0.83159  Biso   1.000  I
  I42      1.0000 0.17223  0.19701  0.80944  Biso   1.000  I
  I43      1.0000 0.55581  0.51281  0.61117  Biso   1.000  I
  I44      1.0000 0.82531  0.44316  0.57654  Biso   1.000  I
  I45      1.0000 0.69454  0.99733  0.53266  Biso   1.000  I
  I46      1.0000 0.71712  0.93337  0.62299  Biso   1.000  I
  I47      1.0000 0.66970  0.17325  0.33159  Biso   1.000  I
  I48      1.0000 0.82777  0.30299  0.30944  Biso   1.000  I
  N49      1.0000 0.49140  0.94800  0.57756  Biso   1.000  N
  N50      1.0000 0.91230  0.79620  0.65244  Biso   1.000  N
  N51      1.0000 0.91920  0.94410  0.45984  Biso   1.000  N
  N52      1.0000 0.16140  0.87570  0.58852  Biso   1.000  N
  N53      1.0000 0.01610  0.88120  0.56020  Biso   1.000  N
  N54      1.0000 0.15870  0.91650  0.54176  Biso   1.000  N
  N55      1.0000 0.89830  0.88540  0.39990  Biso   1.000  N
  N56      1.0000 0.90890  0.54430  0.39633  Biso   1.000  N
  N57      1.0000 0.09140  0.73210  0.22238  Biso   1.000  N
  N58      1.0000 0.93420  0.71500  0.36886  Biso   1.000  N
  N59      1.0000 0.97530  0.67590  0.32327  Biso   1.000  N
  N60      1.0000 0.97250  0.76000  0.32563  Biso   1.000  N
  N61      1.0000 0.50860  0.55200  0.07756  Biso   1.000  N
  N62      1.0000 0.08770  0.70380  0.15244  Biso   1.000  N
  N63      1.0000 0.08080  0.55590  0.95984  Biso   1.000  N
  N64      1.0000 0.83860  0.62430  0.08852  Biso   1.000  N
  N65      1.0000 0.98390  0.61880  0.06020  Biso   1.000  N
  N66      1.0000 0.84130  0.58350  0.04176  Biso   1.000  N
  N67      1.0000 0.10170  0.61460  0.89990  Biso   1.000  N
  N68      1.0000 0.09110  0.95570  0.89633  Biso   1.000  N
  N69      1.0000 0.90860  0.76790  0.72238  Biso   1.000  N
  N70      1.0000 0.06580  0.78500  0.86886  Biso   1.000  N
  N71      1.0000 0.02470  0.82410  0.82327  Biso   1.000  N
  N72      1.0000 0.02750  0.74000  0.82563  Biso   1.000  N
  N73      1.0000 0.99140  0.05200  0.92244  Biso   1.000  N
  N74      1.0000 0.41230  0.20380  0.84756  Biso   1.000  N
  N75      1.0000 0.41920  0.05590  0.04016  Biso   1.000  N
  N76      1.0000 0.66140  0.12430  0.91148  Biso   1.000  N
  N77      1.0000 0.51610  0.11880  0.93980  Biso   1.000  N
  N78      1.0000 0.65870  0.08350  0.95824  Biso   1.000  N
  N79      1.0000 0.39830  0.11460  0.10010  Biso   1.000  N
  N80      1.0000 0.40890  0.45570  0.10367  Biso   1.000  N
  N81      1.0000 0.59140  0.26790  0.27762  Biso   1.000  N
  N82      1.0000 0.43420  0.28500  0.13114  Biso   1.000  N
  N83      1.0000 0.47530  0.32410  0.17673  Biso   1.000  N
  N84      1.0000 0.47250  0.24000  0.17437  Biso   1.000  N
  N85      1.0000 0.00860  0.44800  0.42244  Biso   1.000  N
  N86      1.0000 0.58770  0.29620  0.34756  Biso   1.000  N
  N87      1.0000 0.58080  0.44410  0.54016  Biso   1.000  N
  N88      1.0000 0.33860  0.37570  0.41148  Biso   1.000  N
  N89      1.0000 0.48390  0.38120  0.43980  Biso   1.000  N
  N90      1.0000 0.34130  0.41650  0.45824  Biso   1.000  N
  N91      1.0000 0.60170  0.38540  0.60010  Biso   1.000  N
  N92      1.0000 0.59110  0.04430  0.60367  Biso   1.000  N
  N93      1.0000 0.40860  0.23210  0.77762  Biso   1.000  N
  N94      1.0000 0.56580  0.21500  0.63114  Biso   1.000  N
  N95      1.0000 0.52470  0.17590  0.67673  Biso   1.000  N
  N96      1.0000 0.52750  0.26000  0.67437  Biso   1.000  N
