data_image0
_cell_length_a       13.8163
_cell_length_b       27.5814
_cell_length_c       44.236
_cell_angle_alpha    90
_cell_angle_beta     90
_cell_angle_gamma    90

_symmetry_space_group_name_H-M    P 1
_symmetry_int_tables_number       1

loop_
  _symmetry_equiv_pos_as_xyz
  'x, y, z'

loop_
  _atom_site_label
  _atom_site_occupancy
  _atom_site_fract_x
  _atom_site_fract_y
  _atom_site_fract_z
  _atom_site_thermal_displace_type
  _atom_site_B_iso_or_equiv
  _atom_site_type_symbol
  Zn1      1.0000 0.35904  0.04396  0.08831  Biso   1.000  Zn
  Zn2      1.0000 0.38160  0.52515  0.08568  Biso   1.000  Zn
  Zn3      1.0000 0.31358  0.23974  0.82026  Biso   1.000  Zn
  Zn4      1.0000 0.64096  0.45604  0.58831  Biso   1.000  Zn
  Zn5      1.0000 0.61840  0.97485  0.58568  Biso   1.000  Zn
  Zn6      1.0000 0.68642  0.26026  0.32026  Biso   1.000  Zn
  Zn7      1.0000 0.85904  0.95604  0.41169  Biso   1.000  Zn
  Zn8      1.0000 0.88160  0.47485  0.41432  Biso   1.000  Zn
  Zn9      1.0000 0.81358  0.76026  0.67974  Biso   1.000  Zn
  Zn10     1.0000 0.14096  0.54396  0.91169  Biso   1.000  Zn
  Zn11     1.0000 0.11840  0.02515  0.91432  Biso   1.000  Zn
  Zn12     1.0000 0.18642  0.73974  0.17974  Biso   1.000  Zn
  H1       1.0000 0.98270  0.03710  0.96650  Biso   1.000  H
  H2       1.0000 0.82220  0.06570  0.97550  Biso   1.000  H
  H3       1.0000 0.96130  0.08090  0.88170  Biso   1.000  H
  H4       1.0000 0.80630  0.10720  0.88860  Biso   1.000  H
  H5       1.0000 0.52860  0.21830  0.83580  Biso   1.000  H
  H6       1.0000 0.61390  0.17910  0.87220  Biso   1.000  H
  H7       1.0000 0.28190  0.18810  0.87630  Biso   1.000  H
  H8       1.0000 0.36680  0.14810  0.91610  Biso   1.000  H
  H9       1.0000 0.30020  0.07320  0.02590  Biso   1.000  H
  H10      1.0000 0.36920  0.09830  0.98110  Biso   1.000  H
  H11      1.0000 0.54510  0.02220  0.05780  Biso   1.000  H
  H12      1.0000 0.62810  0.04840  0.01390  Biso   1.000  H
  H13      1.0000 0.44240  0.08260  0.14770  Biso   1.000  H
  H14      1.0000 0.47490  0.15480  0.16900  Biso   1.000  H
  H15      1.0000 0.37750  0.14860  0.07010  Biso   1.000  H
  H16      1.0000 0.40800  0.22270  0.09100  Biso   1.000  H
  H17      1.0000 0.39710  0.41750  0.06940  Biso   1.000  H
  H18      1.0000 0.42460  0.34450  0.09310  Biso   1.000  H
  H19      1.0000 0.44080  0.48810  0.14650  Biso   1.000  H
  H20      1.0000 0.47380  0.41750  0.17080  Biso   1.000  H
  H21      1.0000 0.62640  0.33820  0.28030  Biso   1.000  H
  H22      1.0000 0.56420  0.34980  0.23040  Biso   1.000  H
  H23      1.0000 0.56330  0.20140  0.27740  Biso   1.000  H
  H24      1.0000 0.50640  0.20840  0.22770  Biso   1.000  H
  H25      1.0000 0.01730  0.46290  0.46650  Biso   1.000  H
  H26      1.0000 0.17780  0.43430  0.47550  Biso   1.000  H
  H27      1.0000 0.03870  0.41910  0.38170  Biso   1.000  H
  H28      1.0000 0.19370  0.39280  0.38860  Biso   1.000  H
  H29      1.0000 0.47140  0.28170  0.33580  Biso   1.000  H
  H30      1.0000 0.38610  0.32090  0.37220  Biso   1.000  H
  H31      1.0000 0.71810  0.31190  0.37630  Biso   1.000  H
  H32      1.0000 0.63320  0.35190  0.41610  Biso   1.000  H
  H33      1.0000 0.69980  0.42680  0.52590  Biso   1.000  H
  H34      1.0000 0.63080  0.40170  0.48110  Biso   1.000  H
  H35      1.0000 0.45490  0.47780  0.55780  Biso   1.000  H
  H36      1.0000 0.37190  0.45160  0.51390  Biso   1.000  H
  H37      1.0000 0.55760  0.41740  0.64770  Biso   1.000  H
  H38      1.0000 0.52510  0.34520  0.66900  Biso   1.000  H
  H39      1.0000 0.62250  0.35140  0.57010  Biso   1.000  H
  H40      1.0000 0.59200  0.27730  0.59100  Biso   1.000  H
  H41      1.0000 0.60290  0.08250  0.56940  Biso   1.000  H
  H42      1.0000 0.57540  0.15550  0.59310  Biso   1.000  H
  H43      1.0000 0.55920  0.01190  0.64650  Biso   1.000  H
  H44      1.0000 0.52620  0.08250  0.67080  Biso   1.000  H
  H45      1.0000 0.37360  0.16180  0.78030  Biso   1.000  H
  H46      1.0000 0.43580  0.15020  0.73040  Biso   1.000  H
  H47      1.0000 0.43670  0.29860  0.77740  Biso   1.000  H
  H48      1.0000 0.49360  0.29160  0.72770  Biso   1.000  H
  H49      1.0000 0.48270  0.96290  0.53350  Biso   1.000  H
  H50      1.0000 0.32220  0.93430  0.52450  Biso   1.000  H
  H51      1.0000 0.46130  0.91910  0.61830  Biso   1.000  H
  H52      1.0000 0.30630  0.89280  0.61140  Biso   1.000  H
  H53      1.0000 0.02860  0.78170  0.66420  Biso   1.000  H
  H54      1.0000 0.11390  0.82090  0.62780  Biso   1.000  H
  H55      1.0000 0.78190  0.81190  0.62370  Biso   1.000  H
  H56      1.0000 0.86680  0.85190  0.58390  Biso   1.000  H
  H57      1.0000 0.80020  0.92680  0.47410  Biso   1.000  H
  H58      1.0000 0.86920  0.90170  0.51890  Biso   1.000  H
  H59      1.0000 0.04510  0.97780  0.44220  Biso   1.000  H
  H60      1.0000 0.12810  0.95160  0.48610  Biso   1.000  H
  H61      1.0000 0.94240  0.91740  0.35230  Biso   1.000  H
  H62      1.0000 0.97490  0.84520  0.33100  Biso   1.000  H
  H63      1.0000 0.87750  0.85140  0.42990  Biso   1.000  H
  H64      1.0000 0.90800  0.77730  0.40900  Biso   1.000  H
  H65      1.0000 0.89710  0.58250  0.43060  Biso   1.000  H
  H66      1.0000 0.92460  0.65550  0.40690  Biso   1.000  H
  H67      1.0000 0.94080  0.51190  0.35350  Biso   1.000  H
  H68      1.0000 0.97380  0.58250  0.32920  Biso   1.000  H
  H69      1.0000 0.12640  0.66180  0.21970  Biso   1.000  H
  H70      1.0000 0.06420  0.65020  0.26960  Biso   1.000  H
  H71      1.0000 0.06330  0.79860  0.22260  Biso   1.000  H
  H72      1.0000 0.00640  0.79160  0.27230  Biso   1.000  H
  H73      1.0000 0.51730  0.53710  0.03350  Biso   1.000  H
  H74      1.0000 0.67780  0.56570  0.02450  Biso   1.000  H
  H75      1.0000 0.53870  0.58090  0.11830  Biso   1.000  H
  H76      1.0000 0.69370  0.60720  0.11140  Biso   1.000  H
  H77      1.0000 0.97140  0.71830  0.16420  Biso   1.000  H
  H78      1.0000 0.88610  0.67910  0.12780  Biso   1.000  H
  H79      1.0000 0.21810  0.68810  0.12370  Biso   1.000  H
  H80      1.0000 0.13320  0.64810  0.08390  Biso   1.000  H
  H81      1.0000 0.19980  0.57320  0.97410  Biso   1.000  H
  H82      1.0000 0.13080  0.59830  0.01890  Biso   1.000  H
  H83      1.0000 0.95490  0.52220  0.94220  Biso   1.000  H
  H84      1.0000 0.87190  0.54840  0.98610  Biso   1.000  H
  H85      1.0000 0.05760  0.58260  0.85230  Biso   1.000  H
  H86      1.0000 0.02510  0.65480  0.83100  Biso   1.000  H
  H87      1.0000 0.12250  0.64860  0.92990  Biso   1.000  H
  H88      1.0000 0.09200  0.72270  0.90900  Biso   1.000  H
  H89      1.0000 0.10290  0.91750  0.93060  Biso   1.000  H
  H90      1.0000 0.07540  0.84450  0.90690  Biso   1.000  H
  H91      1.0000 0.05920  0.98810  0.85350  Biso   1.000  H
  H92      1.0000 0.02620  0.91750  0.82920  Biso   1.000  H
  H93      1.0000 0.87360  0.83820  0.71970  Biso   1.000  H
  H94      1.0000 0.93580  0.84980  0.76960  Biso   1.000  H
  H95      1.0000 0.93670  0.70140  0.72260  Biso   1.000  H
  H96      1.0000 0.99360  0.70840  0.77230  Biso   1.000  H
  C1       1.0000 0.94660  0.05140  0.95050  Biso   1.000  C
  C2       1.0000 0.85000  0.06850  0.95590  Biso   1.000  C
  C3       1.0000 0.93220  0.07710  0.90100  Biso   1.000  C
  C4       1.0000 0.84080  0.09310  0.90500  Biso   1.000  C
  C5       1.0000 0.79830  0.08890  0.93300  Biso   1.000  C
  C6       1.0000 0.69450  0.10180  0.93780  Biso   1.000  C
  C7       1.0000 0.49420  0.20330  0.85190  Biso   1.000  C
  C8       1.0000 0.54530  0.18030  0.87360  Biso   1.000  C
  C9       1.0000 0.35040  0.18620  0.87530  Biso   1.000  C
  C10      1.0000 0.39990  0.16190  0.89930  Biso   1.000  C
  C11      1.0000 0.50340  0.15980  0.89630  Biso   1.000  C
  C12      1.0000 0.55650  0.13650  0.92090  Biso   1.000  C
  C13      1.0000 0.36800  0.06920  0.02330  Biso   1.000  C
  C14      1.0000 0.40770  0.08400  0.99650  Biso   1.000  C
  C15      1.0000 0.51170  0.03940  0.04240  Biso   1.000  C
  C16      1.0000 0.56050  0.05410  0.01590  Biso   1.000  C
  C17      1.0000 0.50960  0.07690  0.99250  Biso   1.000  C
  C18      1.0000 0.55790  0.09460  0.96540  Biso   1.000  C
  C19      1.0000 0.43470  0.11130  0.13610  Biso   1.000  C
  C20      1.0000 0.45220  0.15470  0.14880  Biso   1.000  C
  C21      1.0000 0.39660  0.15040  0.09070  Biso   1.000  C
  C22      1.0000 0.41360  0.19460  0.10330  Biso   1.000  C
  C23      1.0000 0.43990  0.20010  0.13460  Biso   1.000  C
  C24      1.0000 0.45210  0.24420  0.15000  Biso   1.000  C
  C25      1.0000 0.41120  0.41730  0.09040  Biso   1.000  C
  C26      1.0000 0.42600  0.37350  0.10460  Biso   1.000  C
  C27      1.0000 0.43740  0.45860  0.13550  Biso   1.000  C
  C28      1.0000 0.45430  0.41660  0.15030  Biso   1.000  C
  C29      1.0000 0.44310  0.37110  0.13550  Biso   1.000  C
  C30      1.0000 0.45550  0.32560  0.15110  Biso   1.000  C
  C31      1.0000 0.60300  0.31090  0.26940  Biso   1.000  C
  C32      1.0000 0.56520  0.31860  0.23950  Biso   1.000  C
  C33      1.0000 0.56720  0.23200  0.26750  Biso   1.000  C
  C34      1.0000 0.53080  0.23620  0.23790  Biso   1.000  C
  C35      1.0000 0.53050  0.27820  0.22450  Biso   1.000  C
  C36      1.0000 0.49360  0.28390  0.19260  Biso   1.000  C
  C37      1.0000 0.05340  0.44860  0.45050  Biso   1.000  C
  C38      1.0000 0.15000  0.43150  0.45590  Biso   1.000  C
  C39      1.0000 0.06780  0.42290  0.40100  Biso   1.000  C
  C40      1.0000 0.15920  0.40690  0.40500  Biso   1.000  C
  C41      1.0000 0.20170  0.41110  0.43300  Biso   1.000  C
  C42      1.0000 0.30550  0.39820  0.43780  Biso   1.000  C
  C43      1.0000 0.50580  0.29670  0.35190  Biso   1.000  C
  C44      1.0000 0.45470  0.31970  0.37360  Biso   1.000  C
  C45      1.0000 0.64960  0.31380  0.37530  Biso   1.000  C
  C46      1.0000 0.60010  0.33810  0.39930  Biso   1.000  C
  C47      1.0000 0.49660  0.34020  0.39630  Biso   1.000  C
  C48      1.0000 0.44350  0.36350  0.42090  Biso   1.000  C
  C49      1.0000 0.63200  0.43080  0.52330  Biso   1.000  C
  C50      1.0000 0.59230  0.41600  0.49650  Biso   1.000  C
  C51      1.0000 0.48830  0.46060  0.54240  Biso   1.000  C
  C52      1.0000 0.43950  0.44590  0.51590  Biso   1.000  C
  C53      1.0000 0.49040  0.42310  0.49250  Biso   1.000  C
  C54      1.0000 0.44210  0.40540  0.46540  Biso   1.000  C
  C55      1.0000 0.56530  0.38870  0.63610  Biso   1.000  C
  C56      1.0000 0.54780  0.34530  0.64880  Biso   1.000  C
  C57      1.0000 0.60340  0.34960  0.59070  Biso   1.000  C
  C58      1.0000 0.58640  0.30540  0.60330  Biso   1.000  C
  C59      1.0000 0.56010  0.29990  0.63460  Biso   1.000  C
  C60      1.0000 0.54790  0.25580  0.65000  Biso   1.000  C
  C61      1.0000 0.58880  0.08270  0.59040  Biso   1.000  C
  C62      1.0000 0.57400  0.12650  0.60460  Biso   1.000  C
  C63      1.0000 0.56260  0.04140  0.63550  Biso   1.000  C
  C64      1.0000 0.54570  0.08340  0.65030  Biso   1.000  C
  C65      1.0000 0.55690  0.12890  0.63550  Biso   1.000  C
  C66      1.0000 0.54450  0.17440  0.65110  Biso   1.000  C
  C67      1.0000 0.39700  0.18910  0.76940  Biso   1.000  C
  C68      1.0000 0.43480  0.18140  0.73950  Biso   1.000  C
  C69      1.0000 0.43280  0.26800  0.76750  Biso   1.000  C
  C70      1.0000 0.46920  0.26380  0.73790  Biso   1.000  C
  C71      1.0000 0.46950  0.22180  0.72450  Biso   1.000  C
  C72      1.0000 0.50640  0.21610  0.69260  Biso   1.000  C
  C73      1.0000 0.44660  0.94860  0.54950  Biso   1.000  C
  C74      1.0000 0.35000  0.93150  0.54410  Biso   1.000  C
  C75      1.0000 0.43220  0.92290  0.59900  Biso   1.000  C
  C76      1.0000 0.34080  0.90690  0.59500  Biso   1.000  C
  C77      1.0000 0.29830  0.91110  0.56700  Biso   1.000  C
  C78      1.0000 0.19450  0.89820  0.56220  Biso   1.000  C
  C79      1.0000 0.99420  0.79670  0.64810  Biso   1.000  C
  C80      1.0000 0.04530  0.81970  0.62640  Biso   1.000  C
  C81      1.0000 0.85040  0.81380  0.62470  Biso   1.000  C
  C82      1.0000 0.89990  0.83810  0.60070  Biso   1.000  C
  C83      1.0000 0.00340  0.84020  0.60370  Biso   1.000  C
  C84      1.0000 0.05650  0.86350  0.57910  Biso   1.000  C
  C85      1.0000 0.86800  0.93080  0.47670  Biso   1.000  C
  C86      1.0000 0.90770  0.91600  0.50350  Biso   1.000  C
  C87      1.0000 0.01170  0.96060  0.45760  Biso   1.000  C
  C88      1.0000 0.06050  0.94590  0.48410  Biso   1.000  C
  C89      1.0000 0.00960  0.92310  0.50750  Biso   1.000  C
  C90      1.0000 0.05790  0.90540  0.53460  Biso   1.000  C
  C91      1.0000 0.93470  0.88870  0.36390  Biso   1.000  C
  C92      1.0000 0.95220  0.84530  0.35120  Biso   1.000  C
  C93      1.0000 0.89660  0.84960  0.40930  Biso   1.000  C
  C94      1.0000 0.91360  0.80540  0.39670  Biso   1.000  C
  C95      1.0000 0.93990  0.79990  0.36540  Biso   1.000  C
  C96      1.0000 0.95210  0.75580  0.35000  Biso   1.000  C
  C97      1.0000 0.91120  0.58270  0.40960  Biso   1.000  C
  C98      1.0000 0.92600  0.62650  0.39540  Biso   1.000  C
  C99      1.0000 0.93740  0.54140  0.36450  Biso   1.000  C
  C100     1.0000 0.95430  0.58340  0.34970  Biso   1.000  C
  C101     1.0000 0.94310  0.62890  0.36450  Biso   1.000  C
  C102     1.0000 0.95550  0.67440  0.34890  Biso   1.000  C
  C103     1.0000 0.10300  0.68910  0.23060  Biso   1.000  C
  C104     1.0000 0.06520  0.68140  0.26050  Biso   1.000  C
  C105     1.0000 0.06720  0.76800  0.23250  Biso   1.000  C
  C106     1.0000 0.03080  0.76380  0.26210  Biso   1.000  C
  C107     1.0000 0.03050  0.72180  0.27550  Biso   1.000  C
  C108     1.0000 0.99360  0.71610  0.30740  Biso   1.000  C
  C109     1.0000 0.55340  0.55140  0.04950  Biso   1.000  C
  C110     1.0000 0.65000  0.56850  0.04410  Biso   1.000  C
  C111     1.0000 0.56780  0.57710  0.09900  Biso   1.000  C
  C112     1.0000 0.65920  0.59310  0.09500  Biso   1.000  C
  C113     1.0000 0.70170  0.58890  0.06700  Biso   1.000  C
  C114     1.0000 0.80550  0.60180  0.06220  Biso   1.000  C
  C115     1.0000 0.00580  0.70330  0.14810  Biso   1.000  C
  C116     1.0000 0.95470  0.68030  0.12640  Biso   1.000  C
  C117     1.0000 0.14960  0.68620  0.12470  Biso   1.000  C
  C118     1.0000 0.10010  0.66190  0.10070  Biso   1.000  C
  C119     1.0000 0.99660  0.65980  0.10370  Biso   1.000  C
  C120     1.0000 0.94350  0.63650  0.07910  Biso   1.000  C
  C121     1.0000 0.13200  0.56920  0.97670  Biso   1.000  C
  C122     1.0000 0.09230  0.58400  0.00350  Biso   1.000  C
  C123     1.0000 0.98830  0.53940  0.95760  Biso   1.000  C
  C124     1.0000 0.93950  0.55410  0.98410  Biso   1.000  C
  C125     1.0000 0.99040  0.57690  0.00750  Biso   1.000  C
  C126     1.0000 0.94210  0.59460  0.03460  Biso   1.000  C
  C127     1.0000 0.06530  0.61130  0.86390  Biso   1.000  C
  C128     1.0000 0.04780  0.65470  0.85120  Biso   1.000  C
  C129     1.0000 0.10340  0.65040  0.90930  Biso   1.000  C
  C130     1.0000 0.08640  0.69460  0.89670  Biso   1.000  C
  C131     1.0000 0.06010  0.70010  0.86540  Biso   1.000  C
  C132     1.0000 0.04790  0.74420  0.85000  Biso   1.000  C
  C133     1.0000 0.08880  0.91730  0.90960  Biso   1.000  C
  C134     1.0000 0.07400  0.87350  0.89540  Biso   1.000  C
  C135     1.0000 0.06260  0.95860  0.86450  Biso   1.000  C
  C136     1.0000 0.04570  0.91660  0.84970  Biso   1.000  C
  C137     1.0000 0.05690  0.87110  0.86450  Biso   1.000  C
  C138     1.0000 0.04450  0.82560  0.84890  Biso   1.000  C
  C139     1.0000 0.89700  0.81090  0.73060  Biso   1.000  C
  C140     1.0000 0.93480  0.81860  0.76050  Biso   1.000  C
  C141     1.0000 0.93280  0.73200  0.73250  Biso   1.000  C
  C142     1.0000 0.96920  0.73620  0.76210  Biso   1.000  C
  C143     1.0000 0.96950  0.77820  0.77550  Biso   1.000  C
  C144     1.0000 0.00640  0.78390  0.80740  Biso   1.000  C
  I1       1.0000 0.44623  0.97849  0.11781  Biso   1.000  I
  I2       1.0000 0.17669  0.05282  0.08466  Biso   1.000  I
  I3       1.0000 0.30553  0.50686  0.03415  Biso   1.000  I
  I4       1.0000 0.29542  0.57357  0.12587  Biso   1.000  I
  I5       1.0000 0.30566  0.33040  0.83134  Biso   1.000  I
  I6       1.0000 0.15661  0.19313  0.81287  Biso   1.000  I
  I7       1.0000 0.55377  0.52151  0.61781  Biso   1.000  I
  I8       1.0000 0.82331  0.44718  0.58466  Biso   1.000  I
  I9       1.0000 0.69447  0.99314  0.53415  Biso   1.000  I
  I10      1.0000 0.70458  0.92643  0.62587  Biso   1.000  I
  I11      1.0000 0.69434  0.16960  0.33134  Biso   1.000  I
  I12      1.0000 0.84339  0.30687  0.31287  Biso   1.000  I
  I13      1.0000 0.94623  0.02151  0.38219  Biso   1.000  I
  I14      1.0000 0.67669  0.94718  0.41534  Biso   1.000  I
  I15      1.0000 0.80553  0.49314  0.46585  Biso   1.000  I
  I16      1.0000 0.79542  0.42643  0.37413  Biso   1.000  I
  I17      1.0000 0.80566  0.66960  0.66866  Biso   1.000  I
  I18      1.0000 0.65661  0.80687  0.68713  Biso   1.000  I
  I19      1.0000 0.05377  0.47849  0.88219  Biso   1.000  I
  I20      1.0000 0.32331  0.55282  0.91534  Biso   1.000  I
  I21      1.0000 0.19447  0.00686  0.96585  Biso   1.000  I
  I22      1.0000 0.20458  0.07357  0.87413  Biso   1.000  I
  I23      1.0000 0.19434  0.83040  0.16866  Biso   1.000  I
  I24      1.0000 0.34339  0.69313  0.18713  Biso   1.000  I
  N1       1.0000 0.98500  0.05560  0.92340  Biso   1.000  N
  N2       1.0000 0.39360  0.20630  0.85190  Biso   1.000  N
  N3       1.0000 0.41740  0.05000  0.04550  Biso   1.000  N
  N4       1.0000 0.65320  0.12870  0.91660  Biso   1.000  N
  N5       1.0000 0.50580  0.11920  0.94490  Biso   1.000  N
  N6       1.0000 0.65110  0.08300  0.96250  Biso   1.000  N
  N7       1.0000 0.40640  0.10820  0.10700  Biso   1.000  N
  N8       1.0000 0.41590  0.46040  0.10540  Biso   1.000  N
  N9       1.0000 0.60680  0.26900  0.28210  Biso   1.000  N
  N10      1.0000 0.44190  0.28550  0.13460  Biso   1.000  N
  N11      1.0000 0.48400  0.32590  0.18040  Biso   1.000  N
  N12      1.0000 0.48010  0.24150  0.17900  Biso   1.000  N
  N13      1.0000 0.01500  0.44440  0.42340  Biso   1.000  N
  N14      1.0000 0.60640  0.29370  0.35190  Biso   1.000  N
  N15      1.0000 0.58260  0.45000  0.54550  Biso   1.000  N
  N16      1.0000 0.34680  0.37130  0.41660  Biso   1.000  N
  N17      1.0000 0.49420  0.38080  0.44490  Biso   1.000  N
  N18      1.0000 0.34890  0.41700  0.46250  Biso   1.000  N
  N19      1.0000 0.59360  0.39180  0.60700  Biso   1.000  N
  N20      1.0000 0.58410  0.03960  0.60540  Biso   1.000  N
  N21      1.0000 0.39320  0.23100  0.78210  Biso   1.000  N
  N22      1.0000 0.55810  0.21450  0.63460  Biso   1.000  N
  N23      1.0000 0.51600  0.17410  0.68040  Biso   1.000  N
  N24      1.0000 0.51990  0.25850  0.67900  Biso   1.000  N
  N25      1.0000 0.48500  0.94440  0.57660  Biso   1.000  N
  N26      1.0000 0.89360  0.79370  0.64810  Biso   1.000  N
  N27      1.0000 0.91740  0.95000  0.45450  Biso   1.000  N
  N28      1.0000 0.15320  0.87130  0.58340  Biso   1.000  N
  N29      1.0000 0.00580  0.88080  0.55510  Biso   1.000  N
  N30      1.0000 0.15110  0.91700  0.53750  Biso   1.000  N
  N31      1.0000 0.90640  0.89180  0.39300  Biso   1.000  N
  N32      1.0000 0.91590  0.53960  0.39460  Biso   1.000  N
  N33      1.0000 0.10680  0.73100  0.21790  Biso   1.000  N
  N34      1.0000 0.94190  0.71450  0.36540  Biso   1.000  N
  N35      1.0000 0.98400  0.67410  0.31960  Biso   1.000  N
  N36      1.0000 0.98010  0.75850  0.32100  Biso   1.000  N
  N37      1.0000 0.51500  0.55560  0.07660  Biso   1.000  N
  N38      1.0000 0.10640  0.70630  0.14810  Biso   1.000  N
  N39      1.0000 0.08260  0.55000  0.95450  Biso   1.000  N
  N40      1.0000 0.84680  0.62870  0.08340  Biso   1.000  N
  N41      1.0000 0.99420  0.61920  0.05510  Biso   1.000  N
  N42      1.0000 0.84890  0.58300  0.03750  Biso   1.000  N
  N43      1.0000 0.09360  0.60820  0.89300  Biso   1.000  N
  N44      1.0000 0.08410  0.96040  0.89460  Biso   1.000  N
  N45      1.0000 0.89320  0.76900  0.71790  Biso   1.000  N
  N46      1.0000 0.05810  0.78550  0.86540  Biso   1.000  N
  N47      1.0000 0.01600  0.82590  0.81960  Biso   1.000  N
  N48      1.0000 0.01990  0.74150  0.82100  Biso   1.000  N
  Zn13     1.0000 0.64096  0.95604  0.91169  Biso   1.000  Zn
  Zn14     1.0000 0.61840  0.47485  0.91432  Biso   1.000  Zn
  Zn15     1.0000 0.68642  0.76026  0.17974  Biso   1.000  Zn
  Zn16     1.0000 0.35904  0.54396  0.41169  Biso   1.000  Zn
  Zn17     1.0000 0.38160  0.02515  0.41432  Biso   1.000  Zn
  Zn18     1.0000 0.31358  0.73974  0.67974  Biso   1.000  Zn
  Zn19     1.0000 0.14096  0.04396  0.58831  Biso   1.000  Zn
  Zn20     1.0000 0.11840  0.52515  0.58568  Biso   1.000  Zn
  Zn21     1.0000 0.18642  0.23974  0.32026  Biso   1.000  Zn
  Zn22     1.0000 0.85904  0.45604  0.08831  Biso   1.000  Zn
  Zn23     1.0000 0.88160  0.97485  0.08568  Biso   1.000  Zn
  Zn24     1.0000 0.81358  0.26026  0.82026  Biso   1.000  Zn
  H97      1.0000 0.01730  0.96290  0.03350  Biso   1.000  H
  H98      1.0000 0.17780  0.93430  0.02450  Biso   1.000  H
  H99      1.0000 0.03870  0.91910  0.11830  Biso   1.000  H
  H100     1.0000 0.19370  0.89280  0.11140  Biso   1.000  H
  H101     1.0000 0.47140  0.78170  0.16420  Biso   1.000  H
  H102     1.0000 0.38610  0.82090  0.12780  Biso   1.000  H
  H103     1.0000 0.71810  0.81190  0.12370  Biso   1.000  H
  H104     1.0000 0.63320  0.85190  0.08390  Biso   1.000  H
  H105     1.0000 0.69980  0.92680  0.97410  Biso   1.000  H
  H106     1.0000 0.63080  0.90170  0.01890  Biso   1.000  H
  H107     1.0000 0.45490  0.97780  0.94220  Biso   1.000  H
  H108     1.0000 0.37190  0.95160  0.98610  Biso   1.000  H
  H109     1.0000 0.55760  0.91740  0.85230  Biso   1.000  H
  H110     1.0000 0.52510  0.84520  0.83100  Biso   1.000  H
  H111     1.0000 0.62250  0.85140  0.92990  Biso   1.000  H
  H112     1.0000 0.59200  0.77730  0.90900  Biso   1.000  H
  H113     1.0000 0.60290  0.58250  0.93060  Biso   1.000  H
  H114     1.0000 0.57540  0.65550  0.90690  Biso   1.000  H
  H115     1.0000 0.55920  0.51190  0.85350  Biso   1.000  H
  H116     1.0000 0.52620  0.58250  0.82920  Biso   1.000  H
  H117     1.0000 0.37360  0.66180  0.71970  Biso   1.000  H
  H118     1.0000 0.43580  0.65020  0.76960  Biso   1.000  H
  H119     1.0000 0.43670  0.79860  0.72260  Biso   1.000  H
  H120     1.0000 0.49360  0.79160  0.77230  Biso   1.000  H
  H121     1.0000 0.98270  0.53710  0.53350  Biso   1.000  H
  H122     1.0000 0.82220  0.56570  0.52450  Biso   1.000  H
  H123     1.0000 0.96130  0.58090  0.61830  Biso   1.000  H
  H124     1.0000 0.80630  0.60720  0.61140  Biso   1.000  H
  H125     1.0000 0.52860  0.71830  0.66420  Biso   1.000  H
  H126     1.0000 0.61390  0.67910  0.62780  Biso   1.000  H
  H127     1.0000 0.28190  0.68810  0.62370  Biso   1.000  H
  H128     1.0000 0.36680  0.64810  0.58390  Biso   1.000  H
  H129     1.0000 0.30020  0.57320  0.47410  Biso   1.000  H
  H130     1.0000 0.36920  0.59830  0.51890  Biso   1.000  H
  H131     1.0000 0.54510  0.52220  0.44220  Biso   1.000  H
  H132     1.0000 0.62810  0.54840  0.48610  Biso   1.000  H
  H133     1.0000 0.44240  0.58260  0.35230  Biso   1.000  H
  H134     1.0000 0.47490  0.65480  0.33100  Biso   1.000  H
  H135     1.0000 0.37750  0.64860  0.42990  Biso   1.000  H
  H136     1.0000 0.40800  0.72270  0.40900  Biso   1.000  H
  H137     1.0000 0.39710  0.91750  0.43060  Biso   1.000  H
  H138     1.0000 0.42460  0.84450  0.40690  Biso   1.000  H
  H139     1.0000 0.44080  0.98810  0.35350  Biso   1.000  H
  H140     1.0000 0.47380  0.91750  0.32920  Biso   1.000  H
  H141     1.0000 0.62640  0.83820  0.21970  Biso   1.000  H
  H142     1.0000 0.56420  0.84980  0.26960  Biso   1.000  H
  H143     1.0000 0.56330  0.70140  0.22260  Biso   1.000  H
  H144     1.0000 0.50640  0.70840  0.27230  Biso   1.000  H
  H145     1.0000 0.51730  0.03710  0.46650  Biso   1.000  H
  H146     1.0000 0.67780  0.06570  0.47550  Biso   1.000  H
  H147     1.0000 0.53870  0.08090  0.38170  Biso   1.000  H
  H148     1.0000 0.69370  0.10720  0.38860  Biso   1.000  H
  H149     1.0000 0.97140  0.21830  0.33580  Biso   1.000  H
  H150     1.0000 0.88610  0.17910  0.37220  Biso   1.000  H
  H151     1.0000 0.21810  0.18810  0.37630  Biso   1.000  H
  H152     1.0000 0.13320  0.14810  0.41610  Biso   1.000  H
  H153     1.0000 0.19980  0.07320  0.52590  Biso   1.000  H
  H154     1.0000 0.13080  0.09830  0.48110  Biso   1.000  H
  H155     1.0000 0.95490  0.02220  0.55780  Biso   1.000  H
  H156     1.0000 0.87190  0.04840  0.51390  Biso   1.000  H
  H157     1.0000 0.05760  0.08260  0.64770  Biso   1.000  H
  H158     1.0000 0.02510  0.15480  0.66900  Biso   1.000  H
  H159     1.0000 0.12250  0.14860  0.57010  Biso   1.000  H
  H160     1.0000 0.09200  0.22270  0.59100  Biso   1.000  H
  H161     1.0000 0.10290  0.41750  0.56940  Biso   1.000  H
  H162     1.0000 0.07540  0.34450  0.59310  Biso   1.000  H
  H163     1.0000 0.05920  0.48810  0.64650  Biso   1.000  H
  H164     1.0000 0.02620  0.41750  0.67080  Biso   1.000  H
  H165     1.0000 0.87360  0.33820  0.78030  Biso   1.000  H
  H166     1.0000 0.93580  0.34980  0.73040  Biso   1.000  H
  H167     1.0000 0.93670  0.20140  0.77740  Biso   1.000  H
  H168     1.0000 0.99360  0.20840  0.72770  Biso   1.000  H
  H169     1.0000 0.48270  0.46290  0.96650  Biso   1.000  H
  H170     1.0000 0.32220  0.43430  0.97550  Biso   1.000  H
  H171     1.0000 0.46130  0.41910  0.88170  Biso   1.000  H
  H172     1.0000 0.30630  0.39280  0.88860  Biso   1.000  H
  H173     1.0000 0.02860  0.28170  0.83580  Biso   1.000  H
  H174     1.0000 0.11390  0.32090  0.87220  Biso   1.000  H
  H175     1.0000 0.78190  0.31190  0.87630  Biso   1.000  H
  H176     1.0000 0.86680  0.35190  0.91610  Biso   1.000  H
  H177     1.0000 0.80020  0.42680  0.02590  Biso   1.000  H
  H178     1.0000 0.86920  0.40170  0.98110  Biso   1.000  H
  H179     1.0000 0.04510  0.47780  0.05780  Biso   1.000  H
  H180     1.0000 0.12810  0.45160  0.01390  Biso   1.000  H
  H181     1.0000 0.94240  0.41740  0.14770  Biso   1.000  H
  H182     1.0000 0.97490  0.34520  0.16900  Biso   1.000  H
  H183     1.0000 0.87750  0.35140  0.07010  Biso   1.000  H
  H184     1.0000 0.90800  0.27730  0.09100  Biso   1.000  H
  H185     1.0000 0.89710  0.08250  0.06940  Biso   1.000  H
  H186     1.0000 0.92460  0.15550  0.09310  Biso   1.000  H
  H187     1.0000 0.94080  0.01190  0.14650  Biso   1.000  H
  H188     1.0000 0.97380  0.08250  0.17080  Biso   1.000  H
  H189     1.0000 0.12640  0.16180  0.28030  Biso   1.000  H
  H190     1.0000 0.06420  0.15020  0.23040  Biso   1.000  H
  H191     1.0000 0.06330  0.29860  0.27740  Biso   1.000  H
  H192     1.0000 0.00640  0.29160  0.22770  Biso   1.000  H
  C145     1.0000 0.05340  0.94860  0.04950  Biso   1.000  C
  C146     1.0000 0.15000  0.93150  0.04410  Biso   1.000  C
  C147     1.0000 0.06780  0.92290  0.09900  Biso   1.000  C
  C148     1.0000 0.15920  0.90690  0.09500  Biso   1.000  C
  C149     1.0000 0.20170  0.91110  0.06700  Biso   1.000  C
  C150     1.0000 0.30550  0.89820  0.06220  Biso   1.000  C
  C151     1.0000 0.50580  0.79670  0.14810  Biso   1.000  C
  C152     1.0000 0.45470  0.81970  0.12640  Biso   1.000  C
  C153     1.0000 0.64960  0.81380  0.12470  Biso   1.000  C
  C154     1.0000 0.60010  0.83810  0.10070  Biso   1.000  C
  C155     1.0000 0.49660  0.84020  0.10370  Biso   1.000  C
  C156     1.0000 0.44350  0.86350  0.07910  Biso   1.000  C
  C157     1.0000 0.63200  0.93080  0.97670  Biso   1.000  C
  C158     1.0000 0.59230  0.91600  0.00350  Biso   1.000  C
  C159     1.0000 0.48830  0.96060  0.95760  Biso   1.000  C
  C160     1.0000 0.43950  0.94590  0.98410  Biso   1.000  C
  C161     1.0000 0.49040  0.92310  0.00750  Biso   1.000  C
  C162     1.0000 0.44210  0.90540  0.03460  Biso   1.000  C
  C163     1.0000 0.56530  0.88870  0.86390  Biso   1.000  C
  C164     1.0000 0.54780  0.84530  0.85120  Biso   1.000  C
  C165     1.0000 0.60340  0.84960  0.90930  Biso   1.000  C
  C166     1.0000 0.58640  0.80540  0.89670  Biso   1.000  C
  C167     1.0000 0.56010  0.79990  0.86540  Biso   1.000  C
  C168     1.0000 0.54790  0.75580  0.85000  Biso   1.000  C
  C169     1.0000 0.58880  0.58270  0.90960  Biso   1.000  C
  C170     1.0000 0.57400  0.62650  0.89540  Biso   1.000  C
  C171     1.0000 0.56260  0.54140  0.86450  Biso   1.000  C
  C172     1.0000 0.54570  0.58340  0.84970  Biso   1.000  C
  C173     1.0000 0.55690  0.62890  0.86450  Biso   1.000  C
  C174     1.0000 0.54450  0.67440  0.84890  Biso   1.000  C
  C175     1.0000 0.39700  0.68910  0.73060  Biso   1.000  C
  C176     1.0000 0.43480  0.68140  0.76050  Biso   1.000  C
  C177     1.0000 0.43280  0.76800  0.73250  Biso   1.000  C
  C178     1.0000 0.46920  0.76380  0.76210  Biso   1.000  C
  C179     1.0000 0.46950  0.72180  0.77550  Biso   1.000  C
  C180     1.0000 0.50640  0.71610  0.80740  Biso   1.000  C
  C181     1.0000 0.94660  0.55140  0.54950  Biso   1.000  C
  C182     1.0000 0.85000  0.56850  0.54410  Biso   1.000  C
  C183     1.0000 0.93220  0.57710  0.59900  Biso   1.000  C
  C184     1.0000 0.84080  0.59310  0.59500  Biso   1.000  C
  C185     1.0000 0.79830  0.58890  0.56700  Biso   1.000  C
  C186     1.0000 0.69450  0.60180  0.56220  Biso   1.000  C
  C187     1.0000 0.49420  0.70330  0.64810  Biso   1.000  C
  C188     1.0000 0.54530  0.68030  0.62640  Biso   1.000  C
  C189     1.0000 0.35040  0.68620  0.62470  Biso   1.000  C
  C190     1.0000 0.39990  0.66190  0.60070  Biso   1.000  C
  C191     1.0000 0.50340  0.65980  0.60370  Biso   1.000  C
  C192     1.0000 0.55650  0.63650  0.57910  Biso   1.000  C
  C193     1.0000 0.36800  0.56920  0.47670  Biso   1.000  C
  C194     1.0000 0.40770  0.58400  0.50350  Biso   1.000  C
  C195     1.0000 0.51170  0.53940  0.45760  Biso   1.000  C
  C196     1.0000 0.56050  0.55410  0.48410  Biso   1.000  C
  C197     1.0000 0.50960  0.57690  0.50750  Biso   1.000  C
  C198     1.0000 0.55790  0.59460  0.53460  Biso   1.000  C
  C199     1.0000 0.43470  0.61130  0.36390  Biso   1.000  C
  C200     1.0000 0.45220  0.65470  0.35120  Biso   1.000  C
  C201     1.0000 0.39660  0.65040  0.40930  Biso   1.000  C
  C202     1.0000 0.41360  0.69460  0.39670  Biso   1.000  C
  C203     1.0000 0.43990  0.70010  0.36540  Biso   1.000  C
  C204     1.0000 0.45210  0.74420  0.35000  Biso   1.000  C
  C205     1.0000 0.41120  0.91730  0.40960  Biso   1.000  C
  C206     1.0000 0.42600  0.87350  0.39540  Biso   1.000  C
  C207     1.0000 0.43740  0.95860  0.36450  Biso   1.000  C
  C208     1.0000 0.45430  0.91660  0.34970  Biso   1.000  C
  C209     1.0000 0.44310  0.87110  0.36450  Biso   1.000  C
  C210     1.0000 0.45550  0.82560  0.34890  Biso   1.000  C
  C211     1.0000 0.60300  0.81090  0.23060  Biso   1.000  C
  C212     1.0000 0.56520  0.81860  0.26050  Biso   1.000  C
  C213     1.0000 0.56720  0.73200  0.23250  Biso   1.000  C
  C214     1.0000 0.53080  0.73620  0.26210  Biso   1.000  C
  C215     1.0000 0.53050  0.77820  0.27550  Biso   1.000  C
  C216     1.0000 0.49360  0.78390  0.30740  Biso   1.000  C
  C217     1.0000 0.55340  0.05140  0.45050  Biso   1.000  C
  C218     1.0000 0.65000  0.06850  0.45590  Biso   1.000  C
  C219     1.0000 0.56780  0.07710  0.40100  Biso   1.000  C
  C220     1.0000 0.65920  0.09310  0.40500  Biso   1.000  C
  C221     1.0000 0.70170  0.08890  0.43300  Biso   1.000  C
  C222     1.0000 0.80550  0.10180  0.43780  Biso   1.000  C
  C223     1.0000 0.00580  0.20330  0.35190  Biso   1.000  C
  C224     1.0000 0.95470  0.18030  0.37360  Biso   1.000  C
  C225     1.0000 0.14960  0.18620  0.37530  Biso   1.000  C
  C226     1.0000 0.10010  0.16190  0.39930  Biso   1.000  C
  C227     1.0000 0.99660  0.15980  0.39630  Biso   1.000  C
  C228     1.0000 0.94350  0.13650  0.42090  Biso   1.000  C
  C229     1.0000 0.13200  0.06920  0.52330  Biso   1.000  C
  C230     1.0000 0.09230  0.08400  0.49650  Biso   1.000  C
  C231     1.0000 0.98830  0.03940  0.54240  Biso   1.000  C
  C232     1.0000 0.93950  0.05410  0.51590  Biso   1.000  C
  C233     1.0000 0.99040  0.07690  0.49250  Biso   1.000  C
  C234     1.0000 0.94210  0.09460  0.46540  Biso   1.000  C
  C235     1.0000 0.06530  0.11130  0.63610  Biso   1.000  C
  C236     1.0000 0.04780  0.15470  0.64880  Biso   1.000  C
  C237     1.0000 0.10340  0.15040  0.59070  Biso   1.000  C
  C238     1.0000 0.08640  0.19460  0.60330  Biso   1.000  C
  C239     1.0000 0.06010  0.20010  0.63460  Biso   1.000  C
  C240     1.0000 0.04790  0.24420  0.65000  Biso   1.000  C
  C241     1.0000 0.08880  0.41730  0.59040  Biso   1.000  C
  C242     1.0000 0.07400  0.37350  0.60460  Biso   1.000  C
  C243     1.0000 0.06260  0.45860  0.63550  Biso   1.000  C
  C244     1.0000 0.04570  0.41660  0.65030  Biso   1.000  C
  C245     1.0000 0.05690  0.37110  0.63550  Biso   1.000  C
  C246     1.0000 0.04450  0.32560  0.65110  Biso   1.000  C
  C247     1.0000 0.89700  0.31090  0.76940  Biso   1.000  C
  C248     1.0000 0.93480  0.31860  0.73950  Biso   1.000  C
  C249     1.0000 0.93280  0.23200  0.76750  Biso   1.000  C
  C250     1.0000 0.96920  0.23620  0.73790  Biso   1.000  C
  C251     1.0000 0.96950  0.27820  0.72450  Biso   1.000  C
  C252     1.0000 0.00640  0.28390  0.69260  Biso   1.000  C
  C253     1.0000 0.44660  0.44860  0.95050  Biso   1.000  C
  C254     1.0000 0.35000  0.43150  0.95590  Biso   1.000  C
  C255     1.0000 0.43220  0.42290  0.90100  Biso   1.000  C
  C256     1.0000 0.34080  0.40690  0.90500  Biso   1.000  C
  C257     1.0000 0.29830  0.41110  0.93300  Biso   1.000  C
  C258     1.0000 0.19450  0.39820  0.93780  Biso   1.000  C
  C259     1.0000 0.99420  0.29670  0.85190  Biso   1.000  C
  C260     1.0000 0.04530  0.31970  0.87360  Biso   1.000  C
  C261     1.0000 0.85040  0.31380  0.87530  Biso   1.000  C
  C262     1.0000 0.89990  0.33810  0.89930  Biso   1.000  C
  C263     1.0000 0.00340  0.34020  0.89630  Biso   1.000  C
  C264     1.0000 0.05650  0.36350  0.92090  Biso   1.000  C
  C265     1.0000 0.86800  0.43080  0.02330  Biso   1.000  C
  C266     1.0000 0.90770  0.41600  0.99650  Biso   1.000  C
  C267     1.0000 0.01170  0.46060  0.04240  Biso   1.000  C
  C268     1.0000 0.06050  0.44590  0.01590  Biso   1.000  C
  C269     1.0000 0.00960  0.42310  0.99250  Biso   1.000  C
  C270     1.0000 0.05790  0.40540  0.96540  Biso   1.000  C
  C271     1.0000 0.93470  0.38870  0.13610  Biso   1.000  C
  C272     1.0000 0.95220  0.34530  0.14880  Biso   1.000  C
  C273     1.0000 0.89660  0.34960  0.09070  Biso   1.000  C
  C274     1.0000 0.91360  0.30540  0.10330  Biso   1.000  C
  C275     1.0000 0.93990  0.29990  0.13460  Biso   1.000  C
  C276     1.0000 0.95210  0.25580  0.15000  Biso   1.000  C
  C277     1.0000 0.91120  0.08270  0.09040  Biso   1.000  C
  C278     1.0000 0.92600  0.12650  0.10460  Biso   1.000  C
  C279     1.0000 0.93740  0.04140  0.13550  Biso   1.000  C
  C280     1.0000 0.95430  0.08340  0.15030  Biso   1.000  C
  C281     1.0000 0.94310  0.12890  0.13550  Biso   1.000  C
  C282     1.0000 0.95550  0.17440  0.15110  Biso   1.000  C
  C283     1.0000 0.10300  0.18910  0.26940  Biso   1.000  C
  C284     1.0000 0.06520  0.18140  0.23950  Biso   1.000  C
  C285     1.0000 0.06720  0.26800  0.26750  Biso   1.000  C
  C286     1.0000 0.03080  0.26380  0.23790  Biso   1.000  C
  C287     1.0000 0.03050  0.22180  0.22450  Biso   1.000  C
  C288     1.0000 0.99360  0.21610  0.19260  Biso   1.000  C
  I25      1.0000 0.55377  0.02151  0.88219  Biso   1.000  I
  I26      1.0000 0.82331  0.94718  0.91534  Biso   1.000  I
  I27      1.0000 0.69447  0.49314  0.96585  Biso   1.000  I
  I28      1.0000 0.70458  0.42643  0.87413  Biso   1.000  I
  I29      1.0000 0.69434  0.66960  0.16866  Biso   1.000  I
  I30      1.0000 0.84339  0.80687  0.18713  Biso   1.000  I
  I31      1.0000 0.44623  0.47849  0.38219  Biso   1.000  I
  I32      1.0000 0.17669  0.55282  0.41534  Biso   1.000  I
  I33      1.0000 0.30553  0.00686  0.46585  Biso   1.000  I
  I34      1.0000 0.29542  0.07357  0.37413  Biso   1.000  I
  I35      1.0000 0.30566  0.83040  0.66866  Biso   1.000  I
  I36      1.0000 0.15661  0.69313  0.68713  Biso   1.000  I
  I37      1.0000 0.05377  0.97849  0.61781  Biso   1.000  I
  I38      1.0000 0.32331  0.05282  0.58466  Biso   1.000  I
  I39      1.0000 0.19447  0.50686  0.53415  Biso   1.000  I
  I40      1.0000 0.20458  0.57357  0.62587  Biso   1.000  I
  I41      1.0000 0.19434  0.33040  0.33134  Biso   1.000  I
  I42      1.0000 0.34339  0.19313  0.31287  Biso   1.000  I
  I43      1.0000 0.94623  0.52151  0.11781  Biso   1.000  I
  I44      1.0000 0.67669  0.44718  0.08466  Biso   1.000  I
  I45      1.0000 0.80553  0.99314  0.03415  Biso   1.000  I
  I46      1.0000 0.79542  0.92643  0.12587  Biso   1.000  I
  I47      1.0000 0.80566  0.16960  0.83134  Biso   1.000  I
  I48      1.0000 0.65661  0.30687  0.81287  Biso   1.000  I
  N49      1.0000 0.01500  0.94440  0.07660  Biso   1.000  N
  N50      1.0000 0.60640  0.79370  0.14810  Biso   1.000  N
  N51      1.0000 0.58260  0.95000  0.95450  Biso   1.000  N
  N52      1.0000 0.34680  0.87130  0.08340  Biso   1.000  N
  N53      1.0000 0.49420  0.88080  0.05510  Biso   1.000  N
  N54      1.0000 0.34890  0.91700  0.03750  Biso   1.000  N
  N55      1.0000 0.59360  0.89180  0.89300  Biso   1.000  N
  N56      1.0000 0.58410  0.53960  0.89460  Biso   1.000  N
  N57      1.0000 0.39320  0.73100  0.71790  Biso   1.000  N
  N58      1.0000 0.55810  0.71450  0.86540  Biso   1.000  N
  N59      1.0000 0.51600  0.67410  0.81960  Biso   1.000  N
  N60      1.0000 0.51990  0.75850  0.82100  Biso   1.000  N
  N61      1.0000 0.98500  0.55560  0.57660  Biso   1.000  N
  N62      1.0000 0.39360  0.70630  0.64810  Biso   1.000  N
  N63      1.0000 0.41740  0.55000  0.45450  Biso   1.000  N
  N64      1.0000 0.65320  0.62870  0.58340  Biso   1.000  N
  N65      1.0000 0.50580  0.61920  0.55510  Biso   1.000  N
  N66      1.0000 0.65110  0.58300  0.53750  Biso   1.000  N
  N67      1.0000 0.40640  0.60820  0.39300  Biso   1.000  N
  N68      1.0000 0.41590  0.96040  0.39460  Biso   1.000  N
  N69      1.0000 0.60680  0.76900  0.21790  Biso   1.000  N
  N70      1.0000 0.44190  0.78550  0.36540  Biso   1.000  N
  N71      1.0000 0.48400  0.82590  0.31960  Biso   1.000  N
  N72      1.0000 0.48010  0.74150  0.32100  Biso   1.000  N
  N73      1.0000 0.51500  0.05560  0.42340  Biso   1.000  N
  N74      1.0000 0.10640  0.20630  0.35190  Biso   1.000  N
  N75      1.0000 0.08260  0.05000  0.54550  Biso   1.000  N
  N76      1.0000 0.84680  0.12870  0.41660  Biso   1.000  N
  N77      1.0000 0.99420  0.11920  0.44490  Biso   1.000  N
  N78      1.0000 0.84890  0.08300  0.46250  Biso   1.000  N
  N79      1.0000 0.09360  0.10820  0.60700  Biso   1.000  N
  N80      1.0000 0.08410  0.46040  0.60540  Biso   1.000  N
  N81      1.0000 0.89320  0.26900  0.78210  Biso   1.000  N
  N82      1.0000 0.05810  0.28550  0.63460  Biso   1.000  N
  N83      1.0000 0.01600  0.32590  0.68040  Biso   1.000  N
  N84      1.0000 0.01990  0.24150  0.67900  Biso   1.000  N
  N85      1.0000 0.48500  0.44440  0.92340  Biso   1.000  N
  N86      1.0000 0.89360  0.29370  0.85190  Biso   1.000  N
  N87      1.0000 0.91740  0.45000  0.04550  Biso   1.000  N
  N88      1.0000 0.15320  0.37130  0.91660  Biso   1.000  N
  N89      1.0000 0.00580  0.38080  0.94490  Biso   1.000  N
  N90      1.0000 0.15110  0.41700  0.96250  Biso   1.000  N
  N91      1.0000 0.90640  0.39180  0.10700  Biso   1.000  N
  N92      1.0000 0.91590  0.03960  0.10540  Biso   1.000  N
  N93      1.0000 0.10680  0.23100  0.28210  Biso   1.000  N
  N94      1.0000 0.94190  0.21450  0.13460  Biso   1.000  N
  N95      1.0000 0.98400  0.17410  0.18040  Biso   1.000  N
  N96      1.0000 0.98010  0.25850  0.17900  Biso   1.000  N
