data_FURQUF_ion_b
_audit_creation_date              2014-07-02
_audit_creation_method            'Materials Studio'
_symmetry_space_group_name_H-M    'P1'
_symmetry_Int_Tables_number       1
_symmetry_cell_setting            triclinic
loop_
_symmetry_equiv_pos_as_xyz
  x,y,z
_cell_length_a                    34.0910
_cell_length_b                    34.0910
_cell_length_c                    8.5082
_cell_angle_alpha                 90.0000
_cell_angle_beta                  90.0000
_cell_angle_gamma                 120.0000
loop_
_atom_site_label
_atom_site_type_symbol
_atom_site_fract_x
_atom_site_fract_y
_atom_site_fract_z
_atom_site_U_iso_or_equiv
_atom_site_adp_type
_atom_site_occupancy
Ag1    Ag    0.85146   0.17100   0.49633   0.00000  Uiso   1.00
O2     O     0.33046   0.32525   0.56093   0.00000  Uiso   1.00
N3     N     0.79312   0.13135   0.34240   0.00000  Uiso   1.00
N4     N     0.72173   0.91738   0.38880   0.00000  Uiso   1.00
C5     C     0.78052   0.15334   0.24260   0.00000  Uiso   1.00
H6     H     0.79760   0.18550   0.24090   0.00000  Uiso   1.00
C7     C     0.41082   0.46520   0.47543   0.00000  Uiso   1.00
H8     H     0.06983   0.81547   0.73937   0.00000  Uiso   1.00
C9     C     0.38567   0.41860   0.47723   0.00000  Uiso   1.00
H10    H     0.35997   0.40293   0.41123   0.00000  Uiso   1.00
C11    C     0.39876   0.39511   0.57783   0.00000  Uiso   1.00
C12    C     0.76904   0.08589   0.34120   0.00000  Uiso   1.00
H13    H     0.77780   0.06960   0.40980   0.00000  Uiso   1.00
C14    C     0.37105   0.34446   0.58273   0.00000  Uiso   1.00
C15    C     0.72779   0.98491   0.27910   0.00000  Uiso   1.00
C16    C     0.43687   0.33092   0.55343   0.00000  Uiso   1.00
H17    H     0.45347   0.35833   0.49593   0.00000  Uiso   1.00
C18    C     0.78805   0.96973   0.24620   0.00000  Uiso   1.00
H19    H     0.81710   0.97750   0.20660   0.00000  Uiso   1.00
C20    C     0.76322   0.93046   0.33040   0.00000  Uiso   1.00
H21    H     0.77590   0.91160   0.34830   0.00000  Uiso   1.00
C22    C     0.70466   0.94441   0.36210   0.00000  Uiso   1.00
H23    H     0.67530   0.93560   0.40140   0.00000  Uiso   1.00
C24    C     0.84700   0.25731   0.53320   0.00000  Uiso   1.00
O25    O     0.18071   0.90447   0.32077   0.00000  Uiso   1.00
O26    O     0.85192   0.24936   0.39610   0.00000  Uiso   1.00
C27    C     0.17108   0.96321   0.22637   0.00000  Uiso   1.00
F28    F     0.84843   0.32424   0.43700   0.00000  Uiso   1.00
F29    F     0.12683   0.94701   0.25497   0.00000  Uiso   1.00
F30    F     0.19376   0.98889   0.34957   0.00000  Uiso   1.00
Ag31   Ag    0.51813   0.50433   0.82966   0.00000  Uiso   1.00
O32    O     0.99712   0.65859   0.89427   0.00000  Uiso   1.00
N33    N     0.45979   0.46468   0.67573   0.00000  Uiso   1.00
N34    N     0.38840   0.25071   0.72213   0.00000  Uiso   1.00
C35    C     0.44719   0.48667   0.57593   0.00000  Uiso   1.00
H36    H     0.46427   0.51883   0.57423   0.00000  Uiso   1.00
C37    C     0.07748   0.79854   0.80877   0.00000  Uiso   1.00
H38    H     0.73650   0.14880   0.07270   0.00000  Uiso   1.00
C39    C     0.05233   0.75194   0.81057   0.00000  Uiso   1.00
H40    H     0.02663   0.73627   0.74457   0.00000  Uiso   1.00
C41    C     0.06542   0.72845   0.91117   0.00000  Uiso   1.00
C42    C     0.43571   0.41922   0.67453   0.00000  Uiso   1.00
H43    H     0.44447   0.40293   0.74313   0.00000  Uiso   1.00
C44    C     0.03771   0.67780   0.91607   0.00000  Uiso   1.00
C45    C     0.39446   0.31824   0.61243   0.00000  Uiso   1.00
C46    C     0.10353   0.66426   0.88677   0.00000  Uiso   1.00
H47    H     0.12013   0.69167   0.82927   0.00000  Uiso   1.00
C48    C     0.45472   0.30306   0.57953   0.00000  Uiso   1.00
H49    H     0.48377   0.31083   0.53993   0.00000  Uiso   1.00
C50    C     0.42989   0.26379   0.66373   0.00000  Uiso   1.00
H51    H     0.44257   0.24493   0.68163   0.00000  Uiso   1.00
C52    C     0.37133   0.27774   0.69543   0.00000  Uiso   1.00
H53    H     0.34197   0.26893   0.73473   0.00000  Uiso   1.00
C54    C     0.51367   0.59064   0.86653   0.00000  Uiso   1.00
O55    O     0.84738   0.23780   0.65410   0.00000  Uiso   1.00
O56    O     0.51859   0.58269   0.72943   0.00000  Uiso   1.00
C57    C     0.83775   0.29654   0.55970   0.00000  Uiso   1.00
F58    F     0.51510   0.65757   0.77033   0.00000  Uiso   1.00
F59    F     0.79350   0.28034   0.58830   0.00000  Uiso   1.00
F60    F     0.86043   0.32222   0.68290   0.00000  Uiso   1.00
Ag61   Ag    0.18479   0.83767   0.16300   0.00000  Uiso   1.00
O62    O     0.66379   0.99192   0.22760   0.00000  Uiso   1.00
N63    N     0.12645   0.79802   0.00907   0.00000  Uiso   1.00
N64    N     0.05506   0.58405   0.05547   0.00000  Uiso   1.00
C65    C     0.11385   0.82001   0.90927   0.00000  Uiso   1.00
H66    H     0.13093   0.85217   0.90757   0.00000  Uiso   1.00
C67    C     0.74415   0.13187   0.14210   0.00000  Uiso   1.00
H68    H     0.40317   0.48213   0.40603   0.00000  Uiso   1.00
C69    C     0.71900   0.08527   0.14390   0.00000  Uiso   1.00
H70    H     0.69330   0.06960   0.07790   0.00000  Uiso   1.00
C71    C     0.73209   0.06178   0.24450   0.00000  Uiso   1.00
C72    C     0.10237   0.75256   0.00787   0.00000  Uiso   1.00
H73    H     0.11113   0.73627   0.07647   0.00000  Uiso   1.00
C74    C     0.70438   0.01113   0.24940   0.00000  Uiso   1.00
C75    C     0.06112   0.65158   0.94577   0.00000  Uiso   1.00
C76    C     0.77020   0.99759   0.22010   0.00000  Uiso   1.00
H77    H     0.78680   0.02500   0.16260   0.00000  Uiso   1.00
C78    C     0.12138   0.63640   0.91287   0.00000  Uiso   1.00
H79    H     0.15043   0.64417   0.87327   0.00000  Uiso   1.00
C80    C     0.09655   0.59713   0.99707   0.00000  Uiso   1.00
H81    H     0.10923   0.57827   0.01497   0.00000  Uiso   1.00
C82    C     0.03799   0.61108   0.02877   0.00000  Uiso   1.00
H83    H     0.00863   0.60227   0.06807   0.00000  Uiso   1.00
C84    C     0.18033   0.92398   0.19987   0.00000  Uiso   1.00
O85    O     0.51405   0.57113   0.98743   0.00000  Uiso   1.00
O86    O     0.18525   0.91603   0.06277   0.00000  Uiso   1.00
C87    C     0.50442   0.62987   0.89303   0.00000  Uiso   1.00
F88    F     0.18176   0.99091   0.10367   0.00000  Uiso   1.00
F89    F     0.46017   0.61367   0.92163   0.00000  Uiso   1.00
F90    F     0.52710   0.65555   1.01623   0.00000  Uiso   1.00
Ag91   Ag    0.82900   0.68046   0.49633   0.00000  Uiso   1.00
O92    O     0.67475   0.00520   0.56093   0.00000  Uiso   1.00
N93    N     0.86865   0.66177   0.34240   0.00000  Uiso   1.00
N94    N     0.08262   0.80435   0.38880   0.00000  Uiso   1.00
C95    C     0.84666   0.62718   0.24260   0.00000  Uiso   1.00
H96    H     0.81450   0.61210   0.24090   0.00000  Uiso   1.00
C97    C     0.53480   0.94561   0.47543   0.00000  Uiso   1.00
H98    H     0.18453   0.25437   0.73937   0.00000  Uiso   1.00
C99    C     0.58140   0.96706   0.47723   0.00000  Uiso   1.00
H100   H     0.59707   0.95703   0.41123   0.00000  Uiso   1.00
C101   C     0.60489   0.00364   0.57783   0.00000  Uiso   1.00
C102   C     0.91411   0.68315   0.34120   0.00000  Uiso   1.00
H103   H     0.93040   0.70820   0.40980   0.00000  Uiso   1.00
C104   C     0.65554   0.02658   0.58273   0.00000  Uiso   1.00
C105   C     0.01509   0.74288   0.27910   0.00000  Uiso   1.00
C106   C     0.66908   0.10594   0.55343   0.00000  Uiso   1.00
H107   H     0.64167   0.09513   0.49593   0.00000  Uiso   1.00
C108   C     0.03027   0.81832   0.24620   0.00000  Uiso   1.00
H109   H     0.02250   0.83960   0.20660   0.00000  Uiso   1.00
C110   C     0.06954   0.83276   0.33040   0.00000  Uiso   1.00
H111   H     0.08840   0.86430   0.34830   0.00000  Uiso   1.00
C112   C     0.05559   0.76025   0.36210   0.00000  Uiso   1.00
H113   H     0.06440   0.73970   0.40140   0.00000  Uiso   1.00
C114   C     0.74269   0.58969   0.53320   0.00000  Uiso   1.00
O115   O     0.09553   0.27625   0.32077   0.00000  Uiso   1.00
O116   O     0.75064   0.60256   0.39610   0.00000  Uiso   1.00
C117   C     0.03679   0.20788   0.22637   0.00000  Uiso   1.00
F118   F     0.67576   0.52419   0.43700   0.00000  Uiso   1.00
F119   F     0.05299   0.17983   0.25497   0.00000  Uiso   1.00
F120   F     0.01111   0.20488   0.34957   0.00000  Uiso   1.00
Ag121  Ag    0.49567   0.01379   0.82966   0.00000  Uiso   1.00
O122   O     0.34141   0.33854   0.89427   0.00000  Uiso   1.00
N123   N     0.53532   0.99510   0.67573   0.00000  Uiso   1.00
N124   N     0.74929   0.13768   0.72213   0.00000  Uiso   1.00
C125   C     0.51333   0.96051   0.57593   0.00000  Uiso   1.00
H126   H     0.48117   0.94543   0.57423   0.00000  Uiso   1.00
C127   C     0.20146   0.27895   0.80877   0.00000  Uiso   1.00
H128   H     0.85120   0.58770   0.07270   0.00000  Uiso   1.00
C129   C     0.24806   0.30040   0.81057   0.00000  Uiso   1.00
H130   H     0.26373   0.29037   0.74457   0.00000  Uiso   1.00
C131   C     0.27155   0.33698   0.91117   0.00000  Uiso   1.00
C132   C     0.58078   0.01648   0.67453   0.00000  Uiso   1.00
H133   H     0.59707   0.04153   0.74313   0.00000  Uiso   1.00
C134   C     0.32220   0.35992   0.91607   0.00000  Uiso   1.00
C135   C     0.68176   0.07621   0.61243   0.00000  Uiso   1.00
C136   C     0.33574   0.43928   0.88677   0.00000  Uiso   1.00
H137   H     0.30833   0.42847   0.82927   0.00000  Uiso   1.00
C138   C     0.69694   0.15165   0.57953   0.00000  Uiso   1.00
H139   H     0.68917   0.17293   0.53993   0.00000  Uiso   1.00
C140   C     0.73621   0.16609   0.66373   0.00000  Uiso   1.00
H141   H     0.75507   0.19763   0.68163   0.00000  Uiso   1.00
C142   C     0.72226   0.09358   0.69543   0.00000  Uiso   1.00
H143   H     0.73107   0.07303   0.73473   0.00000  Uiso   1.00
C144   C     0.40936   0.92302   0.86653   0.00000  Uiso   1.00
O145   O     0.76220   0.60958   0.65410   0.00000  Uiso   1.00
O146   O     0.41731   0.93589   0.72943   0.00000  Uiso   1.00
C147   C     0.70346   0.54121   0.55970   0.00000  Uiso   1.00
F148   F     0.34243   0.85752   0.77033   0.00000  Uiso   1.00
F149   F     0.71966   0.51316   0.58830   0.00000  Uiso   1.00
F150   F     0.67778   0.53821   0.68290   0.00000  Uiso   1.00
Ag151  Ag    0.16233   0.34713   0.16300   0.00000  Uiso   1.00
O152   O     0.00808   0.67187   0.22760   0.00000  Uiso   1.00
N153   N     0.20198   0.32844   0.00907   0.00000  Uiso   1.00
N154   N     0.41595   0.47102   0.05547   0.00000  Uiso   1.00
C155   C     0.17999   0.29385   0.90927   0.00000  Uiso   1.00
H156   H     0.14783   0.27877   0.90757   0.00000  Uiso   1.00
C157   C     0.86813   0.61228   0.14210   0.00000  Uiso   1.00
H158   H     0.51787   0.92103   0.40603   0.00000  Uiso   1.00
C159   C     0.91473   0.63373   0.14390   0.00000  Uiso   1.00
H160   H     0.93040   0.62370   0.07790   0.00000  Uiso   1.00
C161   C     0.93822   0.67031   0.24450   0.00000  Uiso   1.00
C162   C     0.24744   0.34982   0.00787   0.00000  Uiso   1.00
H163   H     0.26373   0.37487   0.07647   0.00000  Uiso   1.00
C164   C     0.98887   0.69325   0.24940   0.00000  Uiso   1.00
C165   C     0.34842   0.40955   0.94577   0.00000  Uiso   1.00
C166   C     0.00241   0.77261   0.22010   0.00000  Uiso   1.00
H167   H     0.97500   0.76180   0.16260   0.00000  Uiso   1.00
C168   C     0.36360   0.48499   0.91287   0.00000  Uiso   1.00
H169   H     0.35583   0.50627   0.87327   0.00000  Uiso   1.00
C170   C     0.40287   0.49943   0.99707   0.00000  Uiso   1.00
H171   H     0.42173   0.53097   0.01497   0.00000  Uiso   1.00
C172   C     0.38892   0.42692   0.02877   0.00000  Uiso   1.00
H173   H     0.39773   0.40637   0.06807   0.00000  Uiso   1.00
C174   C     0.07602   0.25636   0.19987   0.00000  Uiso   1.00
O175   O     0.42887   0.94291   0.98743   0.00000  Uiso   1.00
O176   O     0.08397   0.26923   0.06277   0.00000  Uiso   1.00
C177   C     0.37013   0.87454   0.89303   0.00000  Uiso   1.00
F178   F     0.00909   0.19086   0.10367   0.00000  Uiso   1.00
F179   F     0.38633   0.84649   0.92163   0.00000  Uiso   1.00
F180   F     0.34445   0.87154   1.01623   0.00000  Uiso   1.00
Ag181  Ag    0.31954   0.14854   0.49633   0.00000  Uiso   1.00
O182   O     0.99480   0.66954   0.56093   0.00000  Uiso   1.00
N183   N     0.33823   0.20688   0.34240   0.00000  Uiso   1.00
N184   N     0.19565   0.27827   0.38880   0.00000  Uiso   1.00
C185   C     0.37282   0.21948   0.24260   0.00000  Uiso   1.00
H186   H     0.38790   0.20240   0.24090   0.00000  Uiso   1.00
C187   C     0.05439   0.58918   0.47543   0.00000  Uiso   1.00
H188   H     0.74563   0.93017   0.73937   0.00000  Uiso   1.00
C189   C     0.03294   0.61433   0.47723   0.00000  Uiso   1.00
H190   H     0.04297   0.64003   0.41123   0.00000  Uiso   1.00
C191   C     0.99636   0.60124   0.57783   0.00000  Uiso   1.00
C192   C     0.31685   0.23096   0.34120   0.00000  Uiso   1.00
H193   H     0.29180   0.22220   0.40980   0.00000  Uiso   1.00
C194   C     0.97342   0.62895   0.58273   0.00000  Uiso   1.00
C195   C     0.25712   0.27221   0.27910   0.00000  Uiso   1.00
C196   C     0.89406   0.56313   0.55343   0.00000  Uiso   1.00
H197   H     0.90487   0.54653   0.49593   0.00000  Uiso   1.00
C198   C     0.18168   0.21195   0.24620   0.00000  Uiso   1.00
H199   H     0.16040   0.18290   0.20660   0.00000  Uiso   1.00
C200   C     0.16724   0.23678   0.33040   0.00000  Uiso   1.00
H201   H     0.13570   0.22410   0.34830   0.00000  Uiso   1.00
C202   C     0.23975   0.29534   0.36210   0.00000  Uiso   1.00
H203   H     0.26030   0.32470   0.40140   0.00000  Uiso   1.00
C204   C     0.41031   0.15300   0.53320   0.00000  Uiso   1.00
O205   O     0.72375   0.81929   0.32077   0.00000  Uiso   1.00
O206   O     0.39744   0.14808   0.39610   0.00000  Uiso   1.00
C207   C     0.79212   0.82892   0.22637   0.00000  Uiso   1.00
F208   F     0.47581   0.15157   0.43700   0.00000  Uiso   1.00
F209   F     0.82017   0.87317   0.25497   0.00000  Uiso   1.00
F210   F     0.79512   0.80624   0.34957   0.00000  Uiso   1.00
Ag211  Ag    0.98621   0.48187   0.82966   0.00000  Uiso   1.00
O212   O     0.66146   0.00288   0.89427   0.00000  Uiso   1.00
N213   N     0.00490   0.54021   0.67573   0.00000  Uiso   1.00
N214   N     0.86232   0.61160   0.72213   0.00000  Uiso   1.00
C215   C     0.03949   0.55281   0.57593   0.00000  Uiso   1.00
H216   H     0.05457   0.53573   0.57423   0.00000  Uiso   1.00
C217   C     0.72105   0.92252   0.80877   0.00000  Uiso   1.00
H218   H     0.41230   0.26350   0.07270   0.00000  Uiso   1.00
C219   C     0.69960   0.94767   0.81057   0.00000  Uiso   1.00
H220   H     0.70963   0.97337   0.74457   0.00000  Uiso   1.00
C221   C     0.66302   0.93458   0.91117   0.00000  Uiso   1.00
C222   C     0.98352   0.56429   0.67453   0.00000  Uiso   1.00
H223   H     0.95847   0.55553   0.74313   0.00000  Uiso   1.00
C224   C     0.64008   0.96229   0.91607   0.00000  Uiso   1.00
C225   C     0.92379   0.60554   0.61243   0.00000  Uiso   1.00
C226   C     0.56072   0.89647   0.88677   0.00000  Uiso   1.00
H227   H     0.57153   0.87987   0.82927   0.00000  Uiso   1.00
C228   C     0.84835   0.54528   0.57953   0.00000  Uiso   1.00
H229   H     0.82707   0.51623   0.53993   0.00000  Uiso   1.00
C230   C     0.83391   0.57011   0.66373   0.00000  Uiso   1.00
H231   H     0.80237   0.55743   0.68163   0.00000  Uiso   1.00
C232   C     0.90642   0.62867   0.69543   0.00000  Uiso   1.00
H233   H     0.92697   0.65803   0.73473   0.00000  Uiso   1.00
C234   C     0.07698   0.48633   0.86653   0.00000  Uiso   1.00
O235   O     0.39042   0.15262   0.65410   0.00000  Uiso   1.00
O236   O     0.06411   0.48141   0.72943   0.00000  Uiso   1.00
C237   C     0.45879   0.16225   0.55970   0.00000  Uiso   1.00
F238   F     0.14248   0.48490   0.77033   0.00000  Uiso   1.00
F239   F     0.48684   0.20650   0.58830   0.00000  Uiso   1.00
F240   F     0.46179   0.13957   0.68290   0.00000  Uiso   1.00
Ag241  Ag    0.65287   0.81521   0.16300   0.00000  Uiso   1.00
O242   O     0.32813   0.33621   0.22760   0.00000  Uiso   1.00
N243   N     0.67156   0.87355   0.00907   0.00000  Uiso   1.00
N244   N     0.52898   0.94494   0.05547   0.00000  Uiso   1.00
C245   C     0.70615   0.88615   0.90927   0.00000  Uiso   1.00
H246   H     0.72123   0.86907   0.90757   0.00000  Uiso   1.00
C247   C     0.38772   0.25585   0.14210   0.00000  Uiso   1.00
H248   H     0.07897   0.59683   0.40603   0.00000  Uiso   1.00
C249   C     0.36627   0.28100   0.14390   0.00000  Uiso   1.00
H250   H     0.37630   0.30670   0.07790   0.00000  Uiso   1.00
C251   C     0.32969   0.26791   0.24450   0.00000  Uiso   1.00
C252   C     0.65018   0.89763   0.00787   0.00000  Uiso   1.00
H253   H     0.62513   0.88887   0.07647   0.00000  Uiso   1.00
C254   C     0.30675   0.29562   0.24940   0.00000  Uiso   1.00
C255   C     0.59045   0.93888   0.94577   0.00000  Uiso   1.00
C256   C     0.22739   0.22980   0.22010   0.00000  Uiso   1.00
H257   H     0.23820   0.21320   0.16260   0.00000  Uiso   1.00
C258   C     0.51501   0.87862   0.91287   0.00000  Uiso   1.00
H259   H     0.49373   0.84957   0.87327   0.00000  Uiso   1.00
C260   C     0.50057   0.90345   0.99707   0.00000  Uiso   1.00
H261   H     0.46903   0.89077   0.01497   0.00000  Uiso   1.00
C262   C     0.57308   0.96201   0.02877   0.00000  Uiso   1.00
H263   H     0.59363   0.99137   0.06807   0.00000  Uiso   1.00
C264   C     0.74364   0.81967   0.19987   0.00000  Uiso   1.00
O265   O     0.05709   0.48595   0.98743   0.00000  Uiso   1.00
O266   O     0.73077   0.81475   0.06277   0.00000  Uiso   1.00
C267   C     0.12546   0.49558   0.89303   0.00000  Uiso   1.00
F268   F     0.80914   0.81824   0.10367   0.00000  Uiso   1.00
F269   F     0.15351   0.53983   0.92163   0.00000  Uiso   1.00
F270   F     0.12846   0.47290   1.01623   0.00000  Uiso   1.00
Ag271  Ag    0.14854   0.82900   0.50367   0.00000  Uiso   1.00
O272   O     0.66954   0.67475   0.43907   0.00000  Uiso   1.00
N273   N     0.20688   0.86865   0.65760   0.00000  Uiso   1.00
N274   N     0.27827   0.08262   0.61120   0.00000  Uiso   1.00
C275   C     0.21948   0.84666   0.75740   0.00000  Uiso   1.00
H276   H     0.20240   0.81450   0.75910   0.00000  Uiso   1.00
C277   C     0.58918   0.53480   0.52457   0.00000  Uiso   1.00
H278   H     0.93017   0.18453   0.26063   0.00000  Uiso   1.00
C279   C     0.61433   0.58140   0.52277   0.00000  Uiso   1.00
H280   H     0.64003   0.59707   0.58877   0.00000  Uiso   1.00
C281   C     0.60124   0.60489   0.42217   0.00000  Uiso   1.00
C282   C     0.23096   0.91411   0.65880   0.00000  Uiso   1.00
H283   H     0.22220   0.93040   0.59020   0.00000  Uiso   1.00
C284   C     0.62895   0.65554   0.41727   0.00000  Uiso   1.00
C285   C     0.27221   0.01509   0.72090   0.00000  Uiso   1.00
C286   C     0.56313   0.66908   0.44657   0.00000  Uiso   1.00
H287   H     0.54653   0.64167   0.50407   0.00000  Uiso   1.00
C288   C     0.21195   0.03027   0.75380   0.00000  Uiso   1.00
H289   H     0.18290   0.02250   0.79340   0.00000  Uiso   1.00
C290   C     0.23678   0.06954   0.66960   0.00000  Uiso   1.00
H291   H     0.22410   0.08840   0.65170   0.00000  Uiso   1.00
C292   C     0.29534   0.05559   0.63790   0.00000  Uiso   1.00
H293   H     0.32470   0.06440   0.59860   0.00000  Uiso   1.00
C294   C     0.15300   0.74269   0.46680   0.00000  Uiso   1.00
O295   O     0.81929   0.09553   0.67923   0.00000  Uiso   1.00
O296   O     0.14808   0.75064   0.60390   0.00000  Uiso   1.00
C297   C     0.82892   0.03679   0.77363   0.00000  Uiso   1.00
F298   F     0.15157   0.67576   0.56300   0.00000  Uiso   1.00
F299   F     0.87317   0.05299   0.74503   0.00000  Uiso   1.00
F300   F     0.80624   0.01111   0.65043   0.00000  Uiso   1.00
Ag301  Ag    0.81521   0.16233   0.83700   0.00000  Uiso   1.00
O302   O     0.33621   0.00808   0.77240   0.00000  Uiso   1.00
N303   N     0.87355   0.20198   0.99093   0.00000  Uiso   1.00
N304   N     0.94494   0.41595   0.94453   0.00000  Uiso   1.00
C305   C     0.88615   0.17999   0.09073   0.00000  Uiso   1.00
H306   H     0.86907   0.14783   0.09243   0.00000  Uiso   1.00
C307   C     0.25585   0.86813   0.85790   0.00000  Uiso   1.00
H308   H     0.59683   0.51787   0.59397   0.00000  Uiso   1.00
C309   C     0.28100   0.91473   0.85610   0.00000  Uiso   1.00
H310   H     0.30670   0.93040   0.92210   0.00000  Uiso   1.00
C311   C     0.26791   0.93822   0.75550   0.00000  Uiso   1.00
C312   C     0.89763   0.24744   0.99213   0.00000  Uiso   1.00
H313   H     0.88887   0.26373   0.92353   0.00000  Uiso   1.00
C314   C     0.29562   0.98887   0.75060   0.00000  Uiso   1.00
C315   C     0.93888   0.34842   0.05423   0.00000  Uiso   1.00
C316   C     0.22980   0.00241   0.77990   0.00000  Uiso   1.00
H317   H     0.21320   0.97500   0.83740   0.00000  Uiso   1.00
C318   C     0.87862   0.36360   0.08713   0.00000  Uiso   1.00
H319   H     0.84957   0.35583   0.12673   0.00000  Uiso   1.00
C320   C     0.90345   0.40287   0.00293   0.00000  Uiso   1.00
H321   H     0.89077   0.42173   0.98503   0.00000  Uiso   1.00
C322   C     0.96201   0.38892   0.97123   0.00000  Uiso   1.00
H323   H     0.99137   0.39773   0.93193   0.00000  Uiso   1.00
C324   C     0.81967   0.07602   0.80013   0.00000  Uiso   1.00
O325   O     0.48595   0.42887   0.01257   0.00000  Uiso   1.00
O326   O     0.81475   0.08397   0.93723   0.00000  Uiso   1.00
C327   C     0.49558   0.37013   0.10697   0.00000  Uiso   1.00
F328   F     0.81824   0.00909   0.89633   0.00000  Uiso   1.00
F329   F     0.53983   0.38633   0.07837   0.00000  Uiso   1.00
F330   F     0.47290   0.34445  -0.01623   0.00000  Uiso   1.00
Ag331  Ag    0.48187   0.49567   0.17034   0.00000  Uiso   1.00
O332   O     0.00288   0.34141   0.10573   0.00000  Uiso   1.00
N333   N     0.54021   0.53532   0.32427   0.00000  Uiso   1.00
N334   N     0.61160   0.74929   0.27787   0.00000  Uiso   1.00
C335   C     0.55281   0.51333   0.42407   0.00000  Uiso   1.00
H336   H     0.53573   0.48117   0.42577   0.00000  Uiso   1.00
C337   C     0.92252   0.20146   0.19123   0.00000  Uiso   1.00
H338   H     0.26350   0.85120   0.92730   0.00000  Uiso   1.00
C339   C     0.94767   0.24806   0.18943   0.00000  Uiso   1.00
H340   H     0.97337   0.26373   0.25543   0.00000  Uiso   1.00
C341   C     0.93458   0.27155   0.08883   0.00000  Uiso   1.00
C342   C     0.56429   0.58078   0.32547   0.00000  Uiso   1.00
H343   H     0.55553   0.59707   0.25687   0.00000  Uiso   1.00
C344   C     0.96229   0.32220   0.08393   0.00000  Uiso   1.00
C345   C     0.60554   0.68176   0.38757   0.00000  Uiso   1.00
C346   C     0.89647   0.33574   0.11323   0.00000  Uiso   1.00
H347   H     0.87987   0.30833   0.17073   0.00000  Uiso   1.00
C348   C     0.54528   0.69694   0.42047   0.00000  Uiso   1.00
H349   H     0.51623   0.68917   0.46007   0.00000  Uiso   1.00
C350   C     0.57011   0.73621   0.33627   0.00000  Uiso   1.00
H351   H     0.55743   0.75507   0.31837   0.00000  Uiso   1.00
C352   C     0.62867   0.72226   0.30457   0.00000  Uiso   1.00
H353   H     0.65803   0.73107   0.26527   0.00000  Uiso   1.00
C354   C     0.48633   0.40936   0.13347   0.00000  Uiso   1.00
O355   O     0.15262   0.76220   0.34590   0.00000  Uiso   1.00
O356   O     0.48141   0.41731   0.27057   0.00000  Uiso   1.00
C357   C     0.16225   0.70346   0.44030   0.00000  Uiso   1.00
F358   F     0.48490   0.34243   0.22967   0.00000  Uiso   1.00
F359   F     0.20650   0.71966   0.41170   0.00000  Uiso   1.00
F360   F     0.13957   0.67778   0.31710   0.00000  Uiso   1.00
Ag361  Ag    0.17100   0.31954   0.50367   0.00000  Uiso   1.00
O362   O     0.32525   0.99480   0.43907   0.00000  Uiso   1.00
N363   N     0.13135   0.33823   0.65760   0.00000  Uiso   1.00
N364   N     0.91738   0.19565   0.61120   0.00000  Uiso   1.00
C365   C     0.15334   0.37282   0.75740   0.00000  Uiso   1.00
H366   H     0.18550   0.38790   0.75910   0.00000  Uiso   1.00
C367   C     0.46520   0.05439   0.52457   0.00000  Uiso   1.00
H368   H     0.81547   0.74563   0.26063   0.00000  Uiso   1.00
C369   C     0.41860   0.03294   0.52277   0.00000  Uiso   1.00
H370   H     0.40293   0.04297   0.58877   0.00000  Uiso   1.00
C371   C     0.39511   0.99636   0.42217   0.00000  Uiso   1.00
C372   C     0.08589   0.31685   0.65880   0.00000  Uiso   1.00
H373   H     0.06960   0.29180   0.59020   0.00000  Uiso   1.00
C374   C     0.34446   0.97342   0.41727   0.00000  Uiso   1.00
C375   C     0.98491   0.25712   0.72090   0.00000  Uiso   1.00
C376   C     0.33092   0.89406   0.44657   0.00000  Uiso   1.00
H377   H     0.35833   0.90487   0.50407   0.00000  Uiso   1.00
C378   C     0.96973   0.18168   0.75380   0.00000  Uiso   1.00
H379   H     0.97750   0.16040   0.79340   0.00000  Uiso   1.00
C380   C     0.93046   0.16724   0.66960   0.00000  Uiso   1.00
H381   H     0.91160   0.13570   0.65170   0.00000  Uiso   1.00
C382   C     0.94441   0.23975   0.63790   0.00000  Uiso   1.00
H383   H     0.93560   0.26030   0.59860   0.00000  Uiso   1.00
C384   C     0.25731   0.41031   0.46680   0.00000  Uiso   1.00
O385   O     0.90447   0.72375   0.67923   0.00000  Uiso   1.00
O386   O     0.24936   0.39744   0.60390   0.00000  Uiso   1.00
C387   C     0.96321   0.79212   0.77363   0.00000  Uiso   1.00
F388   F     0.32424   0.47581   0.56300   0.00000  Uiso   1.00
F389   F     0.94701   0.82017   0.74503   0.00000  Uiso   1.00
F390   F     0.98889   0.79512   0.65043   0.00000  Uiso   1.00
Ag391  Ag    0.83767   0.65287   0.83700   0.00000  Uiso   1.00
O392   O     0.99192   0.32813   0.77240   0.00000  Uiso   1.00
N393   N     0.79802   0.67156   0.99093   0.00000  Uiso   1.00
N394   N     0.58405   0.52898   0.94453   0.00000  Uiso   1.00
C395   C     0.82001   0.70615   0.09073   0.00000  Uiso   1.00
H396   H     0.85217   0.72123   0.09243   0.00000  Uiso   1.00
C397   C     0.13187   0.38772   0.85790   0.00000  Uiso   1.00
H398   H     0.48213   0.07897   0.59397   0.00000  Uiso   1.00
C399   C     0.08527   0.36627   0.85610   0.00000  Uiso   1.00
H400   H     0.06960   0.37630   0.92210   0.00000  Uiso   1.00
C401   C     0.06178   0.32969   0.75550   0.00000  Uiso   1.00
C402   C     0.75256   0.65018   0.99213   0.00000  Uiso   1.00
H403   H     0.73627   0.62513   0.92353   0.00000  Uiso   1.00
C404   C     0.01113   0.30675   0.75060   0.00000  Uiso   1.00
C405   C     0.65158   0.59045   0.05423   0.00000  Uiso   1.00
C406   C     0.99759   0.22739   0.77990   0.00000  Uiso   1.00
H407   H     0.02500   0.23820   0.83740   0.00000  Uiso   1.00
C408   C     0.63640   0.51501   0.08713   0.00000  Uiso   1.00
H409   H     0.64417   0.49373   0.12673   0.00000  Uiso   1.00
C410   C     0.59713   0.50057   0.00293   0.00000  Uiso   1.00
H411   H     0.57827   0.46903   0.98503   0.00000  Uiso   1.00
C412   C     0.61108   0.57308   0.97123   0.00000  Uiso   1.00
H413   H     0.60227   0.59363   0.93193   0.00000  Uiso   1.00
C414   C     0.92398   0.74364   0.80013   0.00000  Uiso   1.00
O415   O     0.57113   0.05709   0.01257   0.00000  Uiso   1.00
O416   O     0.91603   0.73077   0.93723   0.00000  Uiso   1.00
C417   C     0.62987   0.12546   0.10697   0.00000  Uiso   1.00
F418   F     0.99091   0.80914   0.89633   0.00000  Uiso   1.00
F419   F     0.61367   0.15351   0.07837   0.00000  Uiso   1.00
F420   F     0.65555   0.12846  -0.01623   0.00000  Uiso   1.00
Ag421  Ag    0.50433   0.98621   0.17034   0.00000  Uiso   1.00
O422   O     0.65859   0.66146   0.10573   0.00000  Uiso   1.00
N423   N     0.46468   0.00490   0.32427   0.00000  Uiso   1.00
N424   N     0.25071   0.86232   0.27787   0.00000  Uiso   1.00
C425   C     0.48667   0.03949   0.42407   0.00000  Uiso   1.00
H426   H     0.51883   0.05457   0.42577   0.00000  Uiso   1.00
C427   C     0.79854   0.72105   0.19123   0.00000  Uiso   1.00
H428   H     0.14880   0.41230   0.92730   0.00000  Uiso   1.00
C429   C     0.75194   0.69960   0.18943   0.00000  Uiso   1.00
H430   H     0.73627   0.70963   0.25543   0.00000  Uiso   1.00
C431   C     0.72845   0.66302   0.08883   0.00000  Uiso   1.00
C432   C     0.41922   0.98352   0.32547   0.00000  Uiso   1.00
H433   H     0.40293   0.95847   0.25687   0.00000  Uiso   1.00
C434   C     0.67780   0.64008   0.08393   0.00000  Uiso   1.00
C435   C     0.31824   0.92379   0.38757   0.00000  Uiso   1.00
C436   C     0.66426   0.56072   0.11323   0.00000  Uiso   1.00
H437   H     0.69167   0.57153   0.17073   0.00000  Uiso   1.00
C438   C     0.30306   0.84835   0.42047   0.00000  Uiso   1.00
H439   H     0.31083   0.82707   0.46007   0.00000  Uiso   1.00
C440   C     0.26379   0.83391   0.33627   0.00000  Uiso   1.00
H441   H     0.24493   0.80237   0.31837   0.00000  Uiso   1.00
C442   C     0.27774   0.90642   0.30457   0.00000  Uiso   1.00
H443   H     0.26893   0.92697   0.26527   0.00000  Uiso   1.00
C444   C     0.59064   0.07698   0.13347   0.00000  Uiso   1.00
O445   O     0.23780   0.39042   0.34590   0.00000  Uiso   1.00
O446   O     0.58269   0.06411   0.27057   0.00000  Uiso   1.00
C447   C     0.29654   0.45879   0.44030   0.00000  Uiso   1.00
F448   F     0.65757   0.14248   0.22967   0.00000  Uiso   1.00
F449   F     0.28034   0.48684   0.41170   0.00000  Uiso   1.00
F450   F     0.32222   0.46179   0.31710   0.00000  Uiso   1.00
Ag451  Ag    0.68046   0.85146   0.50367   0.00000  Uiso   1.00
O452   O     0.00520   0.33046   0.43907   0.00000  Uiso   1.00
N453   N     0.66177   0.79312   0.65760   0.00000  Uiso   1.00
N454   N     0.80435   0.72173   0.61120   0.00000  Uiso   1.00
C455   C     0.62718   0.78052   0.75740   0.00000  Uiso   1.00
H456   H     0.61210   0.79760   0.75910   0.00000  Uiso   1.00
C457   C     0.94561   0.41082   0.52457   0.00000  Uiso   1.00
H458   H     0.25437   0.06983   0.26063   0.00000  Uiso   1.00
C459   C     0.96706   0.38567   0.52277   0.00000  Uiso   1.00
H460   H     0.95703   0.35997   0.58877   0.00000  Uiso   1.00
C461   C     0.00364   0.39876   0.42217   0.00000  Uiso   1.00
C462   C     0.68315   0.76904   0.65880   0.00000  Uiso   1.00
H463   H     0.70820   0.77780   0.59020   0.00000  Uiso   1.00
C464   C     0.02658   0.37105   0.41727   0.00000  Uiso   1.00
C465   C     0.74288   0.72779   0.72090   0.00000  Uiso   1.00
C466   C     0.10594   0.43687   0.44657   0.00000  Uiso   1.00
H467   H     0.09513   0.45347   0.50407   0.00000  Uiso   1.00
C468   C     0.81832   0.78805   0.75380   0.00000  Uiso   1.00
H469   H     0.83960   0.81710   0.79340   0.00000  Uiso   1.00
C470   C     0.83276   0.76322   0.66960   0.00000  Uiso   1.00
H471   H     0.86430   0.77590   0.65170   0.00000  Uiso   1.00
C472   C     0.76025   0.70466   0.63790   0.00000  Uiso   1.00
H473   H     0.73970   0.67530   0.59860   0.00000  Uiso   1.00
C474   C     0.58969   0.84700   0.46680   0.00000  Uiso   1.00
O475   O     0.27625   0.18071   0.67923   0.00000  Uiso   1.00
O476   O     0.60256   0.85192   0.60390   0.00000  Uiso   1.00
C477   C     0.20788   0.17108   0.77363   0.00000  Uiso   1.00
F478   F     0.52419   0.84843   0.56300   0.00000  Uiso   1.00
F479   F     0.17983   0.12683   0.74503   0.00000  Uiso   1.00
F480   F     0.20488   0.19376   0.65043   0.00000  Uiso   1.00
Ag481  Ag    0.34713   0.18479   0.83700   0.00000  Uiso   1.00
O482   O     0.67187   0.66379   0.77240   0.00000  Uiso   1.00
N483   N     0.32844   0.12645   0.99093   0.00000  Uiso   1.00
N484   N     0.47102   0.05506   0.94453   0.00000  Uiso   1.00
C485   C     0.29385   0.11385   0.09073   0.00000  Uiso   1.00
H486   H     0.27877   0.13093   0.09243   0.00000  Uiso   1.00
C487   C     0.61228   0.74415   0.85790   0.00000  Uiso   1.00
H488   H     0.92103   0.40317   0.59397   0.00000  Uiso   1.00
C489   C     0.63373   0.71900   0.85610   0.00000  Uiso   1.00
H490   H     0.62370   0.69330   0.92210   0.00000  Uiso   1.00
C491   C     0.67031   0.73209   0.75550   0.00000  Uiso   1.00
C492   C     0.34982   0.10237   0.99213   0.00000  Uiso   1.00
H493   H     0.37487   0.11113   0.92353   0.00000  Uiso   1.00
C494   C     0.69325   0.70438   0.75060   0.00000  Uiso   1.00
C495   C     0.40955   0.06112   0.05423   0.00000  Uiso   1.00
C496   C     0.77261   0.77020   0.77990   0.00000  Uiso   1.00
H497   H     0.76180   0.78680   0.83740   0.00000  Uiso   1.00
C498   C     0.48499   0.12138   0.08713   0.00000  Uiso   1.00
H499   H     0.50627   0.15043   0.12673   0.00000  Uiso   1.00
C500   C     0.49943   0.09655   0.00293   0.00000  Uiso   1.00
H501   H     0.53097   0.10923   0.98503   0.00000  Uiso   1.00
C502   C     0.42692   0.03799   0.97123   0.00000  Uiso   1.00
H503   H     0.40637   0.00863   0.93193   0.00000  Uiso   1.00
C504   C     0.25636   0.18033   0.80013   0.00000  Uiso   1.00
O505   O     0.94291   0.51405   0.01257   0.00000  Uiso   1.00
O506   O     0.26923   0.18525   0.93723   0.00000  Uiso   1.00
C507   C     0.87454   0.50442   0.10697   0.00000  Uiso   1.00
F508   F     0.19086   0.18176   0.89633   0.00000  Uiso   1.00
F509   F     0.84649   0.46017   0.07837   0.00000  Uiso   1.00
F510   F     0.87154   0.52710  -0.01623   0.00000  Uiso   1.00
Ag511  Ag    0.01379   0.51813   0.17034   0.00000  Uiso   1.00
O512   O     0.33854   0.99712   0.10573   0.00000  Uiso   1.00
N513   N     0.99510   0.45979   0.32427   0.00000  Uiso   1.00
N514   N     0.13768   0.38840   0.27787   0.00000  Uiso   1.00
C515   C     0.96051   0.44719   0.42407   0.00000  Uiso   1.00
H516   H     0.94543   0.46427   0.42577   0.00000  Uiso   1.00
C517   C     0.27895   0.07748   0.19123   0.00000  Uiso   1.00
H518   H     0.58770   0.73650   0.92730   0.00000  Uiso   1.00
C519   C     0.30040   0.05233   0.18943   0.00000  Uiso   1.00
H520   H     0.29037   0.02663   0.25543   0.00000  Uiso   1.00
C521   C     0.33698   0.06542   0.08883   0.00000  Uiso   1.00
C522   C     0.01648   0.43571   0.32547   0.00000  Uiso   1.00
H523   H     0.04153   0.44447   0.25687   0.00000  Uiso   1.00
C524   C     0.35992   0.03771   0.08393   0.00000  Uiso   1.00
C525   C     0.07621   0.39446   0.38757   0.00000  Uiso   1.00
C526   C     0.43928   0.10353   0.11323   0.00000  Uiso   1.00
H527   H     0.42847   0.12013   0.17073   0.00000  Uiso   1.00
C528   C     0.15165   0.45472   0.42047   0.00000  Uiso   1.00
H529   H     0.17293   0.48377   0.46007   0.00000  Uiso   1.00
C530   C     0.16609   0.42989   0.33627   0.00000  Uiso   1.00
H531   H     0.19763   0.44257   0.31837   0.00000  Uiso   1.00
C532   C     0.09358   0.37133   0.30457   0.00000  Uiso   1.00
H533   H     0.07303   0.34197   0.26527   0.00000  Uiso   1.00
C534   C     0.92302   0.51367   0.13347   0.00000  Uiso   1.00
O535   O     0.60958   0.84738   0.34590   0.00000  Uiso   1.00
O536   O     0.93589   0.51859   0.27057   0.00000  Uiso   1.00
C537   C     0.54121   0.83775   0.44030   0.00000  Uiso   1.00
F538   F     0.85752   0.51510   0.22967   0.00000  Uiso   1.00
F539   F     0.51316   0.79350   0.41170   0.00000  Uiso   1.00
F540   F     0.53821   0.86043   0.31710   0.00000  Uiso   1.00
loop_
_geom_bond_atom_site_label_1
_geom_bond_atom_site_label_2
_geom_bond_distance
_geom_bond_site_symmetry_2
_ccdc_geom_bond_type
Ag1    N3      2.193   .     S
Ag1    Ag301   3.107   .     S
Ag1    N364    2.196   .     S
O2     C14     1.213   .     D
N3     C5      1.338   .     A
N3     C12     1.343   .     A
N4     C20     1.347   .     A
N4     C22     1.333   .     A
N4     Ag451   2.196   .     S
C5     H6      0.950   .     S
C5     C67     1.377   .     A
C7     C35     1.377   .     A
C7     H68     0.949   .     S
C7     C9      1.377   .     A
H8     C37     0.949   .     S
C9     H10     0.949   .     S
C9     C11     1.389   .     A
C11    C42     1.380   .     A
C11    C14     1.498   .     S
C12    C71     1.380   .     A
C12    H13     0.951   .     S
C14    C45     1.488   .     S
C15    C76     1.380   .     A
C15    C22     1.392   .     A
C15    C74     1.488   1_565 S
C16    C45     1.380   .     A
C16    H17     0.951   .     S
C16    C48     1.378   .     A
C18    C76     1.378   .     A
C18    H19     0.950   .     S
C18    C20     1.374   .     A
C20    H21     0.949   .     S
C22    H23     0.950   .     S
C24    O55     1.229   .     A
C24    O26     1.228   .     A
C24    C57     1.536   .     S
O25    C84     1.229   .     A
C27    C84     1.536   .     S
C27    F88     1.331   .     S
C27    F29     1.344   .     S
C27    F30     1.336   .     S
F28    C57     1.331   .     S
Ag31   N33     2.193   .     S
Ag31   N394    2.196   .     S
Ag31   Ag331   3.107   1_556 S
O32    C44     1.213   1_655 S
N33    C35     1.338   .     A
N33    C42     1.343   .     A
N34    C50     1.347   .     A
N34    C52     1.333   .     A
N34    Ag481   2.196   .     S
C35    H36     0.950   .     S
C37    C65     1.377   .     A
C37    C39     1.377   .     A
H38    C67     0.949   .     S
C39    H40     0.949   .     S
C39    C41     1.389   .     A
C41    C44     1.498   .     S
C41    C72     1.380   1_556 D
C42    H43     0.951   .     S
C44    C75     1.488   .     S
C44    O32     1.213   1_455 S
C45    C52     1.392   .     A
C46    C75     1.380   .     A
C46    H47     0.951   .     S
C46    C78     1.378   .     A
C48    H49     0.950   .     S
C48    C50     1.374   .     A
C50    H51     0.949   .     S
C52    H53     0.950   .     S
C54    O85     1.229   .     A
C54    O56     1.228   .     A
C54    C87     1.536   .     S
C57    F59     1.344   .     S
C57    F60     1.336   .     S
F58    C87     1.331   .     S
Ag61   N63     2.193   .     S
Ag61   Ag271   3.107   .     S
Ag61   N424    2.196   .     S
O62    C74     1.213   1_565 A
N63    C72     1.343   .     A
N63    C65     1.338   1_554 A
N64    C82     1.333   .     A
N64    Ag511   2.196   .     S
N64    C80     1.347   1_554 A
C65    H66     0.950   .     S
C65    N63     1.338   1_556 A
C67    C69     1.377   .     A
C69    H70     0.949   .     S
C69    C71     1.389   .     A
C71    C74     1.498   .     S
C72    H73     0.951   .     S
C72    C41     1.380   1_554 D
C74    C15     1.488   1_545 S
C74    O62     1.213   1_545 A
C75    C82     1.392   1_556 S
C76    H77     0.951   1_565 A
H77    C76     0.951   1_545 A
C78    H79     0.950   .     S
C78    C80     1.374   .     A
C80    N64     1.347   1_556 A
C80    H81     0.949   1_556 A
H81    C80     0.949   1_554 A
C82    H83     0.950   .     S
C82    C75     1.392   1_554 S
C84    O86     1.228   .     A
C87    F89     1.344   .     S
C87    F90     1.336   .     S
Ag91   N93     2.193   .     S
Ag91   Ag391   3.107   .     S
Ag91   N454    2.196   .     S
O92    C104    1.213   .     D
N93    C95     1.338   .     A
N93    C102    1.343   .     A
N94    C110    1.347   .     A
N94    C112    1.333   .     A
N94    Ag271   2.196   .     S
C95    H96     0.950   .     S
C95    C157    1.377   .     A
C97    C125    1.377   .     A
C97    H158    0.949   .     S
C97    C99     1.377   .     A
H98    C127    0.949   .     S
C99    H100    0.949   .     S
C99    C101    1.389   1_565 A
C101   C132    1.380   .     A
C101   C104    1.498   .     S
C101   C99     1.389   1_545 A
C102   C161    1.380   .     A
C102   H103    0.951   .     S
C104   C135    1.488   .     S
C105   C166    1.380   .     A
C105   C112    1.392   .     A
C105   C164    1.488   1_455 S
C106   C135    1.380   .     A
C106   H107    0.951   .     S
C106   C138    1.378   .     A
C108   C166    1.378   .     A
C108   H109    0.950   .     S
C108   C110    1.374   .     A
C110   H111    0.949   .     S
C112   H113    0.950   .     S
C114   O145    1.229   .     A
C114   O116    1.228   .     A
C114   C147    1.536   .     S
O115   C174    1.229   .     A
C117   C174    1.536   .     S
C117   F178    1.331   .     S
C117   F119    1.344   .     S
C117   F120    1.336   .     S
F118   C147    1.331   .     S
Ag121  N484    2.196   .     S
Ag121  N123    2.193   1_545 A
Ag121  Ag421   3.107   1_546 A
O122   C134    1.213   .     D
N123   C125    1.338   .     A
N123   Ag121   2.193   1_565 A
N123   C132    1.343   1_565 S
N124   C140    1.347   .     A
N124   C142    1.333   .     A
N124   Ag301   2.196   .     S
C125   H126    0.950   .     S
C127   C155    1.377   .     A
C127   C129    1.377   .     A
H128   C157    0.949   .     S
C129   H130    0.949   .     S
C129   C131    1.389   .     A
C131   C134    1.498   .     S
C131   C162    1.380   1_556 A
C132   H133    0.951   .     S
C132   N123    1.343   1_545 S
C134   C165    1.488   .     S
C135   C142    1.392   .     A
C136   C165    1.380   .     A
C136   H137    0.951   .     S
C136   C168    1.378   .     A
C138   H139    0.950   .     S
C138   C140    1.374   .     A
C140   H141    0.949   .     S
C142   H143    0.950   .     S
C144   O175    1.229   .     A
C144   O146    1.228   .     A
C144   C177    1.536   .     S
C147   F149    1.344   .     S
C147   F150    1.336   .     S
F148   C177    1.331   .     S
Ag151  N153    2.193   .     S
Ag151  Ag361   3.107   .     S
Ag151  N514    2.196   .     S
O152   C164    1.213   1_455 S
N153   C162    1.343   .     A
N153   C155    1.338   1_554 A
N154   C172    1.333   .     A
N154   Ag331   2.196   .     S
N154   C170    1.347   1_554 S
C155   H156    0.950   .     S
C155   N153    1.338   1_556 A
C157   C159    1.377   .     A
C159   H160    0.949   .     S
C159   C161    1.389   .     A
C161   C164    1.498   .     S
C162   H163    0.951   .     S
C162   C131    1.380   1_554 A
C164   C105    1.488   1_655 S
C164   O152    1.213   1_655 S
C165   C172    1.392   1_556 A
C166   H167    0.951   1_455 S
H167   C166    0.951   1_655 S
C168   H169    0.950   .     S
C168   C170    1.374   .     A
C170   N154    1.347   1_556 S
C170   H171    0.949   1_556 S
H171   C170    0.949   1_554 S
C172   H173    0.950   .     S
C172   C165    1.392   1_554 A
C174   O176    1.228   .     A
C177   F179    1.344   .     S
C177   F180    1.336   .     S
Ag181  N183    2.193   .     S
Ag181  Ag481   3.107   .     S
Ag181  N274    2.196   .     S
O182   C194    1.213   .     D
N183   C185    1.338   .     A
N183   C192    1.343   .     A
N184   C200    1.347   .     A
N184   C202    1.333   .     A
N184   Ag361   2.196   .     S
C185   H186    0.950   .     S
C185   C247    1.377   .     A
C187   C215    1.377   .     A
C187   H248    0.949   .     S
C187   C189    1.377   .     A
H188   C217    0.949   .     S
C189   H190    0.949   .     S
C189   C191    1.389   1_455 S
C191   C222    1.380   .     A
C191   C194    1.498   .     S
C191   C189    1.389   1_655 S
C192   C251    1.380   .     A
C192   H193    0.951   .     S
C194   C225    1.488   .     S
C195   C254    1.488   .     S
C195   C256    1.380   .     A
C195   C202    1.392   .     A
C196   C225    1.380   .     A
C196   H197    0.951   .     S
C196   C228    1.378   .     A
C198   C256    1.378   .     A
C198   H199    0.950   .     S
C198   C200    1.374   .     A
C200   H201    0.949   .     S
C202   H203    0.950   .     S
C204   O235    1.229   .     A
C204   O206    1.228   .     A
C204   C237    1.536   .     S
O205   C264    1.229   .     A
C207   C264    1.536   .     S
C207   F268    1.331   .     S
C207   F209    1.344   .     S
C207   F210    1.336   .     S
F208   C237    1.331   .     S
Ag211  N304    2.196   .     S
Ag211  N213    2.193   1_655 A
Ag211  Ag511   3.107   1_656 A
O212   C224    1.213   1_545 A
N213   C215    1.338   .     A
N213   Ag211   2.193   1_455 A
N213   C222    1.343   1_455 S
N214   C230    1.347   .     A
N214   C232    1.333   .     A
N214   Ag391   2.196   .     S
C215   H216    0.950   .     S
C217   C245    1.377   .     A
C217   C219    1.377   .     A
H218   C247    0.949   .     S
C219   H220    0.949   .     S
C219   C221    1.389   .     A
C221   C224    1.498   .     S
C221   C252    1.380   1_556 A
C222   H223    0.951   .     S
C222   N213    1.343   1_655 S
C224   C255    1.488   .     S
C224   O212    1.213   1_565 A
C225   C232    1.392   .     A
C226   C255    1.380   .     A
C226   H227    0.951   .     S
C226   C258    1.378   .     A
C228   H229    0.950   .     S
C228   C230    1.374   .     A
C230   H231    0.949   .     S
C232   H233    0.950   .     S
C234   O265    1.229   .     A
C234   O236    1.228   .     A
C234   C267    1.536   .     S
C237   F239    1.344   .     S
C237   F240    1.336   .     S
F238   C267    1.331   .     S
Ag241  N243    2.193   .     S
Ag241  Ag451   3.107   .     S
Ag241  N334    2.196   .     S
O242   C254    1.213   .     D
N243   C252    1.343   .     A
N243   C245    1.338   1_554 S
N244   C262    1.333   .     A
N244   Ag421   2.196   .     S
N244   C260    1.347   1_554 A
C245   H246    0.950   .     S
C245   N243    1.338   1_556 S
C247   C249    1.377   .     A
C249   H250    0.949   .     S
C249   C251    1.389   .     A
C251   C254    1.498   .     S
C252   H253    0.951   .     S
C252   C221    1.380   1_554 A
C255   C262    1.392   1_556 S
C256   H257    0.951   .     S
C258   H259    0.950   .     S
C258   C260    1.374   .     A
C260   N244    1.347   1_556 A
C260   H261    0.949   1_556 A
H261   C260    0.949   1_554 A
C262   H263    0.950   .     S
C262   C255    1.392   1_554 S
C264   O266    1.228   .     A
C267   F269    1.344   .     S
C267   F270    1.336   .     S
Ag271  N273    2.193   .     S
O272   C284    1.213   .     D
N273   C275    1.338   .     A
N273   C282    1.343   .     A
N274   C290    1.347   .     A
N274   C292    1.333   .     A
C275   H276    0.950   .     S
C275   C307    1.377   .     A
C277   C335    1.377   .     A
C277   H308    0.949   .     S
C277   C279    1.377   .     A
H278   C337    0.949   .     S
C279   H280    0.949   .     S
C279   C281    1.389   .     A
C281   C342    1.380   .     A
C281   C284    1.498   .     S
C282   C311    1.380   .     A
C282   H283    0.951   .     S
C284   C345    1.488   .     S
C285   C316    1.380   .     A
C285   C292    1.392   .     A
C285   C314    1.488   1_545 S
C286   C345    1.380   .     A
C286   H287    0.951   .     S
C286   C348    1.378   .     A
C288   C316    1.378   .     A
C288   H289    0.950   .     S
C288   C290    1.374   .     A
C290   H291    0.949   .     S
C292   H293    0.950   .     S
C294   O355    1.229   .     A
C294   O296    1.228   .     A
C294   C357    1.536   .     S
O295   C324    1.229   .     A
C297   C324    1.536   .     S
C297   F328    1.331   .     S
C297   F299    1.344   .     S
C297   F300    1.336   .     S
F298   C357    1.331   .     S
Ag301  N303    2.193   .     S
O302   C314    1.213   1_545 A
N303   C312    1.343   .     A
N303   C305    1.338   1_556 S
N304   C322    1.333   .     A
N304   C320    1.347   1_556 S
C305   H306    0.950   .     S
C305   C337    1.377   .     A
C305   N303    1.338   1_554 S
C307   H338    0.949   .     S
C307   C309    1.377   .     A
C309   H310    0.949   .     S
C309   C311    1.389   .     A
C311   C314    1.498   .     S
C312   H313    0.951   .     S
C312   C341    1.380   1_556 A
C314   C285    1.488   1_565 S
C314   O302    1.213   1_565 A
C315   C344    1.488   .     S
C315   C346    1.380   .     A
C315   C322    1.392   1_554 S
C316   H317    0.951   1_545 S
H317   C316    0.951   1_565 S
C318   C346    1.378   .     A
C318   H319    0.950   .     S
C318   C320    1.374   .     A
C320   N304    1.347   1_554 S
C320   H321    0.949   1_554 S
H321   C320    0.949   1_556 S
C322   H323    0.950   .     S
C322   C315    1.392   1_556 S
C324   O326    1.228   .     A
O325   C354    1.229   .     A
C327   C354    1.536   .     S
C327   F358    1.331   .     S
C327   F329    1.344   .     S
C327   F330    1.336   .     S
Ag331  N333    2.193   .     S
Ag331  Ag31    3.107   1_554 S
O332   C344    1.213   1_455 S
N333   C335    1.338   .     A
N333   C342    1.343   .     A
N334   C350    1.347   .     A
N334   C352    1.333   .     A
C335   H336    0.950   .     S
C337   C339    1.377   .     A
C339   H340    0.949   .     S
C339   C341    1.389   .     A
C341   C344    1.498   .     S
C341   C312    1.380   1_554 A
C342   H343    0.951   .     S
C344   O332    1.213   1_655 S
C345   C352    1.392   .     A
C346   H347    0.951   .     S
C348   H349    0.950   .     S
C348   C350    1.374   .     A
C350   H351    0.949   .     S
C352   H353    0.950   .     S
C354   O356    1.228   .     A
C357   F359    1.344   .     S
C357   F360    1.336   .     S
Ag361  N363    2.193   .     S
O362   C374    1.213   .     D
N363   C365    1.338   .     A
N363   C372    1.343   .     A
N364   C380    1.347   .     A
N364   C382    1.333   .     A
C365   H366    0.950   .     S
C365   C397    1.377   .     A
C367   C425    1.377   .     A
C367   H398    0.949   .     S
C367   C369    1.377   .     A
H368   C427    0.949   .     S
C369   H370    0.949   .     S
C369   C371    1.389   1_545 A
C371   C432    1.380   .     A
C371   C374    1.498   .     S
C371   C369    1.389   1_565 A
C372   C401    1.380   .     A
C372   H373    0.951   .     S
C374   C435    1.488   .     S
C375   C406    1.380   .     A
C375   C382    1.392   .     A
C375   C404    1.488   1_655 S
C376   C435    1.380   .     A
C376   H377    0.951   .     S
C376   C438    1.378   .     A
C378   C406    1.378   .     A
C378   H379    0.950   .     S
C378   C380    1.374   .     A
C380   H381    0.949   .     S
C382   H383    0.950   .     S
C384   O445    1.229   .     A
C384   O386    1.228   .     A
C384   C447    1.536   .     S
O385   C414    1.229   .     A
C387   C414    1.536   .     S
C387   F418    1.331   .     S
C387   F389    1.344   .     S
C387   F390    1.336   .     S
F388   C447    1.331   .     S
Ag391  N393    2.193   .     S
O392   C404    1.213   1_655 S
N393   C402    1.343   .     A
N393   C395    1.338   1_556 A
N394   C412    1.333   .     A
N394   C410    1.347   1_556 S
C395   H396    0.950   .     S
C395   C427    1.377   .     A
C395   N393    1.338   1_554 A
C397   H428    0.949   .     S
C397   C399    1.377   .     A
C399   H400    0.949   .     S
C399   C401    1.389   .     A
C401   C404    1.498   .     S
C402   H403    0.951   .     S
C402   C431    1.380   1_556 S
C404   C375    1.488   1_455 S
C404   O392    1.213   1_455 S
C405   C434    1.488   .     S
C405   C436    1.380   .     A
C405   C412    1.392   1_554 S
C406   H407    0.951   1_655 S
H407   C406    0.951   1_455 S
C408   C436    1.378   .     A
C408   H409    0.950   .     S
C408   C410    1.374   .     A
C410   N394    1.347   1_554 S
C410   H411    0.949   1_554 A
H411   C410    0.949   1_556 A
C412   H413    0.950   .     S
C412   C405    1.392   1_556 S
C414   O416    1.228   .     A
O415   C444    1.229   .     A
C417   C444    1.536   .     S
C417   F448    1.331   .     S
C417   F419    1.344   .     S
C417   F420    1.336   .     S
Ag421  Ag121   3.107   1_564 A
Ag421  N423    2.193   1_565 S
O422   C434    1.213   .     D
N423   C425    1.338   .     A
N423   Ag421   2.193   1_545 S
N423   C432    1.343   1_545 A
N424   C440    1.347   .     A
N424   C442    1.333   .     A
C425   H426    0.950   .     S
C427   C429    1.377   .     A
C429   H430    0.949   .     S
C429   C431    1.389   .     A
C431   C434    1.498   .     S
C431   C402    1.380   1_554 S
C432   H433    0.951   .     S
C432   N423    1.343   1_565 A
C435   C442    1.392   .     A
C436   H437    0.951   .     S
C438   H439    0.950   .     S
C438   C440    1.374   .     A
C440   H441    0.949   .     S
C442   H443    0.950   .     S
C444   O446    1.228   .     A
C447   F449    1.344   .     S
C447   F450    1.336   .     S
Ag451  N453    2.193   .     S
O452   C464    1.213   .     D
N453   C455    1.338   .     A
N453   C462    1.343   .     A
N454   C470    1.347   .     A
N454   C472    1.333   .     A
C455   H456    0.950   .     S
C455   C487    1.377   .     A
C457   C515    1.377   .     A
C457   H488    0.949   .     S
C457   C459    1.377   .     A
H458   C517    0.949   .     S
C459   H460    0.949   .     S
C459   C461    1.389   1_655 S
C461   C522    1.380   .     A
C461   C464    1.498   .     S
C461   C459    1.389   1_455 S
C462   C491    1.380   .     A
C462   H463    0.951   .     S
C464   C525    1.488   .     S
C465   C494    1.488   .     S
C465   C496    1.380   .     A
C465   C472    1.392   .     A
C466   C525    1.380   .     A
C466   H467    0.951   .     S
C466   C528    1.378   .     A
C468   C496    1.378   .     A
C468   H469    0.950   .     S
C468   C470    1.374   .     A
C470   H471    0.949   .     S
C472   H473    0.950   .     S
C474   O535    1.229   .     A
C474   O476    1.228   .     A
C474   C537    1.536   .     S
O475   C504    1.229   .     A
C477   C504    1.536   .     S
C477   F508    1.331   .     S
C477   F479    1.344   .     S
C477   F480    1.336   .     S
F478   C537    1.331   .     S
Ag481  N483    2.193   .     S
O482   C494    1.213   .     D
N483   C492    1.343   .     A
N483   C485    1.338   1_556 A
N484   C502    1.333   .     A
N484   C500    1.347   1_556 S
C485   H486    0.950   .     S
C485   C517    1.377   .     A
C485   N483    1.338   1_554 A
C487   H518    0.949   .     S
C487   C489    1.377   .     A
C489   H490    0.949   .     S
C489   C491    1.389   .     A
C491   C494    1.498   .     S
C492   H493    0.951   .     S
C492   C521    1.380   1_556 S
C495   C524    1.488   .     S
C495   C526    1.380   .     A
C495   C502    1.392   1_554 S
C496   H497    0.951   .     S
C498   C526    1.378   .     A
C498   H499    0.950   .     S
C498   C500    1.374   .     A
C500   N484    1.347   1_554 S
C500   H501    0.949   1_554 A
H501   C500    0.949   1_556 A
C502   H503    0.950   .     S
C502   C495    1.392   1_556 S
C504   O506    1.228   .     A
O505   C534    1.229   .     A
C507   C534    1.536   .     S
C507   F538    1.331   .     S
C507   F509    1.344   .     S
C507   F510    1.336   .     S
Ag511  Ag211   3.107   1_454 A
Ag511  N513    2.193   1_455 A
O512   C524    1.213   1_565 S
N513   C515    1.338   .     A
N513   Ag511   2.193   1_655 A
N513   C522    1.343   1_655 S
N514   C530    1.347   .     A
N514   C532    1.333   .     A
C515   H516    0.950   .     S
C517   C519    1.377   .     A
C519   H520    0.949   .     S
C519   C521    1.389   .     A
C521   C524    1.498   .     S
C521   C492    1.380   1_554 S
C522   H523    0.951   .     S
C522   N513    1.343   1_455 S
C524   O512    1.213   1_545 S
C525   C532    1.392   .     A
C526   H527    0.951   .     S
C528   H529    0.950   .     S
C528   C530    1.374   .     A
C530   H531    0.949   .     S
C532   H533    0.950   .     S
C534   O536    1.228   .     A
C537   F539    1.344   .     S
C537   F540    1.336   .     S
