data_image0
_cell_length_a       38.226
_cell_length_b       13.456
_cell_length_c       33.945
_cell_angle_alpha    90
_cell_angle_beta     110.132
_cell_angle_gamma    90

_symmetry_space_group_name_H-M    "P 1"
_symmetry_int_tables_number       1

loop_
  _symmetry_equiv_pos_as_xyz
  'x, y, z'

loop_
  _atom_site_label
  _atom_site_occupancy
  _atom_site_fract_x
  _atom_site_fract_y
  _atom_site_fract_z
  _atom_site_thermal_displace_type
  _atom_site_B_iso_or_equiv
  _atom_site_type_symbol
  Co1      1.0000 0.00961  0.31545  0.04214  Biso   1.000  Co
  Co2      1.0000 0.28975  0.38202  0.46733  Biso   1.000  Co
  O1       1.0000 0.26213  0.36890  0.40031  Biso   1.000  O
  O2       1.0000 0.21829  0.33570  0.98424  Biso   1.000  O
  O3       1.0000 0.11850  0.28590  0.04194  Biso   1.000  O
  H1       1.0000 0.09820  0.29880  0.04400  Biso   1.000  H
  O4       1.0000 0.22392  0.38050  0.32096  Biso   1.000  O
  H2       1.0000 0.24050  0.39340  0.34320  Biso   1.000  H
  O5       1.0000 0.02423  0.37610  0.09889  Biso   1.000  O
  O6       1.0000 0.04867  0.32150  0.01738  Biso   1.000  O
  N1       1.0000 0.95600  0.41940  0.96868  Biso   1.000  N
  H3       1.0000 0.97090  0.41320  0.95480  Biso   1.000  H
  O7       1.0000 0.01632  0.34530  0.94995  Biso   1.000  O
  O8       1.0000 0.06344  0.25830  0.10729  Biso   1.000  O
  O9       1.0000 0.23739  0.29820  0.44170  Biso   1.000  O
  C1       1.0000 0.20679  0.27420  0.36923  Biso   1.000  C
  N2       1.0000 0.96571  0.39830  0.00986  Biso   1.000  N
  O10      1.0000 0.12198  0.24730  0.17259  Biso   1.000  O
  H4       1.0000 0.10730  0.23280  0.14930  Biso   1.000  H
  C2       1.0000 0.93528  0.41900  0.01960  Biso   1.000  C
  C3       1.0000 0.18163  0.23210  0.02820  Biso   1.000  C
  H5       1.0000 0.19740  0.18890  0.01870  Biso   1.000  H
  H6       1.0000 0.17620  0.19790  0.05060  Biso   1.000  H
  C4       1.0000 0.22082  0.37390  0.02170  Biso   1.000  C
  C5       1.0000 0.23677  0.31730  0.40486  Biso   1.000  C
  C6       1.0000 0.16667  0.31650  0.25040  Biso   1.000  C
  H7       1.0000 0.17070  0.26400  0.23290  Biso   1.000  H
  H8       1.0000 0.18570  0.36650  0.25330  Biso   1.000  H
  N3       1.0000 0.98970  0.17680  0.04049  Biso   1.000  N
  C7       1.0000 0.14530  0.24750  0.99210  Biso   1.000  C
  C8       1.0000 0.04568  0.32400  0.97860  Biso   1.000  C
  C9       1.0000 0.07974  0.29630  0.96900  Biso   1.000  C
  C10      1.0000 0.11463  0.27670  0.00120  Biso   1.000  C
  C11      1.0000 0.05190  0.32940  0.12150  Biso   1.000  C
  C12      1.0000 0.93292  0.95270  0.99950  Biso   1.000  C
  H9       1.0000 0.94300  0.92770  0.97880  Biso   1.000  H
  H10      1.0000 0.93320  0.89830  0.01840  Biso   1.000  H
  C13      1.0000 0.95828  0.03370  0.02430  Biso   1.000  C
  C14      1.0000 0.20161  0.30860  0.32730  Biso   1.000  C
  C15      1.0000 0.14134  0.22720  0.94990  Biso   1.000  C
  C16      1.0000 0.20357  0.32680  0.04630  Biso   1.000  C
  C17      1.0000 0.22706  0.45700  0.09900  Biso   1.000  C
  N4       1.0000 0.99661  0.11840  0.07430  Biso   1.000  N
  H11      1.0000 0.01150  0.13450  0.09890  Biso   1.000  H
  C18      1.0000 0.15010  0.19460  0.29930  Biso   1.000  C
  C19      1.0000 0.96667  0.12370  0.00950  Biso   1.000  C
  C20      1.0000 0.20718  0.36790  0.08620  Biso   1.000  C
  C21      1.0000 0.24482  0.50180  0.07370  Biso   1.000  C
  H12      1.0000 0.25850  0.55960  0.08280  Biso   1.000  H
  C22      1.0000 0.07356  0.36700  0.16410  Biso   1.000  C
  C23      1.0000 0.12920  0.36300  0.22740  Biso   1.000  C
  C24      1.0000 0.17271  0.27330  0.29326  Biso   1.000  C
  C25      1.0000 0.10680  0.24920  0.91620  Biso   1.000  C
  C26      1.0000 0.92140  0.45040  0.95200  Biso   1.000  C
  C27      1.0000 0.19001  0.32420  0.11310  Biso   1.000  C
  H13      1.0000 0.17630  0.26600  0.10500  Biso   1.000  H
  C28      1.0000 0.17010  0.18260  0.93730  Biso   1.000  C
  H14      1.0000 0.19280  0.16600  0.95770  Biso   1.000  H
  C29      1.0000 0.10813  0.32640  0.18830  Biso   1.000  C
  C30      1.0000 0.89342  0.98320  0.97740  Biso   1.000  C
  C31      1.0000 0.24231  0.46190  0.03590  Biso   1.000  C
  C32      1.0000 0.90380  0.47680  0.90680  Biso   1.000  C
  H15      1.0000 0.92140  0.46670  0.89270  Biso   1.000  H
  H16      1.0000 0.89620  0.54520  0.90440  Biso   1.000  H
  H17      1.0000 0.88240  0.43540  0.89420  Biso   1.000  H
  C33      1.0000 0.10140  0.23030  0.87380  Biso   1.000  C
  H18      1.0000 0.07890  0.24450  0.85260  Biso   1.000  H
  C34      1.0000 0.07717  0.28520  0.92810  Biso   1.000  C
  H19      1.0000 0.05490  0.30220  0.90720  Biso   1.000  H
  C35      1.0000 0.15570  0.15880  0.33980  Biso   1.000  C
  C36      1.0000 0.13320  0.08420  0.34740  Biso   1.000  C
  H20      1.0000 0.13730  0.06160  0.37450  Biso   1.000  H
  C37      1.0000 0.90676  0.45280  0.98440  Biso   1.000  C
  C38      1.0000 0.95240  0.16070  0.96430  Biso   1.000  C
  H21      1.0000 0.96280  0.22500  0.96290  Biso   1.000  H
  H22      1.0000 0.92570  0.16540  0.95480  Biso   1.000  H
  H23      1.0000 0.95970  0.11510  0.94680  Biso   1.000  H
  C39      1.0000 0.23110  0.49840  0.13830  Biso   1.000  C
  H24      1.0000 0.24500  0.55610  0.14710  Biso   1.000  H
  C40      1.0000 0.97810  0.03330  0.06600  Biso   1.000  C
  C41      1.0000 0.13110  0.18960  0.86490  Biso   1.000  C
  H25      1.0000 0.12870  0.17860  0.83700  Biso   1.000  H
  C42      1.0000 0.12120  0.15200  0.26600  Biso   1.000  C
  H26      1.0000 0.11690  0.17350  0.23870  Biso   1.000  H
  C43      1.0000 0.19370  0.36790  0.15100  Biso   1.000  C
  H27      1.0000 0.18190  0.33920  0.16800  Biso   1.000  H
  C44      1.0000 0.18320  0.20170  0.37390  Biso   1.000  C
  H28      1.0000 0.18570  0.18060  0.40080  Biso   1.000  H
  C45      1.0000 0.16470  0.16440  0.89650  Biso   1.000  C
  H29      1.0000 0.18350  0.13470  0.88920  Biso   1.000  H
  C46      1.0000 0.09930  0.07960  0.27320  Biso   1.000  C
  H30      1.0000 0.08020  0.05270  0.25070  Biso   1.000  H
  C47      1.0000 0.93480  0.40700  0.06310  Biso   1.000  C
  H31      1.0000 0.95850  0.38240  0.08100  Biso   1.000  H
  H32      1.0000 0.91560  0.36070  0.06290  Biso   1.000  H
  H33      1.0000 0.92990  0.47000  0.07340  Biso   1.000  H
  C48      1.0000 0.07940  0.48110  0.22160  Biso   1.000  C
  C49      1.0000 0.05950  0.44260  0.18050  Biso   1.000  C
  H34      1.0000 0.03660  0.47010  0.16480  Biso   1.000  H
  C50      1.0000 0.21420  0.45280  0.16410  Biso   1.000  C
  H35      1.0000 0.21690  0.47990  0.19020  Biso   1.000  H
  C51      1.0000 0.11510  0.44340  0.24370  Biso   1.000  C
  C52      1.0000 0.06470  0.56050  0.23860  Biso   1.000  C
  H36      1.0000 0.04110  0.58500  0.22390  Biso   1.000  H
  C53      1.0000 0.98100  0.96040  0.10080  Biso   1.000  C
  H37      1.0000 0.99810  0.98550  0.12680  Biso   1.000  H
  H38      1.0000 0.98990  0.89770  0.09450  Biso   1.000  H
  H39      1.0000 0.95690  0.95150  0.10320  Biso   1.000  H
  C54      1.0000 0.10460  0.04460  0.31350  Biso   1.000  C
  H40      1.0000 0.08930  0.99530  0.31770  Biso   1.000  H
  C55      1.0000 0.13450  0.48760  0.28310  Biso   1.000  C
  H41      1.0000 0.15800  0.46450  0.29910  Biso   1.000  H
  C56      1.0000 0.11880  0.56370  0.29760  Biso   1.000  C
  H42      1.0000 0.13190  0.59130  0.32370  Biso   1.000  H
  C57      1.0000 0.08470  0.60040  0.27550  Biso   1.000  C
  H43      1.0000 0.07520  0.65370  0.28600  Biso   1.000  H
  C58      1.0000 0.86909  0.02500  0.99550  Biso   1.000  C
  C59      1.0000 0.87331  0.97270  0.93610  Biso   1.000  C
  N5       1.0000 0.83849  0.00750  0.92972  Biso   1.000  N
  H44      1.0000 0.82090  0.00880  0.90570  Biso   1.000  H
  N6       1.0000 0.83500  0.04010  0.96607  Biso   1.000  N
  C60      1.0000 0.87526  0.05470  0.03860  Biso   1.000  C
  H45      1.0000 0.85260  0.08110  0.04060  Biso   1.000  H
  H46      1.0000 0.89430  0.10460  0.04700  Biso   1.000  H
  H47      1.0000 0.88290  0.99800  0.05670  Biso   1.000  H
  C61      1.0000 0.88300  0.93000  0.90040  Biso   1.000  C
  H48      1.0000 0.86190  0.93550  0.87490  Biso   1.000  H
  H49      1.0000 0.88970  0.86130  0.90590  Biso   1.000  H
  H50      1.0000 0.90370  0.96590  0.89740  Biso   1.000  H
  C62      1.0000 0.26144  0.51360  0.00900  Biso   1.000  C
  O11      1.0000 0.28146  0.58910  0.02358  Biso   1.000  O
  O12      1.0000 0.25726  0.47930  0.97330  Biso   1.000  O
  C63      1.0000 0.86751  0.48100  0.98160  Biso   1.000  C
  H51      1.0000 0.86890  0.53450  0.00120  Biso   1.000  H
  H52      1.0000 0.85410  0.50570  0.95360  Biso   1.000  H
  C64      1.0000 0.84646  0.39740  0.99070  Biso   1.000  C
  C65      1.0000 0.83318  0.38960  0.02350  Biso   1.000  C
  C66      1.0000 0.83437  0.31080  0.96670  Biso   1.000  C
  N7       1.0000 0.81483  0.30080  0.01855  Biso   1.000  N
  H53      1.0000 0.80420  0.27870  0.03540  Biso   1.000  H
  N8       1.0000 0.81531  0.25220  0.98428  Biso   1.000  N
  C67      1.0000 0.83652  0.45560  0.06000  Biso   1.000  C
  H54      1.0000 0.85010  0.51440  0.05830  Biso   1.000  H
  H55      1.0000 0.84950  0.42100  0.08560  Biso   1.000  H
  H56      1.0000 0.81210  0.47380  0.05950  Biso   1.000  H
  C68      1.0000 0.84120  0.28180  0.92730  Biso   1.000  C
  H57      1.0000 0.82960  0.21900  0.91760  Biso   1.000  H
  H58      1.0000 0.86760  0.27640  0.93300  Biso   1.000  H
  H59      1.0000 0.83100  0.33140  0.90620  Biso   1.000  H
  Co3      1.0000 0.50961  0.81545  0.04214  Biso   1.000  Co
  Co4      1.0000 0.78975  0.88202  0.46733  Biso   1.000  Co
  O13      1.0000 0.76213  0.86890  0.40031  Biso   1.000  O
  O14      1.0000 0.71829  0.83570  0.98424  Biso   1.000  O
  O15      1.0000 0.61850  0.78590  0.04194  Biso   1.000  O
  H60      1.0000 0.59820  0.79880  0.04400  Biso   1.000  H
  O16      1.0000 0.72392  0.88050  0.32096  Biso   1.000  O
  H61      1.0000 0.74050  0.89340  0.34320  Biso   1.000  H
  O17      1.0000 0.52423  0.87610  0.09889  Biso   1.000  O
  O18      1.0000 0.54867  0.82150  0.01738  Biso   1.000  O
  N9       1.0000 0.45600  0.91940  0.96868  Biso   1.000  N
  H62      1.0000 0.47090  0.91320  0.95480  Biso   1.000  H
  O19      1.0000 0.51632  0.84530  0.94995  Biso   1.000  O
  O20      1.0000 0.56344  0.75830  0.10729  Biso   1.000  O
  O21      1.0000 0.73739  0.79820  0.44170  Biso   1.000  O
  C69      1.0000 0.70679  0.77420  0.36923  Biso   1.000  C
  N10      1.0000 0.46571  0.89830  0.00986  Biso   1.000  N
  O22      1.0000 0.62198  0.74730  0.17259  Biso   1.000  O
  H63      1.0000 0.60730  0.73280  0.14930  Biso   1.000  H
  C70      1.0000 0.43528  0.91900  0.01960  Biso   1.000  C
  C71      1.0000 0.68163  0.73210  0.02820  Biso   1.000  C
  H64      1.0000 0.69740  0.68890  0.01870  Biso   1.000  H
  H65      1.0000 0.67620  0.69790  0.05060  Biso   1.000  H
  C72      1.0000 0.72082  0.87390  0.02170  Biso   1.000  C
  C73      1.0000 0.73677  0.81730  0.40486  Biso   1.000  C
  C74      1.0000 0.66667  0.81650  0.25040  Biso   1.000  C
  H66      1.0000 0.67070  0.76400  0.23290  Biso   1.000  H
  H67      1.0000 0.68570  0.86650  0.25330  Biso   1.000  H
  N11      1.0000 0.48970  0.67680  0.04049  Biso   1.000  N
  C75      1.0000 0.64530  0.74750  0.99210  Biso   1.000  C
  C76      1.0000 0.54568  0.82400  0.97860  Biso   1.000  C
  C77      1.0000 0.57974  0.79630  0.96900  Biso   1.000  C
  C78      1.0000 0.61463  0.77670  0.00120  Biso   1.000  C
  C79      1.0000 0.55190  0.82940  0.12150  Biso   1.000  C
  C80      1.0000 0.43292  0.45270  0.99950  Biso   1.000  C
  H68      1.0000 0.44300  0.42770  0.97880  Biso   1.000  H
  H69      1.0000 0.43320  0.39830  0.01840  Biso   1.000  H
  C81      1.0000 0.45828  0.53370  0.02430  Biso   1.000  C
  C82      1.0000 0.70161  0.80860  0.32730  Biso   1.000  C
  C83      1.0000 0.64134  0.72720  0.94990  Biso   1.000  C
  C84      1.0000 0.70357  0.82680  0.04630  Biso   1.000  C
  C85      1.0000 0.72706  0.95700  0.09900  Biso   1.000  C
  N12      1.0000 0.49661  0.61840  0.07430  Biso   1.000  N
  H70      1.0000 0.51150  0.63450  0.09890  Biso   1.000  H
  C86      1.0000 0.65010  0.69460  0.29930  Biso   1.000  C
  C87      1.0000 0.46667  0.62370  0.00950  Biso   1.000  C
  C88      1.0000 0.70718  0.86790  0.08620  Biso   1.000  C
  C89      1.0000 0.74482  0.00180  0.07370  Biso   1.000  C
  H71      1.0000 0.75850  0.05960  0.08280  Biso   1.000  H
  C90      1.0000 0.57356  0.86700  0.16410  Biso   1.000  C
  C91      1.0000 0.62920  0.86300  0.22740  Biso   1.000  C
  C92      1.0000 0.67271  0.77330  0.29326  Biso   1.000  C
  C93      1.0000 0.60680  0.74920  0.91620  Biso   1.000  C
  C94      1.0000 0.42140  0.95040  0.95200  Biso   1.000  C
  C95      1.0000 0.69001  0.82420  0.11310  Biso   1.000  C
  H72      1.0000 0.67630  0.76600  0.10500  Biso   1.000  H
  C96      1.0000 0.67010  0.68260  0.93730  Biso   1.000  C
  H73      1.0000 0.69280  0.66600  0.95770  Biso   1.000  H
  C97      1.0000 0.60813  0.82640  0.18830  Biso   1.000  C
  C98      1.0000 0.39342  0.48320  0.97740  Biso   1.000  C
  C99      1.0000 0.74231  0.96190  0.03590  Biso   1.000  C
  C100     1.0000 0.40380  0.97680  0.90680  Biso   1.000  C
  H74      1.0000 0.42140  0.96670  0.89270  Biso   1.000  H
  H75      1.0000 0.39620  0.04520  0.90440  Biso   1.000  H
  H76      1.0000 0.38240  0.93540  0.89420  Biso   1.000  H
  C101     1.0000 0.60140  0.73030  0.87380  Biso   1.000  C
  H77      1.0000 0.57890  0.74450  0.85260  Biso   1.000  H
  C102     1.0000 0.57717  0.78520  0.92810  Biso   1.000  C
  H78      1.0000 0.55490  0.80220  0.90720  Biso   1.000  H
  C103     1.0000 0.65570  0.65880  0.33980  Biso   1.000  C
  C104     1.0000 0.63320  0.58420  0.34740  Biso   1.000  C
  H79      1.0000 0.63730  0.56160  0.37450  Biso   1.000  H
  C105     1.0000 0.40676  0.95280  0.98440  Biso   1.000  C
  C106     1.0000 0.45240  0.66070  0.96430  Biso   1.000  C
  H80      1.0000 0.46280  0.72500  0.96290  Biso   1.000  H
  H81      1.0000 0.42570  0.66540  0.95480  Biso   1.000  H
  H82      1.0000 0.45970  0.61510  0.94680  Biso   1.000  H
  C107     1.0000 0.73110  0.99840  0.13830  Biso   1.000  C
  H83      1.0000 0.74500  0.05610  0.14710  Biso   1.000  H
  C108     1.0000 0.47810  0.53330  0.06600  Biso   1.000  C
  C109     1.0000 0.63110  0.68960  0.86490  Biso   1.000  C
  H84      1.0000 0.62870  0.67860  0.83700  Biso   1.000  H
  C110     1.0000 0.62120  0.65200  0.26600  Biso   1.000  C
  H85      1.0000 0.61690  0.67350  0.23870  Biso   1.000  H
  C111     1.0000 0.69370  0.86790  0.15100  Biso   1.000  C
  H86      1.0000 0.68190  0.83920  0.16800  Biso   1.000  H
  C112     1.0000 0.68320  0.70170  0.37390  Biso   1.000  C
  H87      1.0000 0.68570  0.68060  0.40080  Biso   1.000  H
  C113     1.0000 0.66470  0.66440  0.89650  Biso   1.000  C
  H88      1.0000 0.68350  0.63470  0.88920  Biso   1.000  H
  C114     1.0000 0.59930  0.57960  0.27320  Biso   1.000  C
  H89      1.0000 0.58020  0.55270  0.25070  Biso   1.000  H
  C115     1.0000 0.43480  0.90700  0.06310  Biso   1.000  C
  H90      1.0000 0.45850  0.88240  0.08100  Biso   1.000  H
  H91      1.0000 0.41560  0.86070  0.06290  Biso   1.000  H
  H92      1.0000 0.42990  0.97000  0.07340  Biso   1.000  H
  C116     1.0000 0.57940  0.98110  0.22160  Biso   1.000  C
  C117     1.0000 0.55950  0.94260  0.18050  Biso   1.000  C
  H93      1.0000 0.53660  0.97010  0.16480  Biso   1.000  H
  C118     1.0000 0.71420  0.95280  0.16410  Biso   1.000  C
  H94      1.0000 0.71690  0.97990  0.19020  Biso   1.000  H
  C119     1.0000 0.61510  0.94340  0.24370  Biso   1.000  C
  C120     1.0000 0.56470  0.06050  0.23860  Biso   1.000  C
  H95      1.0000 0.54110  0.08500  0.22390  Biso   1.000  H
  C121     1.0000 0.48100  0.46040  0.10080  Biso   1.000  C
  H96      1.0000 0.49810  0.48550  0.12680  Biso   1.000  H
  H97      1.0000 0.48990  0.39770  0.09450  Biso   1.000  H
  H98      1.0000 0.45690  0.45150  0.10320  Biso   1.000  H
  C122     1.0000 0.60460  0.54460  0.31350  Biso   1.000  C
  H99      1.0000 0.58930  0.49530  0.31770  Biso   1.000  H
  C123     1.0000 0.63450  0.98760  0.28310  Biso   1.000  C
  H100     1.0000 0.65800  0.96450  0.29910  Biso   1.000  H
  C124     1.0000 0.61880  0.06370  0.29760  Biso   1.000  C
  H101     1.0000 0.63190  0.09130  0.32370  Biso   1.000  H
  C125     1.0000 0.58470  0.10040  0.27550  Biso   1.000  C
  H102     1.0000 0.57520  0.15370  0.28600  Biso   1.000  H
  C126     1.0000 0.36909  0.52500  0.99550  Biso   1.000  C
  C127     1.0000 0.37331  0.47270  0.93610  Biso   1.000  C
  N13      1.0000 0.33849  0.50750  0.92972  Biso   1.000  N
  H103     1.0000 0.32090  0.50880  0.90570  Biso   1.000  H
  N14      1.0000 0.33500  0.54010  0.96607  Biso   1.000  N
  C128     1.0000 0.37526  0.55470  0.03860  Biso   1.000  C
  H104     1.0000 0.35260  0.58110  0.04060  Biso   1.000  H
  H105     1.0000 0.39430  0.60460  0.04700  Biso   1.000  H
  H106     1.0000 0.38290  0.49800  0.05670  Biso   1.000  H
  C129     1.0000 0.38300  0.43000  0.90040  Biso   1.000  C
  H107     1.0000 0.36190  0.43550  0.87490  Biso   1.000  H
  H108     1.0000 0.38970  0.36130  0.90590  Biso   1.000  H
  H109     1.0000 0.40370  0.46590  0.89740  Biso   1.000  H
  C130     1.0000 0.76144  0.01360  0.00900  Biso   1.000  C
  O23      1.0000 0.78146  0.08910  0.02358  Biso   1.000  O
  O24      1.0000 0.75726  0.97930  0.97330  Biso   1.000  O
  C131     1.0000 0.36751  0.98100  0.98160  Biso   1.000  C
  H110     1.0000 0.36890  0.03450  0.00120  Biso   1.000  H
  H111     1.0000 0.35410  0.00570  0.95360  Biso   1.000  H
  C132     1.0000 0.34646  0.89740  0.99070  Biso   1.000  C
  C133     1.0000 0.33318  0.88960  0.02350  Biso   1.000  C
  C134     1.0000 0.33437  0.81080  0.96670  Biso   1.000  C
  N15      1.0000 0.31483  0.80080  0.01855  Biso   1.000  N
  H112     1.0000 0.30420  0.77870  0.03540  Biso   1.000  H
  N16      1.0000 0.31531  0.75220  0.98428  Biso   1.000  N
  C135     1.0000 0.33652  0.95560  0.06000  Biso   1.000  C
  H113     1.0000 0.35010  0.01440  0.05830  Biso   1.000  H
  H114     1.0000 0.34950  0.92100  0.08560  Biso   1.000  H
  H115     1.0000 0.31210  0.97380  0.05950  Biso   1.000  H
  C136     1.0000 0.34120  0.78180  0.92730  Biso   1.000  C
  H116     1.0000 0.32960  0.71900  0.91760  Biso   1.000  H
  H117     1.0000 0.36760  0.77640  0.93300  Biso   1.000  H
  H118     1.0000 0.33100  0.83140  0.90620  Biso   1.000  H
  Co5      1.0000 0.00961  0.68455  0.54214  Biso   1.000  Co
  Co6      1.0000 0.28975  0.61798  0.96733  Biso   1.000  Co
  O25      1.0000 0.26213  0.63110  0.90031  Biso   1.000  O
  O26      1.0000 0.21829  0.66430  0.48424  Biso   1.000  O
  O27      1.0000 0.11850  0.71410  0.54194  Biso   1.000  O
  H119     1.0000 0.09820  0.70120  0.54400  Biso   1.000  H
  O28      1.0000 0.22392  0.61950  0.82096  Biso   1.000  O
  H120     1.0000 0.24050  0.60660  0.84320  Biso   1.000  H
  O29      1.0000 0.02423  0.62390  0.59889  Biso   1.000  O
  O30      1.0000 0.04867  0.67850  0.51738  Biso   1.000  O
  N17      1.0000 0.95600  0.58060  0.46868  Biso   1.000  N
  H121     1.0000 0.97090  0.58680  0.45480  Biso   1.000  H
  O31      1.0000 0.01632  0.65470  0.44995  Biso   1.000  O
  O32      1.0000 0.06344  0.74170  0.60729  Biso   1.000  O
  O33      1.0000 0.23739  0.70180  0.94170  Biso   1.000  O
  C137     1.0000 0.20679  0.72580  0.86923  Biso   1.000  C
  N18      1.0000 0.96571  0.60170  0.50986  Biso   1.000  N
  O34      1.0000 0.12198  0.75270  0.67259  Biso   1.000  O
  H122     1.0000 0.10730  0.76720  0.64930  Biso   1.000  H
  C138     1.0000 0.93528  0.58100  0.51960  Biso   1.000  C
  C139     1.0000 0.18163  0.76790  0.52820  Biso   1.000  C
  H123     1.0000 0.19740  0.81110  0.51870  Biso   1.000  H
  H124     1.0000 0.17620  0.80210  0.55060  Biso   1.000  H
  C140     1.0000 0.22082  0.62610  0.52170  Biso   1.000  C
  C141     1.0000 0.23677  0.68270  0.90486  Biso   1.000  C
  C142     1.0000 0.16667  0.68350  0.75040  Biso   1.000  C
  H125     1.0000 0.17070  0.73600  0.73290  Biso   1.000  H
  H126     1.0000 0.18570  0.63350  0.75330  Biso   1.000  H
  N19      1.0000 0.98970  0.82320  0.54049  Biso   1.000  N
  C143     1.0000 0.14530  0.75250  0.49210  Biso   1.000  C
  C144     1.0000 0.04568  0.67600  0.47860  Biso   1.000  C
  C145     1.0000 0.07974  0.70370  0.46900  Biso   1.000  C
  C146     1.0000 0.11463  0.72330  0.50120  Biso   1.000  C
  C147     1.0000 0.05190  0.67060  0.62150  Biso   1.000  C
  C148     1.0000 0.93292  0.04730  0.49950  Biso   1.000  C
  H127     1.0000 0.94300  0.07230  0.47880  Biso   1.000  H
  H128     1.0000 0.93320  0.10170  0.51840  Biso   1.000  H
  C149     1.0000 0.95828  0.96630  0.52430  Biso   1.000  C
  C150     1.0000 0.20161  0.69140  0.82730  Biso   1.000  C
  C151     1.0000 0.14134  0.77280  0.44990  Biso   1.000  C
  C152     1.0000 0.20357  0.67320  0.54630  Biso   1.000  C
  C153     1.0000 0.22706  0.54300  0.59900  Biso   1.000  C
  N20      1.0000 0.99661  0.88160  0.57430  Biso   1.000  N
  H129     1.0000 0.01150  0.86550  0.59890  Biso   1.000  H
  C154     1.0000 0.15010  0.80540  0.79930  Biso   1.000  C
  C155     1.0000 0.96667  0.87630  0.50950  Biso   1.000  C
  C156     1.0000 0.20718  0.63210  0.58620  Biso   1.000  C
  C157     1.0000 0.24482  0.49820  0.57370  Biso   1.000  C
  H130     1.0000 0.25850  0.44040  0.58280  Biso   1.000  H
  C158     1.0000 0.07356  0.63300  0.66410  Biso   1.000  C
  C159     1.0000 0.12920  0.63700  0.72740  Biso   1.000  C
  C160     1.0000 0.17271  0.72670  0.79326  Biso   1.000  C
  C161     1.0000 0.10680  0.75080  0.41620  Biso   1.000  C
  C162     1.0000 0.92140  0.54960  0.45200  Biso   1.000  C
  C163     1.0000 0.19001  0.67580  0.61310  Biso   1.000  C
  H131     1.0000 0.17630  0.73400  0.60500  Biso   1.000  H
  C164     1.0000 0.17010  0.81740  0.43730  Biso   1.000  C
  H132     1.0000 0.19280  0.83400  0.45770  Biso   1.000  H
  C165     1.0000 0.10813  0.67360  0.68830  Biso   1.000  C
  C166     1.0000 0.89342  0.01680  0.47740  Biso   1.000  C
  C167     1.0000 0.24231  0.53810  0.53590  Biso   1.000  C
  C168     1.0000 0.90380  0.52320  0.40680  Biso   1.000  C
  H133     1.0000 0.92140  0.53330  0.39270  Biso   1.000  H
  H134     1.0000 0.89620  0.45480  0.40440  Biso   1.000  H
  H135     1.0000 0.88240  0.56460  0.39420  Biso   1.000  H
  C169     1.0000 0.10140  0.76970  0.37380  Biso   1.000  C
  H136     1.0000 0.07890  0.75550  0.35260  Biso   1.000  H
  C170     1.0000 0.07717  0.71480  0.42810  Biso   1.000  C
  H137     1.0000 0.05490  0.69780  0.40720  Biso   1.000  H
  C171     1.0000 0.15570  0.84120  0.83980  Biso   1.000  C
  C172     1.0000 0.13320  0.91580  0.84740  Biso   1.000  C
  H138     1.0000 0.13730  0.93840  0.87450  Biso   1.000  H
  C173     1.0000 0.90676  0.54720  0.48440  Biso   1.000  C
  C174     1.0000 0.95240  0.83930  0.46430  Biso   1.000  C
  H139     1.0000 0.96280  0.77500  0.46290  Biso   1.000  H
  H140     1.0000 0.92570  0.83460  0.45480  Biso   1.000  H
  H141     1.0000 0.95970  0.88490  0.44680  Biso   1.000  H
  C175     1.0000 0.23110  0.50160  0.63830  Biso   1.000  C
  H142     1.0000 0.24500  0.44390  0.64710  Biso   1.000  H
  C176     1.0000 0.97810  0.96670  0.56600  Biso   1.000  C
  C177     1.0000 0.13110  0.81040  0.36490  Biso   1.000  C
  H143     1.0000 0.12870  0.82140  0.33700  Biso   1.000  H
  C178     1.0000 0.12120  0.84800  0.76600  Biso   1.000  C
  H144     1.0000 0.11690  0.82650  0.73870  Biso   1.000  H
  C179     1.0000 0.19370  0.63210  0.65100  Biso   1.000  C
  H145     1.0000 0.18190  0.66080  0.66800  Biso   1.000  H
  C180     1.0000 0.18320  0.79830  0.87390  Biso   1.000  C
  H146     1.0000 0.18570  0.81940  0.90080  Biso   1.000  H
  C181     1.0000 0.16470  0.83560  0.39650  Biso   1.000  C
  H147     1.0000 0.18350  0.86530  0.38920  Biso   1.000  H
  C182     1.0000 0.09930  0.92040  0.77320  Biso   1.000  C
  H148     1.0000 0.08020  0.94730  0.75070  Biso   1.000  H
  C183     1.0000 0.93480  0.59300  0.56310  Biso   1.000  C
  H149     1.0000 0.95850  0.61760  0.58100  Biso   1.000  H
  H150     1.0000 0.91560  0.63930  0.56290  Biso   1.000  H
  H151     1.0000 0.92990  0.53000  0.57340  Biso   1.000  H
  C184     1.0000 0.07940  0.51890  0.72160  Biso   1.000  C
  C185     1.0000 0.05950  0.55740  0.68050  Biso   1.000  C
  H152     1.0000 0.03660  0.52990  0.66480  Biso   1.000  H
  C186     1.0000 0.21420  0.54720  0.66410  Biso   1.000  C
  H153     1.0000 0.21690  0.52010  0.69020  Biso   1.000  H
  C187     1.0000 0.11510  0.55660  0.74370  Biso   1.000  C
  C188     1.0000 0.06470  0.43950  0.73860  Biso   1.000  C
  H154     1.0000 0.04110  0.41500  0.72390  Biso   1.000  H
  C189     1.0000 0.98100  0.03960  0.60080  Biso   1.000  C
  H155     1.0000 0.99810  0.01450  0.62680  Biso   1.000  H
  H156     1.0000 0.98990  0.10230  0.59450  Biso   1.000  H
  H157     1.0000 0.95690  0.04850  0.60320  Biso   1.000  H
  C190     1.0000 0.10460  0.95540  0.81350  Biso   1.000  C
  H158     1.0000 0.08930  0.00470  0.81770  Biso   1.000  H
  C191     1.0000 0.13450  0.51240  0.78310  Biso   1.000  C
  H159     1.0000 0.15800  0.53550  0.79910  Biso   1.000  H
  C192     1.0000 0.11880  0.43630  0.79760  Biso   1.000  C
  H160     1.0000 0.13190  0.40870  0.82370  Biso   1.000  H
  C193     1.0000 0.08470  0.39960  0.77550  Biso   1.000  C
  H161     1.0000 0.07520  0.34630  0.78600  Biso   1.000  H
  C194     1.0000 0.86909  0.97500  0.49550  Biso   1.000  C
  C195     1.0000 0.87331  0.02730  0.43610  Biso   1.000  C
  N21      1.0000 0.83849  0.99250  0.42972  Biso   1.000  N
  H162     1.0000 0.82090  0.99120  0.40570  Biso   1.000  H
  N22      1.0000 0.83500  0.95990  0.46607  Biso   1.000  N
  C196     1.0000 0.87526  0.94530  0.53860  Biso   1.000  C
  H163     1.0000 0.85260  0.91890  0.54060  Biso   1.000  H
  H164     1.0000 0.89430  0.89540  0.54700  Biso   1.000  H
  H165     1.0000 0.88290  0.00200  0.55670  Biso   1.000  H
  C197     1.0000 0.88300  0.07000  0.40040  Biso   1.000  C
  H166     1.0000 0.86190  0.06450  0.37490  Biso   1.000  H
  H167     1.0000 0.88970  0.13870  0.40590  Biso   1.000  H
  H168     1.0000 0.90370  0.03410  0.39740  Biso   1.000  H
  C198     1.0000 0.26144  0.48640  0.50900  Biso   1.000  C
  O35      1.0000 0.28146  0.41090  0.52358  Biso   1.000  O
  O36      1.0000 0.25726  0.52070  0.47330  Biso   1.000  O
  C199     1.0000 0.86751  0.51900  0.48160  Biso   1.000  C
  H169     1.0000 0.86890  0.46550  0.50120  Biso   1.000  H
  H170     1.0000 0.85410  0.49430  0.45360  Biso   1.000  H
  C200     1.0000 0.84646  0.60260  0.49070  Biso   1.000  C
  C201     1.0000 0.83318  0.61040  0.52350  Biso   1.000  C
  C202     1.0000 0.83437  0.68920  0.46670  Biso   1.000  C
  N23      1.0000 0.81483  0.69920  0.51855  Biso   1.000  N
  H171     1.0000 0.80420  0.72130  0.53540  Biso   1.000  H
  N24      1.0000 0.81531  0.74780  0.48428  Biso   1.000  N
  C203     1.0000 0.83652  0.54440  0.56000  Biso   1.000  C
  H172     1.0000 0.85010  0.48560  0.55830  Biso   1.000  H
  H173     1.0000 0.84950  0.57900  0.58560  Biso   1.000  H
  H174     1.0000 0.81210  0.52620  0.55950  Biso   1.000  H
  C204     1.0000 0.84120  0.71820  0.42730  Biso   1.000  C
  H175     1.0000 0.82960  0.78100  0.41760  Biso   1.000  H
  H176     1.0000 0.86760  0.72360  0.43300  Biso   1.000  H
  H177     1.0000 0.83100  0.66860  0.40620  Biso   1.000  H
  Co7      1.0000 0.50961  0.18455  0.54214  Biso   1.000  Co
  Co8      1.0000 0.78975  0.11798  0.96733  Biso   1.000  Co
  O37      1.0000 0.76213  0.13110  0.90031  Biso   1.000  O
  O38      1.0000 0.71829  0.16430  0.48424  Biso   1.000  O
  O39      1.0000 0.61850  0.21410  0.54194  Biso   1.000  O
  H178     1.0000 0.59820  0.20120  0.54400  Biso   1.000  H
  O40      1.0000 0.72392  0.11950  0.82096  Biso   1.000  O
  H179     1.0000 0.74050  0.10660  0.84320  Biso   1.000  H
  O41      1.0000 0.52423  0.12390  0.59889  Biso   1.000  O
  O42      1.0000 0.54867  0.17850  0.51738  Biso   1.000  O
  N25      1.0000 0.45600  0.08060  0.46868  Biso   1.000  N
  H180     1.0000 0.47090  0.08680  0.45480  Biso   1.000  H
  O43      1.0000 0.51632  0.15470  0.44995  Biso   1.000  O
  O44      1.0000 0.56344  0.24170  0.60729  Biso   1.000  O
  O45      1.0000 0.73739  0.20180  0.94170  Biso   1.000  O
  C205     1.0000 0.70679  0.22580  0.86923  Biso   1.000  C
  N26      1.0000 0.46571  0.10170  0.50986  Biso   1.000  N
  O46      1.0000 0.62198  0.25270  0.67259  Biso   1.000  O
  H181     1.0000 0.60730  0.26720  0.64930  Biso   1.000  H
  C206     1.0000 0.43528  0.08100  0.51960  Biso   1.000  C
  C207     1.0000 0.68163  0.26790  0.52820  Biso   1.000  C
  H182     1.0000 0.69740  0.31110  0.51870  Biso   1.000  H
  H183     1.0000 0.67620  0.30210  0.55060  Biso   1.000  H
  C208     1.0000 0.72082  0.12610  0.52170  Biso   1.000  C
  C209     1.0000 0.73677  0.18270  0.90486  Biso   1.000  C
  C210     1.0000 0.66667  0.18350  0.75040  Biso   1.000  C
  H184     1.0000 0.67070  0.23600  0.73290  Biso   1.000  H
  H185     1.0000 0.68570  0.13350  0.75330  Biso   1.000  H
  N27      1.0000 0.48970  0.32320  0.54049  Biso   1.000  N
  C211     1.0000 0.64530  0.25250  0.49210  Biso   1.000  C
  C212     1.0000 0.54568  0.17600  0.47860  Biso   1.000  C
  C213     1.0000 0.57974  0.20370  0.46900  Biso   1.000  C
  C214     1.0000 0.61463  0.22330  0.50120  Biso   1.000  C
  C215     1.0000 0.55190  0.17060  0.62150  Biso   1.000  C
  C216     1.0000 0.43292  0.54730  0.49950  Biso   1.000  C
  H186     1.0000 0.44300  0.57230  0.47880  Biso   1.000  H
  H187     1.0000 0.43320  0.60170  0.51840  Biso   1.000  H
  C217     1.0000 0.45828  0.46630  0.52430  Biso   1.000  C
  C218     1.0000 0.70161  0.19140  0.82730  Biso   1.000  C
  C219     1.0000 0.64134  0.27280  0.44990  Biso   1.000  C
  C220     1.0000 0.70357  0.17320  0.54630  Biso   1.000  C
  C221     1.0000 0.72706  0.04300  0.59900  Biso   1.000  C
  N28      1.0000 0.49661  0.38160  0.57430  Biso   1.000  N
  H188     1.0000 0.51150  0.36550  0.59890  Biso   1.000  H
  C222     1.0000 0.65010  0.30540  0.79930  Biso   1.000  C
  C223     1.0000 0.46667  0.37630  0.50950  Biso   1.000  C
  C224     1.0000 0.70718  0.13210  0.58620  Biso   1.000  C
  C225     1.0000 0.74482  0.99820  0.57370  Biso   1.000  C
  H189     1.0000 0.75850  0.94040  0.58280  Biso   1.000  H
  C226     1.0000 0.57356  0.13300  0.66410  Biso   1.000  C
  C227     1.0000 0.62920  0.13700  0.72740  Biso   1.000  C
  C228     1.0000 0.67271  0.22670  0.79326  Biso   1.000  C
  C229     1.0000 0.60680  0.25080  0.41620  Biso   1.000  C
  C230     1.0000 0.42140  0.04960  0.45200  Biso   1.000  C
  C231     1.0000 0.69001  0.17580  0.61310  Biso   1.000  C
  H190     1.0000 0.67630  0.23400  0.60500  Biso   1.000  H
  C232     1.0000 0.67010  0.31740  0.43730  Biso   1.000  C
  H191     1.0000 0.69280  0.33400  0.45770  Biso   1.000  H
  C233     1.0000 0.60813  0.17360  0.68830  Biso   1.000  C
  C234     1.0000 0.39342  0.51680  0.47740  Biso   1.000  C
  C235     1.0000 0.74231  0.03810  0.53590  Biso   1.000  C
  C236     1.0000 0.40380  0.02320  0.40680  Biso   1.000  C
  H192     1.0000 0.42140  0.03330  0.39270  Biso   1.000  H
  H193     1.0000 0.39620  0.95480  0.40440  Biso   1.000  H
  H194     1.0000 0.38240  0.06460  0.39420  Biso   1.000  H
  C237     1.0000 0.60140  0.26970  0.37380  Biso   1.000  C
  H195     1.0000 0.57890  0.25550  0.35260  Biso   1.000  H
  C238     1.0000 0.57717  0.21480  0.42810  Biso   1.000  C
  H196     1.0000 0.55490  0.19780  0.40720  Biso   1.000  H
  C239     1.0000 0.65570  0.34120  0.83980  Biso   1.000  C
  C240     1.0000 0.63320  0.41580  0.84740  Biso   1.000  C
  H197     1.0000 0.63730  0.43840  0.87450  Biso   1.000  H
  C241     1.0000 0.40676  0.04720  0.48440  Biso   1.000  C
  C242     1.0000 0.45240  0.33930  0.46430  Biso   1.000  C
  H198     1.0000 0.46280  0.27500  0.46290  Biso   1.000  H
  H199     1.0000 0.42570  0.33460  0.45480  Biso   1.000  H
  H200     1.0000 0.45970  0.38490  0.44680  Biso   1.000  H
  C243     1.0000 0.73110  0.00160  0.63830  Biso   1.000  C
  H201     1.0000 0.74500  0.94390  0.64710  Biso   1.000  H
  C244     1.0000 0.47810  0.46670  0.56600  Biso   1.000  C
  C245     1.0000 0.63110  0.31040  0.36490  Biso   1.000  C
  H202     1.0000 0.62870  0.32140  0.33700  Biso   1.000  H
  C246     1.0000 0.62120  0.34800  0.76600  Biso   1.000  C
  H203     1.0000 0.61690  0.32650  0.73870  Biso   1.000  H
  C247     1.0000 0.69370  0.13210  0.65100  Biso   1.000  C
  H204     1.0000 0.68190  0.16080  0.66800  Biso   1.000  H
  C248     1.0000 0.68320  0.29830  0.87390  Biso   1.000  C
  H205     1.0000 0.68570  0.31940  0.90080  Biso   1.000  H
  C249     1.0000 0.66470  0.33560  0.39650  Biso   1.000  C
  H206     1.0000 0.68350  0.36530  0.38920  Biso   1.000  H
  C250     1.0000 0.59930  0.42040  0.77320  Biso   1.000  C
  H207     1.0000 0.58020  0.44730  0.75070  Biso   1.000  H
  C251     1.0000 0.43480  0.09300  0.56310  Biso   1.000  C
  H208     1.0000 0.45850  0.11760  0.58100  Biso   1.000  H
  H209     1.0000 0.41560  0.13930  0.56290  Biso   1.000  H
  H210     1.0000 0.42990  0.03000  0.57340  Biso   1.000  H
  C252     1.0000 0.57940  0.01890  0.72160  Biso   1.000  C
  C253     1.0000 0.55950  0.05740  0.68050  Biso   1.000  C
  H211     1.0000 0.53660  0.02990  0.66480  Biso   1.000  H
  C254     1.0000 0.71420  0.04720  0.66410  Biso   1.000  C
  H212     1.0000 0.71690  0.02010  0.69020  Biso   1.000  H
  C255     1.0000 0.61510  0.05660  0.74370  Biso   1.000  C
  C256     1.0000 0.56470  0.93950  0.73860  Biso   1.000  C
  H213     1.0000 0.54110  0.91500  0.72390  Biso   1.000  H
  C257     1.0000 0.48100  0.53960  0.60080  Biso   1.000  C
  H214     1.0000 0.49810  0.51450  0.62680  Biso   1.000  H
  H215     1.0000 0.48990  0.60230  0.59450  Biso   1.000  H
  H216     1.0000 0.45690  0.54850  0.60320  Biso   1.000  H
  C258     1.0000 0.60460  0.45540  0.81350  Biso   1.000  C
  H217     1.0000 0.58930  0.50470  0.81770  Biso   1.000  H
  C259     1.0000 0.63450  0.01240  0.78310  Biso   1.000  C
  H218     1.0000 0.65800  0.03550  0.79910  Biso   1.000  H
  C260     1.0000 0.61880  0.93630  0.79760  Biso   1.000  C
  H219     1.0000 0.63190  0.90870  0.82370  Biso   1.000  H
  C261     1.0000 0.58470  0.89960  0.77550  Biso   1.000  C
  H220     1.0000 0.57520  0.84630  0.78600  Biso   1.000  H
  C262     1.0000 0.36909  0.47500  0.49550  Biso   1.000  C
  C263     1.0000 0.37331  0.52730  0.43610  Biso   1.000  C
  N29      1.0000 0.33849  0.49250  0.42972  Biso   1.000  N
  H221     1.0000 0.32090  0.49120  0.40570  Biso   1.000  H
  N30      1.0000 0.33500  0.45990  0.46607  Biso   1.000  N
  C264     1.0000 0.37526  0.44530  0.53860  Biso   1.000  C
  H222     1.0000 0.35260  0.41890  0.54060  Biso   1.000  H
  H223     1.0000 0.39430  0.39540  0.54700  Biso   1.000  H
  H224     1.0000 0.38290  0.50200  0.55670  Biso   1.000  H
  C265     1.0000 0.38300  0.57000  0.40040  Biso   1.000  C
  H225     1.0000 0.36190  0.56450  0.37490  Biso   1.000  H
  H226     1.0000 0.38970  0.63870  0.40590  Biso   1.000  H
  H227     1.0000 0.40370  0.53410  0.39740  Biso   1.000  H
  C266     1.0000 0.76144  0.98640  0.50900  Biso   1.000  C
  O47      1.0000 0.78146  0.91090  0.52358  Biso   1.000  O
  O48      1.0000 0.75726  0.02070  0.47330  Biso   1.000  O
  C267     1.0000 0.36751  0.01900  0.48160  Biso   1.000  C
  H228     1.0000 0.36890  0.96550  0.50120  Biso   1.000  H
  H229     1.0000 0.35410  0.99430  0.45360  Biso   1.000  H
  C268     1.0000 0.34646  0.10260  0.49070  Biso   1.000  C
  C269     1.0000 0.33318  0.11040  0.52350  Biso   1.000  C
  C270     1.0000 0.33437  0.18920  0.46670  Biso   1.000  C
  N31      1.0000 0.31483  0.19920  0.51855  Biso   1.000  N
  H230     1.0000 0.30420  0.22130  0.53540  Biso   1.000  H
  N32      1.0000 0.31531  0.24780  0.48428  Biso   1.000  N
  C271     1.0000 0.33652  0.04440  0.56000  Biso   1.000  C
  H231     1.0000 0.35010  0.98560  0.55830  Biso   1.000  H
  H232     1.0000 0.34950  0.07900  0.58560  Biso   1.000  H
  H233     1.0000 0.31210  0.02620  0.55950  Biso   1.000  H
  C272     1.0000 0.34120  0.21820  0.42730  Biso   1.000  C
  H234     1.0000 0.32960  0.28100  0.41760  Biso   1.000  H
  H235     1.0000 0.36760  0.22360  0.43300  Biso   1.000  H
  H236     1.0000 0.33100  0.16860  0.40620  Biso   1.000  H
  Co9      1.0000 0.99039  0.31545  0.45786  Biso   1.000  Co
  Co10     1.0000 0.71025  0.38202  0.03267  Biso   1.000  Co
  O49      1.0000 0.73787  0.36890  0.09969  Biso   1.000  O
  O50      1.0000 0.78171  0.33570  0.51576  Biso   1.000  O
  O51      1.0000 0.88150  0.28590  0.45806  Biso   1.000  O
  H237     1.0000 0.90180  0.29880  0.45600  Biso   1.000  H
  O52      1.0000 0.77608  0.38050  0.17904  Biso   1.000  O
  H238     1.0000 0.75950  0.39340  0.15680  Biso   1.000  H
  O53      1.0000 0.97577  0.37610  0.40111  Biso   1.000  O
  O54      1.0000 0.95133  0.32150  0.48262  Biso   1.000  O
  N33      1.0000 0.04400  0.41940  0.53132  Biso   1.000  N
  H239     1.0000 0.02910  0.41320  0.54520  Biso   1.000  H
  O55      1.0000 0.98368  0.34530  0.55005  Biso   1.000  O
  O56      1.0000 0.93656  0.25830  0.39271  Biso   1.000  O
  O57      1.0000 0.76261  0.29820  0.05830  Biso   1.000  O
  C273     1.0000 0.79321  0.27420  0.13077  Biso   1.000  C
  N34      1.0000 0.03429  0.39830  0.49014  Biso   1.000  N
  O58      1.0000 0.87802  0.24730  0.32741  Biso   1.000  O
  H240     1.0000 0.89270  0.23280  0.35070  Biso   1.000  H
  C274     1.0000 0.06472  0.41900  0.48040  Biso   1.000  C
  C275     1.0000 0.81837  0.23210  0.47180  Biso   1.000  C
  H241     1.0000 0.80260  0.18890  0.48130  Biso   1.000  H
  H242     1.0000 0.82380  0.19790  0.44940  Biso   1.000  H
  C276     1.0000 0.77918  0.37390  0.47830  Biso   1.000  C
  C277     1.0000 0.76323  0.31730  0.09514  Biso   1.000  C
  C278     1.0000 0.83333  0.31650  0.24960  Biso   1.000  C
  H243     1.0000 0.82930  0.26400  0.26710  Biso   1.000  H
  H244     1.0000 0.81430  0.36650  0.24670  Biso   1.000  H
  N35      1.0000 0.01030  0.17680  0.45951  Biso   1.000  N
  C279     1.0000 0.85470  0.24750  0.50790  Biso   1.000  C
  C280     1.0000 0.95432  0.32400  0.52140  Biso   1.000  C
  C281     1.0000 0.92026  0.29630  0.53100  Biso   1.000  C
  C282     1.0000 0.88537  0.27670  0.49880  Biso   1.000  C
  C283     1.0000 0.94810  0.32940  0.37850  Biso   1.000  C
  C284     1.0000 0.06708  0.95270  0.50050  Biso   1.000  C
  H245     1.0000 0.05700  0.92770  0.52120  Biso   1.000  H
  H246     1.0000 0.06680  0.89830  0.48160  Biso   1.000  H
  C285     1.0000 0.04172  0.03370  0.47570  Biso   1.000  C
  C286     1.0000 0.79839  0.30860  0.17270  Biso   1.000  C
  C287     1.0000 0.85866  0.22720  0.55010  Biso   1.000  C
  C288     1.0000 0.79643  0.32680  0.45370  Biso   1.000  C
  C289     1.0000 0.77294  0.45700  0.40100  Biso   1.000  C
  N36      1.0000 0.00339  0.11840  0.42570  Biso   1.000  N
  H247     1.0000 0.98850  0.13450  0.40110  Biso   1.000  H
  C290     1.0000 0.84990  0.19460  0.20070  Biso   1.000  C
  C291     1.0000 0.03333  0.12370  0.49050  Biso   1.000  C
  C292     1.0000 0.79282  0.36790  0.41380  Biso   1.000  C
  C293     1.0000 0.75518  0.50180  0.42630  Biso   1.000  C
  H248     1.0000 0.74150  0.55960  0.41720  Biso   1.000  H
  C294     1.0000 0.92644  0.36700  0.33590  Biso   1.000  C
  C295     1.0000 0.87080  0.36300  0.27260  Biso   1.000  C
  C296     1.0000 0.82729  0.27330  0.20674  Biso   1.000  C
  C297     1.0000 0.89320  0.24920  0.58380  Biso   1.000  C
  C298     1.0000 0.07860  0.45040  0.54800  Biso   1.000  C
  C299     1.0000 0.80999  0.32420  0.38690  Biso   1.000  C
  H249     1.0000 0.82370  0.26600  0.39500  Biso   1.000  H
  C300     1.0000 0.82990  0.18260  0.56270  Biso   1.000  C
  H250     1.0000 0.80720  0.16600  0.54230  Biso   1.000  H
  C301     1.0000 0.89187  0.32640  0.31170  Biso   1.000  C
  C302     1.0000 0.10658  0.98320  0.52260  Biso   1.000  C
  C303     1.0000 0.75769  0.46190  0.46410  Biso   1.000  C
  C304     1.0000 0.09620  0.47680  0.59320  Biso   1.000  C
  H251     1.0000 0.07860  0.46670  0.60730  Biso   1.000  H
  H252     1.0000 0.10380  0.54520  0.59560  Biso   1.000  H
  H253     1.0000 0.11760  0.43540  0.60580  Biso   1.000  H
  C305     1.0000 0.89860  0.23030  0.62620  Biso   1.000  C
  H254     1.0000 0.92110  0.24450  0.64740  Biso   1.000  H
  C306     1.0000 0.92283  0.28520  0.57190  Biso   1.000  C
  H255     1.0000 0.94510  0.30220  0.59280  Biso   1.000  H
  C307     1.0000 0.84430  0.15880  0.16020  Biso   1.000  C
  C308     1.0000 0.86680  0.08420  0.15260  Biso   1.000  C
  H256     1.0000 0.86270  0.06160  0.12550  Biso   1.000  H
  C309     1.0000 0.09324  0.45280  0.51560  Biso   1.000  C
  C310     1.0000 0.04760  0.16070  0.53570  Biso   1.000  C
  H257     1.0000 0.03720  0.22500  0.53710  Biso   1.000  H
  H258     1.0000 0.07430  0.16540  0.54520  Biso   1.000  H
  H259     1.0000 0.04030  0.11510  0.55320  Biso   1.000  H
  C311     1.0000 0.76890  0.49840  0.36170  Biso   1.000  C
  H260     1.0000 0.75500  0.55610  0.35290  Biso   1.000  H
  C312     1.0000 0.02190  0.03330  0.43400  Biso   1.000  C
  C313     1.0000 0.86890  0.18960  0.63510  Biso   1.000  C
  H261     1.0000 0.87130  0.17860  0.66300  Biso   1.000  H
  C314     1.0000 0.87880  0.15200  0.23400  Biso   1.000  C
  H262     1.0000 0.88310  0.17350  0.26130  Biso   1.000  H
  C315     1.0000 0.80630  0.36790  0.34900  Biso   1.000  C
  H263     1.0000 0.81810  0.33920  0.33200  Biso   1.000  H
  C316     1.0000 0.81680  0.20170  0.12610  Biso   1.000  C
  H264     1.0000 0.81430  0.18060  0.09920  Biso   1.000  H
  C317     1.0000 0.83530  0.16440  0.60350  Biso   1.000  C
  H265     1.0000 0.81650  0.13470  0.61080  Biso   1.000  H
  C318     1.0000 0.90070  0.07960  0.22680  Biso   1.000  C
  H266     1.0000 0.91980  0.05270  0.24930  Biso   1.000  H
  C319     1.0000 0.06520  0.40700  0.43690  Biso   1.000  C
  H267     1.0000 0.04150  0.38240  0.41900  Biso   1.000  H
  H268     1.0000 0.08440  0.36070  0.43710  Biso   1.000  H
  H269     1.0000 0.07010  0.47000  0.42660  Biso   1.000  H
  C320     1.0000 0.92060  0.48110  0.27840  Biso   1.000  C
  C321     1.0000 0.94050  0.44260  0.31950  Biso   1.000  C
  H270     1.0000 0.96340  0.47010  0.33520  Biso   1.000  H
  C322     1.0000 0.78580  0.45280  0.33590  Biso   1.000  C
  H271     1.0000 0.78310  0.47990  0.30980  Biso   1.000  H
  C323     1.0000 0.88490  0.44340  0.25630  Biso   1.000  C
  C324     1.0000 0.93530  0.56050  0.26140  Biso   1.000  C
  H272     1.0000 0.95890  0.58500  0.27610  Biso   1.000  H
  C325     1.0000 0.01900  0.96040  0.39920  Biso   1.000  C
  H273     1.0000 0.00190  0.98550  0.37320  Biso   1.000  H
  H274     1.0000 0.01010  0.89770  0.40550  Biso   1.000  H
  H275     1.0000 0.04310  0.95150  0.39680  Biso   1.000  H
  C326     1.0000 0.89540  0.04460  0.18650  Biso   1.000  C
  H276     1.0000 0.91070  0.99530  0.18230  Biso   1.000  H
  C327     1.0000 0.86550  0.48760  0.21690  Biso   1.000  C
  H277     1.0000 0.84200  0.46450  0.20090  Biso   1.000  H
  C328     1.0000 0.88120  0.56370  0.20240  Biso   1.000  C
  H278     1.0000 0.86810  0.59130  0.17630  Biso   1.000  H
  C329     1.0000 0.91530  0.60040  0.22450  Biso   1.000  C
  H279     1.0000 0.92480  0.65370  0.21400  Biso   1.000  H
  C330     1.0000 0.13091  0.02500  0.50450  Biso   1.000  C
  C331     1.0000 0.12669  0.97270  0.56390  Biso   1.000  C
  N37      1.0000 0.16151  0.00750  0.57028  Biso   1.000  N
  H280     1.0000 0.17910  0.00880  0.59430  Biso   1.000  H
  N38      1.0000 0.16500  0.04010  0.53393  Biso   1.000  N
  C332     1.0000 0.12474  0.05470  0.46140  Biso   1.000  C
  H281     1.0000 0.14740  0.08110  0.45940  Biso   1.000  H
  H282     1.0000 0.10570  0.10460  0.45300  Biso   1.000  H
  H283     1.0000 0.11710  0.99800  0.44330  Biso   1.000  H
  C333     1.0000 0.11700  0.93000  0.59960  Biso   1.000  C
  H284     1.0000 0.13810  0.93550  0.62510  Biso   1.000  H
  H285     1.0000 0.11030  0.86130  0.59410  Biso   1.000  H
  H286     1.0000 0.09630  0.96590  0.60260  Biso   1.000  H
  C334     1.0000 0.73856  0.51360  0.49100  Biso   1.000  C
  O59      1.0000 0.71854  0.58910  0.47642  Biso   1.000  O
  O60      1.0000 0.74274  0.47930  0.52670  Biso   1.000  O
  C335     1.0000 0.13249  0.48100  0.51840  Biso   1.000  C
  H287     1.0000 0.13110  0.53450  0.49880  Biso   1.000  H
  H288     1.0000 0.14590  0.50570  0.54640  Biso   1.000  H
  C336     1.0000 0.15354  0.39740  0.50930  Biso   1.000  C
  C337     1.0000 0.16682  0.38960  0.47650  Biso   1.000  C
  C338     1.0000 0.16563  0.31080  0.53330  Biso   1.000  C
  N39      1.0000 0.18517  0.30080  0.48145  Biso   1.000  N
  H289     1.0000 0.19580  0.27870  0.46460  Biso   1.000  H
  N40      1.0000 0.18469  0.25220  0.51572  Biso   1.000  N
  C339     1.0000 0.16348  0.45560  0.44000  Biso   1.000  C
  H290     1.0000 0.14990  0.51440  0.44170  Biso   1.000  H
  H291     1.0000 0.15050  0.42100  0.41440  Biso   1.000  H
  H292     1.0000 0.18790  0.47380  0.44050  Biso   1.000  H
  C340     1.0000 0.15880  0.28180  0.57270  Biso   1.000  C
  H293     1.0000 0.17040  0.21900  0.58240  Biso   1.000  H
  H294     1.0000 0.13240  0.27640  0.56700  Biso   1.000  H
  H295     1.0000 0.16900  0.33140  0.59380  Biso   1.000  H
  Co11     1.0000 0.49039  0.81545  0.45786  Biso   1.000  Co
  Co12     1.0000 0.21025  0.88202  0.03267  Biso   1.000  Co
  O61      1.0000 0.23787  0.86890  0.09969  Biso   1.000  O
  O62      1.0000 0.28171  0.83570  0.51576  Biso   1.000  O
  O63      1.0000 0.38150  0.78590  0.45806  Biso   1.000  O
  H296     1.0000 0.40180  0.79880  0.45600  Biso   1.000  H
  O64      1.0000 0.27608  0.88050  0.17904  Biso   1.000  O
  H297     1.0000 0.25950  0.89340  0.15680  Biso   1.000  H
  O65      1.0000 0.47577  0.87610  0.40111  Biso   1.000  O
  O66      1.0000 0.45133  0.82150  0.48262  Biso   1.000  O
  N41      1.0000 0.54400  0.91940  0.53132  Biso   1.000  N
  H298     1.0000 0.52910  0.91320  0.54520  Biso   1.000  H
  O67      1.0000 0.48368  0.84530  0.55005  Biso   1.000  O
  O68      1.0000 0.43656  0.75830  0.39271  Biso   1.000  O
  O69      1.0000 0.26261  0.79820  0.05830  Biso   1.000  O
  C341     1.0000 0.29321  0.77420  0.13077  Biso   1.000  C
  N42      1.0000 0.53429  0.89830  0.49014  Biso   1.000  N
  O70      1.0000 0.37802  0.74730  0.32741  Biso   1.000  O
  H299     1.0000 0.39270  0.73280  0.35070  Biso   1.000  H
  C342     1.0000 0.56472  0.91900  0.48040  Biso   1.000  C
  C343     1.0000 0.31837  0.73210  0.47180  Biso   1.000  C
  H300     1.0000 0.30260  0.68890  0.48130  Biso   1.000  H
  H301     1.0000 0.32380  0.69790  0.44940  Biso   1.000  H
  C344     1.0000 0.27918  0.87390  0.47830  Biso   1.000  C
  C345     1.0000 0.26323  0.81730  0.09514  Biso   1.000  C
  C346     1.0000 0.33333  0.81650  0.24960  Biso   1.000  C
  H302     1.0000 0.32930  0.76400  0.26710  Biso   1.000  H
  H303     1.0000 0.31430  0.86650  0.24670  Biso   1.000  H
  N43      1.0000 0.51030  0.67680  0.45951  Biso   1.000  N
  C347     1.0000 0.35470  0.74750  0.50790  Biso   1.000  C
  C348     1.0000 0.45432  0.82400  0.52140  Biso   1.000  C
  C349     1.0000 0.42026  0.79630  0.53100  Biso   1.000  C
  C350     1.0000 0.38537  0.77670  0.49880  Biso   1.000  C
  C351     1.0000 0.44810  0.82940  0.37850  Biso   1.000  C
  C352     1.0000 0.56708  0.45270  0.50050  Biso   1.000  C
  H304     1.0000 0.55700  0.42770  0.52120  Biso   1.000  H
  H305     1.0000 0.56680  0.39830  0.48160  Biso   1.000  H
  C353     1.0000 0.54172  0.53370  0.47570  Biso   1.000  C
  C354     1.0000 0.29839  0.80860  0.17270  Biso   1.000  C
  C355     1.0000 0.35866  0.72720  0.55010  Biso   1.000  C
  C356     1.0000 0.29643  0.82680  0.45370  Biso   1.000  C
  C357     1.0000 0.27294  0.95700  0.40100  Biso   1.000  C
  N44      1.0000 0.50339  0.61840  0.42570  Biso   1.000  N
  H306     1.0000 0.48850  0.63450  0.40110  Biso   1.000  H
  C358     1.0000 0.34990  0.69460  0.20070  Biso   1.000  C
  C359     1.0000 0.53333  0.62370  0.49050  Biso   1.000  C
  C360     1.0000 0.29282  0.86790  0.41380  Biso   1.000  C
  C361     1.0000 0.25518  0.00180  0.42630  Biso   1.000  C
  H307     1.0000 0.24150  0.05960  0.41720  Biso   1.000  H
  C362     1.0000 0.42644  0.86700  0.33590  Biso   1.000  C
  C363     1.0000 0.37080  0.86300  0.27260  Biso   1.000  C
  C364     1.0000 0.32729  0.77330  0.20674  Biso   1.000  C
  C365     1.0000 0.39320  0.74920  0.58380  Biso   1.000  C
  C366     1.0000 0.57860  0.95040  0.54800  Biso   1.000  C
  C367     1.0000 0.30999  0.82420  0.38690  Biso   1.000  C
  H308     1.0000 0.32370  0.76600  0.39500  Biso   1.000  H
  C368     1.0000 0.32990  0.68260  0.56270  Biso   1.000  C
  H309     1.0000 0.30720  0.66600  0.54230  Biso   1.000  H
  C369     1.0000 0.39187  0.82640  0.31170  Biso   1.000  C
  C370     1.0000 0.60658  0.48320  0.52260  Biso   1.000  C
  C371     1.0000 0.25769  0.96190  0.46410  Biso   1.000  C
  C372     1.0000 0.59620  0.97680  0.59320  Biso   1.000  C
  H310     1.0000 0.57860  0.96670  0.60730  Biso   1.000  H
  H311     1.0000 0.60380  0.04520  0.59560  Biso   1.000  H
  H312     1.0000 0.61760  0.93540  0.60580  Biso   1.000  H
  C373     1.0000 0.39860  0.73030  0.62620  Biso   1.000  C
  H313     1.0000 0.42110  0.74450  0.64740  Biso   1.000  H
  C374     1.0000 0.42283  0.78520  0.57190  Biso   1.000  C
  H314     1.0000 0.44510  0.80220  0.59280  Biso   1.000  H
  C375     1.0000 0.34430  0.65880  0.16020  Biso   1.000  C
  C376     1.0000 0.36680  0.58420  0.15260  Biso   1.000  C
  H315     1.0000 0.36270  0.56160  0.12550  Biso   1.000  H
  C377     1.0000 0.59324  0.95280  0.51560  Biso   1.000  C
  C378     1.0000 0.54760  0.66070  0.53570  Biso   1.000  C
  H316     1.0000 0.53720  0.72500  0.53710  Biso   1.000  H
  H317     1.0000 0.57430  0.66540  0.54520  Biso   1.000  H
  H318     1.0000 0.54030  0.61510  0.55320  Biso   1.000  H
  C379     1.0000 0.26890  0.99840  0.36170  Biso   1.000  C
  H319     1.0000 0.25500  0.05610  0.35290  Biso   1.000  H
  C380     1.0000 0.52190  0.53330  0.43400  Biso   1.000  C
  C381     1.0000 0.36890  0.68960  0.63510  Biso   1.000  C
  H320     1.0000 0.37130  0.67860  0.66300  Biso   1.000  H
  C382     1.0000 0.37880  0.65200  0.23400  Biso   1.000  C
  H321     1.0000 0.38310  0.67350  0.26130  Biso   1.000  H
  C383     1.0000 0.30630  0.86790  0.34900  Biso   1.000  C
  H322     1.0000 0.31810  0.83920  0.33200  Biso   1.000  H
  C384     1.0000 0.31680  0.70170  0.12610  Biso   1.000  C
  H323     1.0000 0.31430  0.68060  0.09920  Biso   1.000  H
  C385     1.0000 0.33530  0.66440  0.60350  Biso   1.000  C
  H324     1.0000 0.31650  0.63470  0.61080  Biso   1.000  H
  C386     1.0000 0.40070  0.57960  0.22680  Biso   1.000  C
  H325     1.0000 0.41980  0.55270  0.24930  Biso   1.000  H
  C387     1.0000 0.56520  0.90700  0.43690  Biso   1.000  C
  H326     1.0000 0.54150  0.88240  0.41900  Biso   1.000  H
  H327     1.0000 0.58440  0.86070  0.43710  Biso   1.000  H
  H328     1.0000 0.57010  0.97000  0.42660  Biso   1.000  H
  C388     1.0000 0.42060  0.98110  0.27840  Biso   1.000  C
  C389     1.0000 0.44050  0.94260  0.31950  Biso   1.000  C
  H329     1.0000 0.46340  0.97010  0.33520  Biso   1.000  H
  C390     1.0000 0.28580  0.95280  0.33590  Biso   1.000  C
  H330     1.0000 0.28310  0.97990  0.30980  Biso   1.000  H
  C391     1.0000 0.38490  0.94340  0.25630  Biso   1.000  C
  C392     1.0000 0.43530  0.06050  0.26140  Biso   1.000  C
  H331     1.0000 0.45890  0.08500  0.27610  Biso   1.000  H
  C393     1.0000 0.51900  0.46040  0.39920  Biso   1.000  C
  H332     1.0000 0.50190  0.48550  0.37320  Biso   1.000  H
  H333     1.0000 0.51010  0.39770  0.40550  Biso   1.000  H
  H334     1.0000 0.54310  0.45150  0.39680  Biso   1.000  H
  C394     1.0000 0.39540  0.54460  0.18650  Biso   1.000  C
  H335     1.0000 0.41070  0.49530  0.18230  Biso   1.000  H
  C395     1.0000 0.36550  0.98760  0.21690  Biso   1.000  C
  H336     1.0000 0.34200  0.96450  0.20090  Biso   1.000  H
  C396     1.0000 0.38120  0.06370  0.20240  Biso   1.000  C
  H337     1.0000 0.36810  0.09130  0.17630  Biso   1.000  H
  C397     1.0000 0.41530  0.10040  0.22450  Biso   1.000  C
  H338     1.0000 0.42480  0.15370  0.21400  Biso   1.000  H
  C398     1.0000 0.63091  0.52500  0.50450  Biso   1.000  C
  C399     1.0000 0.62669  0.47270  0.56390  Biso   1.000  C
  N45      1.0000 0.66151  0.50750  0.57028  Biso   1.000  N
  H339     1.0000 0.67910  0.50880  0.59430  Biso   1.000  H
  N46      1.0000 0.66500  0.54010  0.53393  Biso   1.000  N
  C400     1.0000 0.62474  0.55470  0.46140  Biso   1.000  C
  H340     1.0000 0.64740  0.58110  0.45940  Biso   1.000  H
  H341     1.0000 0.60570  0.60460  0.45300  Biso   1.000  H
  H342     1.0000 0.61710  0.49800  0.44330  Biso   1.000  H
  C401     1.0000 0.61700  0.43000  0.59960  Biso   1.000  C
  H343     1.0000 0.63810  0.43550  0.62510  Biso   1.000  H
  H344     1.0000 0.61030  0.36130  0.59410  Biso   1.000  H
  H345     1.0000 0.59630  0.46590  0.60260  Biso   1.000  H
  C402     1.0000 0.23856  0.01360  0.49100  Biso   1.000  C
  O71      1.0000 0.21854  0.08910  0.47642  Biso   1.000  O
  O72      1.0000 0.24274  0.97930  0.52670  Biso   1.000  O
  C403     1.0000 0.63249  0.98100  0.51840  Biso   1.000  C
  H346     1.0000 0.63110  0.03450  0.49880  Biso   1.000  H
  H347     1.0000 0.64590  0.00570  0.54640  Biso   1.000  H
  C404     1.0000 0.65354  0.89740  0.50930  Biso   1.000  C
  C405     1.0000 0.66682  0.88960  0.47650  Biso   1.000  C
  C406     1.0000 0.66563  0.81080  0.53330  Biso   1.000  C
  N47      1.0000 0.68517  0.80080  0.48145  Biso   1.000  N
  H348     1.0000 0.69580  0.77870  0.46460  Biso   1.000  H
  N48      1.0000 0.68469  0.75220  0.51572  Biso   1.000  N
  C407     1.0000 0.66348  0.95560  0.44000  Biso   1.000  C
  H349     1.0000 0.64990  0.01440  0.44170  Biso   1.000  H
  H350     1.0000 0.65050  0.92100  0.41440  Biso   1.000  H
  H351     1.0000 0.68790  0.97380  0.44050  Biso   1.000  H
  C408     1.0000 0.65880  0.78180  0.57270  Biso   1.000  C
  H352     1.0000 0.67040  0.71900  0.58240  Biso   1.000  H
  H353     1.0000 0.63240  0.77640  0.56700  Biso   1.000  H
  H354     1.0000 0.66900  0.83140  0.59380  Biso   1.000  H
  Co13     1.0000 0.99039  0.68455  0.95786  Biso   1.000  Co
  Co14     1.0000 0.71025  0.61798  0.53267  Biso   1.000  Co
  O73      1.0000 0.73787  0.63110  0.59969  Biso   1.000  O
  O74      1.0000 0.78171  0.66430  0.01576  Biso   1.000  O
  O75      1.0000 0.88150  0.71410  0.95806  Biso   1.000  O
  H355     1.0000 0.90180  0.70120  0.95600  Biso   1.000  H
  O76      1.0000 0.77608  0.61950  0.67904  Biso   1.000  O
  H356     1.0000 0.75950  0.60660  0.65680  Biso   1.000  H
  O77      1.0000 0.97577  0.62390  0.90111  Biso   1.000  O
  O78      1.0000 0.95133  0.67850  0.98262  Biso   1.000  O
  N49      1.0000 0.04400  0.58060  0.03132  Biso   1.000  N
  H357     1.0000 0.02910  0.58680  0.04520  Biso   1.000  H
  O79      1.0000 0.98368  0.65470  0.05005  Biso   1.000  O
  O80      1.0000 0.93656  0.74170  0.89271  Biso   1.000  O
  O81      1.0000 0.76261  0.70180  0.55830  Biso   1.000  O
  C409     1.0000 0.79321  0.72580  0.63077  Biso   1.000  C
  N50      1.0000 0.03429  0.60170  0.99014  Biso   1.000  N
  O82      1.0000 0.87802  0.75270  0.82741  Biso   1.000  O
  H358     1.0000 0.89270  0.76720  0.85070  Biso   1.000  H
  C410     1.0000 0.06472  0.58100  0.98040  Biso   1.000  C
  C411     1.0000 0.81837  0.76790  0.97180  Biso   1.000  C
  H359     1.0000 0.80260  0.81110  0.98130  Biso   1.000  H
  H360     1.0000 0.82380  0.80210  0.94940  Biso   1.000  H
  C412     1.0000 0.77918  0.62610  0.97830  Biso   1.000  C
  C413     1.0000 0.76323  0.68270  0.59514  Biso   1.000  C
  C414     1.0000 0.83333  0.68350  0.74960  Biso   1.000  C
  H361     1.0000 0.82930  0.73600  0.76710  Biso   1.000  H
  H362     1.0000 0.81430  0.63350  0.74670  Biso   1.000  H
  N51      1.0000 0.01030  0.82320  0.95951  Biso   1.000  N
  C415     1.0000 0.85470  0.75250  0.00790  Biso   1.000  C
  C416     1.0000 0.95432  0.67600  0.02140  Biso   1.000  C
  C417     1.0000 0.92026  0.70370  0.03100  Biso   1.000  C
  C418     1.0000 0.88537  0.72330  0.99880  Biso   1.000  C
  C419     1.0000 0.94810  0.67060  0.87850  Biso   1.000  C
  C420     1.0000 0.06708  0.04730  0.00050  Biso   1.000  C
  H363     1.0000 0.05700  0.07230  0.02120  Biso   1.000  H
  H364     1.0000 0.06680  0.10170  0.98160  Biso   1.000  H
  C421     1.0000 0.04172  0.96630  0.97570  Biso   1.000  C
  C422     1.0000 0.79839  0.69140  0.67270  Biso   1.000  C
  C423     1.0000 0.85866  0.77280  0.05010  Biso   1.000  C
  C424     1.0000 0.79643  0.67320  0.95370  Biso   1.000  C
  C425     1.0000 0.77294  0.54300  0.90100  Biso   1.000  C
  N52      1.0000 0.00339  0.88160  0.92570  Biso   1.000  N
  H365     1.0000 0.98850  0.86550  0.90110  Biso   1.000  H
  C426     1.0000 0.84990  0.80540  0.70070  Biso   1.000  C
  C427     1.0000 0.03333  0.87630  0.99050  Biso   1.000  C
  C428     1.0000 0.79282  0.63210  0.91380  Biso   1.000  C
  C429     1.0000 0.75518  0.49820  0.92630  Biso   1.000  C
  H366     1.0000 0.74150  0.44040  0.91720  Biso   1.000  H
  C430     1.0000 0.92644  0.63300  0.83590  Biso   1.000  C
  C431     1.0000 0.87080  0.63700  0.77260  Biso   1.000  C
  C432     1.0000 0.82729  0.72670  0.70674  Biso   1.000  C
  C433     1.0000 0.89320  0.75080  0.08380  Biso   1.000  C
  C434     1.0000 0.07860  0.54960  0.04800  Biso   1.000  C
  C435     1.0000 0.80999  0.67580  0.88690  Biso   1.000  C
  H367     1.0000 0.82370  0.73400  0.89500  Biso   1.000  H
  C436     1.0000 0.82990  0.81740  0.06270  Biso   1.000  C
  H368     1.0000 0.80720  0.83400  0.04230  Biso   1.000  H
  C437     1.0000 0.89187  0.67360  0.81170  Biso   1.000  C
  C438     1.0000 0.10658  0.01680  0.02260  Biso   1.000  C
  C439     1.0000 0.75769  0.53810  0.96410  Biso   1.000  C
  C440     1.0000 0.09620  0.52320  0.09320  Biso   1.000  C
  H369     1.0000 0.07860  0.53330  0.10730  Biso   1.000  H
  H370     1.0000 0.10380  0.45480  0.09560  Biso   1.000  H
  H371     1.0000 0.11760  0.56460  0.10580  Biso   1.000  H
  C441     1.0000 0.89860  0.76970  0.12620  Biso   1.000  C
  H372     1.0000 0.92110  0.75550  0.14740  Biso   1.000  H
  C442     1.0000 0.92283  0.71480  0.07190  Biso   1.000  C
  H373     1.0000 0.94510  0.69780  0.09280  Biso   1.000  H
  C443     1.0000 0.84430  0.84120  0.66020  Biso   1.000  C
  C444     1.0000 0.86680  0.91580  0.65260  Biso   1.000  C
  H374     1.0000 0.86270  0.93840  0.62550  Biso   1.000  H
  C445     1.0000 0.09324  0.54720  0.01560  Biso   1.000  C
  C446     1.0000 0.04760  0.83930  0.03570  Biso   1.000  C
  H375     1.0000 0.03720  0.77500  0.03710  Biso   1.000  H
  H376     1.0000 0.07430  0.83460  0.04520  Biso   1.000  H
  H377     1.0000 0.04030  0.88490  0.05320  Biso   1.000  H
  C447     1.0000 0.76890  0.50160  0.86170  Biso   1.000  C
  H378     1.0000 0.75500  0.44390  0.85290  Biso   1.000  H
  C448     1.0000 0.02190  0.96670  0.93400  Biso   1.000  C
  C449     1.0000 0.86890  0.81040  0.13510  Biso   1.000  C
  H379     1.0000 0.87130  0.82140  0.16300  Biso   1.000  H
  C450     1.0000 0.87880  0.84800  0.73400  Biso   1.000  C
  H380     1.0000 0.88310  0.82650  0.76130  Biso   1.000  H
  C451     1.0000 0.80630  0.63210  0.84900  Biso   1.000  C
  H381     1.0000 0.81810  0.66080  0.83200  Biso   1.000  H
  C452     1.0000 0.81680  0.79830  0.62610  Biso   1.000  C
  H382     1.0000 0.81430  0.81940  0.59920  Biso   1.000  H
  C453     1.0000 0.83530  0.83560  0.10350  Biso   1.000  C
  H383     1.0000 0.81650  0.86530  0.11080  Biso   1.000  H
  C454     1.0000 0.90070  0.92040  0.72680  Biso   1.000  C
  H384     1.0000 0.91980  0.94730  0.74930  Biso   1.000  H
  C455     1.0000 0.06520  0.59300  0.93690  Biso   1.000  C
  H385     1.0000 0.04150  0.61760  0.91900  Biso   1.000  H
  H386     1.0000 0.08440  0.63930  0.93710  Biso   1.000  H
  H387     1.0000 0.07010  0.53000  0.92660  Biso   1.000  H
  C456     1.0000 0.92060  0.51890  0.77840  Biso   1.000  C
  C457     1.0000 0.94050  0.55740  0.81950  Biso   1.000  C
  H388     1.0000 0.96340  0.52990  0.83520  Biso   1.000  H
  C458     1.0000 0.78580  0.54720  0.83590  Biso   1.000  C
  H389     1.0000 0.78310  0.52010  0.80980  Biso   1.000  H
  C459     1.0000 0.88490  0.55660  0.75630  Biso   1.000  C
  C460     1.0000 0.93530  0.43950  0.76140  Biso   1.000  C
  H390     1.0000 0.95890  0.41500  0.77610  Biso   1.000  H
  C461     1.0000 0.01900  0.03960  0.89920  Biso   1.000  C
  H391     1.0000 0.00190  0.01450  0.87320  Biso   1.000  H
  H392     1.0000 0.01010  0.10230  0.90550  Biso   1.000  H
  H393     1.0000 0.04310  0.04850  0.89680  Biso   1.000  H
  C462     1.0000 0.89540  0.95540  0.68650  Biso   1.000  C
  H394     1.0000 0.91070  0.00470  0.68230  Biso   1.000  H
  C463     1.0000 0.86550  0.51240  0.71690  Biso   1.000  C
  H395     1.0000 0.84200  0.53550  0.70090  Biso   1.000  H
  C464     1.0000 0.88120  0.43630  0.70240  Biso   1.000  C
  H396     1.0000 0.86810  0.40870  0.67630  Biso   1.000  H
  C465     1.0000 0.91530  0.39960  0.72450  Biso   1.000  C
  H397     1.0000 0.92480  0.34630  0.71400  Biso   1.000  H
  C466     1.0000 0.13091  0.97500  0.00450  Biso   1.000  C
  C467     1.0000 0.12669  0.02730  0.06390  Biso   1.000  C
  N53      1.0000 0.16151  0.99250  0.07028  Biso   1.000  N
  H398     1.0000 0.17910  0.99120  0.09430  Biso   1.000  H
  N54      1.0000 0.16500  0.95990  0.03393  Biso   1.000  N
  C468     1.0000 0.12474  0.94530  0.96140  Biso   1.000  C
  H399     1.0000 0.14740  0.91890  0.95940  Biso   1.000  H
  H400     1.0000 0.10570  0.89540  0.95300  Biso   1.000  H
  H401     1.0000 0.11710  0.00200  0.94330  Biso   1.000  H
  C469     1.0000 0.11700  0.07000  0.09960  Biso   1.000  C
  H402     1.0000 0.13810  0.06450  0.12510  Biso   1.000  H
  H403     1.0000 0.11030  0.13870  0.09410  Biso   1.000  H
  H404     1.0000 0.09630  0.03410  0.10260  Biso   1.000  H
  C470     1.0000 0.73856  0.48640  0.99100  Biso   1.000  C
  O83      1.0000 0.71854  0.41090  0.97642  Biso   1.000  O
  O84      1.0000 0.74274  0.52070  0.02670  Biso   1.000  O
  C471     1.0000 0.13249  0.51900  0.01840  Biso   1.000  C
  H405     1.0000 0.13110  0.46550  0.99880  Biso   1.000  H
  H406     1.0000 0.14590  0.49430  0.04640  Biso   1.000  H
  C472     1.0000 0.15354  0.60260  0.00930  Biso   1.000  C
  C473     1.0000 0.16682  0.61040  0.97650  Biso   1.000  C
  C474     1.0000 0.16563  0.68920  0.03330  Biso   1.000  C
  N55      1.0000 0.18517  0.69920  0.98145  Biso   1.000  N
  H407     1.0000 0.19580  0.72130  0.96460  Biso   1.000  H
  N56      1.0000 0.18469  0.74780  0.01572  Biso   1.000  N
  C475     1.0000 0.16348  0.54440  0.94000  Biso   1.000  C
  H408     1.0000 0.14990  0.48560  0.94170  Biso   1.000  H
  H409     1.0000 0.15050  0.57900  0.91440  Biso   1.000  H
  H410     1.0000 0.18790  0.52620  0.94050  Biso   1.000  H
  C476     1.0000 0.15880  0.71820  0.07270  Biso   1.000  C
  H411     1.0000 0.17040  0.78100  0.08240  Biso   1.000  H
  H412     1.0000 0.13240  0.72360  0.06700  Biso   1.000  H
  H413     1.0000 0.16900  0.66860  0.09380  Biso   1.000  H
  Co15     1.0000 0.49039  0.18455  0.95786  Biso   1.000  Co
  Co16     1.0000 0.21025  0.11798  0.53267  Biso   1.000  Co
  O85      1.0000 0.23787  0.13110  0.59969  Biso   1.000  O
  O86      1.0000 0.28171  0.16430  0.01576  Biso   1.000  O
  O87      1.0000 0.38150  0.21410  0.95806  Biso   1.000  O
  H414     1.0000 0.40180  0.20120  0.95600  Biso   1.000  H
  O88      1.0000 0.27608  0.11950  0.67904  Biso   1.000  O
  H415     1.0000 0.25950  0.10660  0.65680  Biso   1.000  H
  O89      1.0000 0.47577  0.12390  0.90111  Biso   1.000  O
  O90      1.0000 0.45133  0.17850  0.98262  Biso   1.000  O
  N57      1.0000 0.54400  0.08060  0.03132  Biso   1.000  N
  H416     1.0000 0.52910  0.08680  0.04520  Biso   1.000  H
  O91      1.0000 0.48368  0.15470  0.05005  Biso   1.000  O
  O92      1.0000 0.43656  0.24170  0.89271  Biso   1.000  O
  O93      1.0000 0.26261  0.20180  0.55830  Biso   1.000  O
  C477     1.0000 0.29321  0.22580  0.63077  Biso   1.000  C
  N58      1.0000 0.53429  0.10170  0.99014  Biso   1.000  N
  O94      1.0000 0.37802  0.25270  0.82741  Biso   1.000  O
  H417     1.0000 0.39270  0.26720  0.85070  Biso   1.000  H
  C478     1.0000 0.56472  0.08100  0.98040  Biso   1.000  C
  C479     1.0000 0.31837  0.26790  0.97180  Biso   1.000  C
  H418     1.0000 0.30260  0.31110  0.98130  Biso   1.000  H
  H419     1.0000 0.32380  0.30210  0.94940  Biso   1.000  H
  C480     1.0000 0.27918  0.12610  0.97830  Biso   1.000  C
  C481     1.0000 0.26323  0.18270  0.59514  Biso   1.000  C
  C482     1.0000 0.33333  0.18350  0.74960  Biso   1.000  C
  H420     1.0000 0.32930  0.23600  0.76710  Biso   1.000  H
  H421     1.0000 0.31430  0.13350  0.74670  Biso   1.000  H
  N59      1.0000 0.51030  0.32320  0.95951  Biso   1.000  N
  C483     1.0000 0.35470  0.25250  0.00790  Biso   1.000  C
  C484     1.0000 0.45432  0.17600  0.02140  Biso   1.000  C
  C485     1.0000 0.42026  0.20370  0.03100  Biso   1.000  C
  C486     1.0000 0.38537  0.22330  0.99880  Biso   1.000  C
  C487     1.0000 0.44810  0.17060  0.87850  Biso   1.000  C
  C488     1.0000 0.56708  0.54730  0.00050  Biso   1.000  C
  H422     1.0000 0.55700  0.57230  0.02120  Biso   1.000  H
  H423     1.0000 0.56680  0.60170  0.98160  Biso   1.000  H
  C489     1.0000 0.54172  0.46630  0.97570  Biso   1.000  C
  C490     1.0000 0.29839  0.19140  0.67270  Biso   1.000  C
  C491     1.0000 0.35866  0.27280  0.05010  Biso   1.000  C
  C492     1.0000 0.29643  0.17320  0.95370  Biso   1.000  C
  C493     1.0000 0.27294  0.04300  0.90100  Biso   1.000  C
  N60      1.0000 0.50339  0.38160  0.92570  Biso   1.000  N
  H424     1.0000 0.48850  0.36550  0.90110  Biso   1.000  H
  C494     1.0000 0.34990  0.30540  0.70070  Biso   1.000  C
  C495     1.0000 0.53333  0.37630  0.99050  Biso   1.000  C
  C496     1.0000 0.29282  0.13210  0.91380  Biso   1.000  C
  C497     1.0000 0.25518  0.99820  0.92630  Biso   1.000  C
  H425     1.0000 0.24150  0.94040  0.91720  Biso   1.000  H
  C498     1.0000 0.42644  0.13300  0.83590  Biso   1.000  C
  C499     1.0000 0.37080  0.13700  0.77260  Biso   1.000  C
  C500     1.0000 0.32729  0.22670  0.70674  Biso   1.000  C
  C501     1.0000 0.39320  0.25080  0.08380  Biso   1.000  C
  C502     1.0000 0.57860  0.04960  0.04800  Biso   1.000  C
  C503     1.0000 0.30999  0.17580  0.88690  Biso   1.000  C
  H426     1.0000 0.32370  0.23400  0.89500  Biso   1.000  H
  C504     1.0000 0.32990  0.31740  0.06270  Biso   1.000  C
  H427     1.0000 0.30720  0.33400  0.04230  Biso   1.000  H
  C505     1.0000 0.39187  0.17360  0.81170  Biso   1.000  C
  C506     1.0000 0.60658  0.51680  0.02260  Biso   1.000  C
  C507     1.0000 0.25769  0.03810  0.96410  Biso   1.000  C
  C508     1.0000 0.59620  0.02320  0.09320  Biso   1.000  C
  H428     1.0000 0.57860  0.03330  0.10730  Biso   1.000  H
  H429     1.0000 0.60380  0.95480  0.09560  Biso   1.000  H
  H430     1.0000 0.61760  0.06460  0.10580  Biso   1.000  H
  C509     1.0000 0.39860  0.26970  0.12620  Biso   1.000  C
  H431     1.0000 0.42110  0.25550  0.14740  Biso   1.000  H
  C510     1.0000 0.42283  0.21480  0.07190  Biso   1.000  C
  H432     1.0000 0.44510  0.19780  0.09280  Biso   1.000  H
  C511     1.0000 0.34430  0.34120  0.66020  Biso   1.000  C
  C512     1.0000 0.36680  0.41580  0.65260  Biso   1.000  C
  H433     1.0000 0.36270  0.43840  0.62550  Biso   1.000  H
  C513     1.0000 0.59324  0.04720  0.01560  Biso   1.000  C
  C514     1.0000 0.54760  0.33930  0.03570  Biso   1.000  C
  H434     1.0000 0.53720  0.27500  0.03710  Biso   1.000  H
  H435     1.0000 0.57430  0.33460  0.04520  Biso   1.000  H
  H436     1.0000 0.54030  0.38490  0.05320  Biso   1.000  H
  C515     1.0000 0.26890  0.00160  0.86170  Biso   1.000  C
  H437     1.0000 0.25500  0.94390  0.85290  Biso   1.000  H
  C516     1.0000 0.52190  0.46670  0.93400  Biso   1.000  C
  C517     1.0000 0.36890  0.31040  0.13510  Biso   1.000  C
  H438     1.0000 0.37130  0.32140  0.16300  Biso   1.000  H
  C518     1.0000 0.37880  0.34800  0.73400  Biso   1.000  C
  H439     1.0000 0.38310  0.32650  0.76130  Biso   1.000  H
  C519     1.0000 0.30630  0.13210  0.84900  Biso   1.000  C
  H440     1.0000 0.31810  0.16080  0.83200  Biso   1.000  H
  C520     1.0000 0.31680  0.29830  0.62610  Biso   1.000  C
  H441     1.0000 0.31430  0.31940  0.59920  Biso   1.000  H
  C521     1.0000 0.33530  0.33560  0.10350  Biso   1.000  C
  H442     1.0000 0.31650  0.36530  0.11080  Biso   1.000  H
  C522     1.0000 0.40070  0.42040  0.72680  Biso   1.000  C
  H443     1.0000 0.41980  0.44730  0.74930  Biso   1.000  H
  C523     1.0000 0.56520  0.09300  0.93690  Biso   1.000  C
  H444     1.0000 0.54150  0.11760  0.91900  Biso   1.000  H
  H445     1.0000 0.58440  0.13930  0.93710  Biso   1.000  H
  H446     1.0000 0.57010  0.03000  0.92660  Biso   1.000  H
  C524     1.0000 0.42060  0.01890  0.77840  Biso   1.000  C
  C525     1.0000 0.44050  0.05740  0.81950  Biso   1.000  C
  H447     1.0000 0.46340  0.02990  0.83520  Biso   1.000  H
  C526     1.0000 0.28580  0.04720  0.83590  Biso   1.000  C
  H448     1.0000 0.28310  0.02010  0.80980  Biso   1.000  H
  C527     1.0000 0.38490  0.05660  0.75630  Biso   1.000  C
  C528     1.0000 0.43530  0.93950  0.76140  Biso   1.000  C
  H449     1.0000 0.45890  0.91500  0.77610  Biso   1.000  H
  C529     1.0000 0.51900  0.53960  0.89920  Biso   1.000  C
  H450     1.0000 0.50190  0.51450  0.87320  Biso   1.000  H
  H451     1.0000 0.51010  0.60230  0.90550  Biso   1.000  H
  H452     1.0000 0.54310  0.54850  0.89680  Biso   1.000  H
  C530     1.0000 0.39540  0.45540  0.68650  Biso   1.000  C
  H453     1.0000 0.41070  0.50470  0.68230  Biso   1.000  H
  C531     1.0000 0.36550  0.01240  0.71690  Biso   1.000  C
  H454     1.0000 0.34200  0.03550  0.70090  Biso   1.000  H
  C532     1.0000 0.38120  0.93630  0.70240  Biso   1.000  C
  H455     1.0000 0.36810  0.90870  0.67630  Biso   1.000  H
  C533     1.0000 0.41530  0.89960  0.72450  Biso   1.000  C
  H456     1.0000 0.42480  0.84630  0.71400  Biso   1.000  H
  C534     1.0000 0.63091  0.47500  0.00450  Biso   1.000  C
  C535     1.0000 0.62669  0.52730  0.06390  Biso   1.000  C
  N61      1.0000 0.66151  0.49250  0.07028  Biso   1.000  N
  H457     1.0000 0.67910  0.49120  0.09430  Biso   1.000  H
  N62      1.0000 0.66500  0.45990  0.03393  Biso   1.000  N
  C536     1.0000 0.62474  0.44530  0.96140  Biso   1.000  C
  H458     1.0000 0.64740  0.41890  0.95940  Biso   1.000  H
  H459     1.0000 0.60570  0.39540  0.95300  Biso   1.000  H
  H460     1.0000 0.61710  0.50200  0.94330  Biso   1.000  H
  C537     1.0000 0.61700  0.57000  0.09960  Biso   1.000  C
  H461     1.0000 0.63810  0.56450  0.12510  Biso   1.000  H
  H462     1.0000 0.61030  0.63870  0.09410  Biso   1.000  H
  H463     1.0000 0.59630  0.53410  0.10260  Biso   1.000  H
  C538     1.0000 0.23856  0.98640  0.99100  Biso   1.000  C
  O95      1.0000 0.21854  0.91090  0.97642  Biso   1.000  O
  O96      1.0000 0.24274  0.02070  0.02670  Biso   1.000  O
  C539     1.0000 0.63249  0.01900  0.01840  Biso   1.000  C
  H464     1.0000 0.63110  0.96550  0.99880  Biso   1.000  H
  H465     1.0000 0.64590  0.99430  0.04640  Biso   1.000  H
  C540     1.0000 0.65354  0.10260  0.00930  Biso   1.000  C
  C541     1.0000 0.66682  0.11040  0.97650  Biso   1.000  C
  C542     1.0000 0.66563  0.18920  0.03330  Biso   1.000  C
  N63      1.0000 0.68517  0.19920  0.98145  Biso   1.000  N
  H466     1.0000 0.69580  0.22130  0.96460  Biso   1.000  H
  N64      1.0000 0.68469  0.24780  0.01572  Biso   1.000  N
  C543     1.0000 0.66348  0.04440  0.94000  Biso   1.000  C
  H467     1.0000 0.64990  0.98560  0.94170  Biso   1.000  H
  H468     1.0000 0.65050  0.07900  0.91440  Biso   1.000  H
  H469     1.0000 0.68790  0.02620  0.94050  Biso   1.000  H
  C544     1.0000 0.65880  0.21820  0.07270  Biso   1.000  C
  H470     1.0000 0.67040  0.28100  0.08240  Biso   1.000  H
  H471     1.0000 0.63240  0.22360  0.06700  Biso   1.000  H
  H472     1.0000 0.66900  0.16860  0.09380  Biso   1.000  H
