data_FUYZAB_ion_b
_audit_creation_date              2014-07-02
_audit_creation_method            'Materials Studio'
_symmetry_space_group_name_H-M    'P1'
_symmetry_Int_Tables_number       1
_symmetry_cell_setting            triclinic
loop_
_symmetry_equiv_pos_as_xyz
  x,y,z
_cell_length_a                    20.3190
_cell_length_b                    20.3190
_cell_length_c                    18.2339
_cell_angle_alpha                 90.0000
_cell_angle_beta                  90.0000
_cell_angle_gamma                 90.0000
loop_
_atom_site_label
_atom_site_type_symbol
_atom_site_fract_x
_atom_site_fract_y
_atom_site_fract_z
_atom_site_U_iso_or_equiv
_atom_site_adp_type
_atom_site_occupancy
Mo1    Mo    0.51343   0.00161   0.79039   0.00000  Uiso   1.00
Mo2    Mo    0.62981   0.98657   0.85007   0.00000  Uiso   1.00
Mo3    Mo    0.67263   0.07359   0.00559   0.00000  Uiso   1.00
Mo4    Mo    0.58778   0.15487   0.06254   0.00000  Uiso   1.00
Mo5    Mo    0.43035   0.17642   0.98691   0.00000  Uiso   1.00
Mo6    Mo    0.40269   0.11229   0.86789   0.00000  Uiso   1.00
Mn7    Mn    0.50553   0.28786   0.84320   0.00000  Uiso   1.00
P8     P     0.56410   0.14373   0.87755   0.00000  Uiso   1.00
P9     P     0.41947   0.10167   0.68433   0.00000  Uiso   1.00
P10    P     0.77926   0.05377   0.86932   0.00000  Uiso   1.00
P11    P     0.52723   0.30341   0.01963   0.00000  Uiso   1.00
C12    C     0.36390   0.82110   0.35390   0.00000  Uiso   1.00
H13    H     0.35720   0.84290   0.40060   0.00000  Uiso   1.00
H14    H     0.37010   0.77450   0.36350   0.00000  Uiso   1.00
C15    C     0.30370   0.83000   0.30750   0.00000  Uiso   1.00
H16    H     0.31120   0.80900   0.26050   0.00000  Uiso   1.00
H17    H     0.26720   0.80750   0.33100   0.00000  Uiso   1.00
C18    C     0.21300   0.74940   0.12850   0.00000  Uiso   1.00
H19    H     0.19790   0.70410   0.12800   0.00000  Uiso   1.00
H20    H     0.19690   0.76990   0.17310   0.00000  Uiso   1.00
C21    C     0.96450   0.99860   0.98740   0.00000  Uiso   1.00
H22    H     0.93600   0.01380   0.02650   0.00000  Uiso   1.00
H23    H     0.95290   0.95340   0.97620   0.00000  Uiso   1.00
N24    N     0.42060   0.84600   0.32120   0.00000  Uiso   1.00
H25    H     0.41840   0.86420   0.27870   0.00000  Uiso   1.00
H26    H     0.45770   0.84330   0.34360   0.00000  Uiso   1.00
N27    N     0.28500   0.89800   0.29480   0.00000  Uiso   1.00
H28    H     0.30800   0.92940   0.31350   0.00000  Uiso   1.00
H29    H     0.25090   0.90690   0.26870   0.00000  Uiso   1.00
N30    N     0.18560   0.78460   0.06410   0.00000  Uiso   1.00
H31    H     0.21150   0.80240   0.03260   0.00000  Uiso   1.00
H32    H     0.14360   0.78710   0.05830   0.00000  Uiso   1.00
N33    N     0.95440   0.04000   0.92140   0.00000  Uiso   1.00
H34    H     0.98690   0.06150   0.90290   0.00000  Uiso   1.00
H35    H     0.91610   0.04260   0.90160   0.00000  Uiso   1.00
O36    O     0.54069   0.98009   0.89174   0.00000  Uiso   1.00
O37    O     0.43459   0.08147   0.96429   0.00000  Uiso   1.00
O38    O     0.64328   0.90867   0.82520   0.00000  Uiso   1.00
O39    O     0.80802   0.10541   0.81914   0.00000  Uiso   1.00
O40    O     0.62198   0.09714   0.88979   0.00000  Uiso   1.00
O41    O     0.58060   0.06113   0.03506   0.00000  Uiso   1.00
O42    O     0.60119   0.03012   0.75857   0.00000  Uiso   1.00
O43    O     0.66347   0.98551   0.95381   0.00000  Uiso   1.00
O44    O     0.42600   0.20468   0.88422   0.00000  Uiso   1.00
O45    O     0.35380   0.18536   0.02084   0.00000  Uiso   1.00
O46    O     0.50380   0.92648   0.75376   0.00000  Uiso   1.00
O47    O     0.47553   0.05136   0.70049   0.00000  Uiso   1.00
O48    O     0.71289   0.04693   0.08023   0.00000  Uiso   1.00
O49    O     0.60800   0.15041   0.15151   0.00000  Uiso   1.00
O50    O     0.67152   0.16908   0.01404   0.00000  Uiso   1.00
O51    O     0.75160   0.08928   0.93943   0.00000  Uiso   1.00
O52    O     0.55330   0.32016   0.94272   0.00000  Uiso   1.00
O53    O     0.50876   0.10310   0.83976   0.00000  Uiso   1.00
O54    O     0.41730   0.01369   0.83358   0.00000  Uiso   1.00
O55    O     0.39865   0.13457   0.75757   0.00000  Uiso   1.00
O56    O     0.57831   0.20373   0.83130   0.00000  Uiso   1.00
O57    O     0.44780   0.15537   0.63549   0.00000  Uiso   1.00
O58    O     0.36094   0.06850   0.64921   0.00000  Uiso   1.00
O59    O     0.46059   0.26865   0.01152   0.00000  Uiso   1.00
O60    O     0.82923   0.00195   0.89460   0.00000  Uiso   1.00
O61    O     0.53884   0.16642   0.95390   0.00000  Uiso   1.00
O62    O     0.48351   0.15292   0.08061   0.00000  Uiso   1.00
O63    O     0.57720   0.25541   0.05781   0.00000  Uiso   1.00
O64    O     0.52060   0.36389   0.06630   0.00000  Uiso   1.00
O65    O     0.72244   0.01953   0.82750   0.00000  Uiso   1.00
O66    O     0.32083   0.10903   0.87900   0.00000  Uiso   1.00
O67    O     0.57354   0.35241   0.78435   0.00000  Uiso   1.00
O68    O     0.47260   0.26059   0.73281   0.00000  Uiso   1.00
Mo74   Mo    0.98657   0.49839   0.79039   0.00000  Uiso   1.00
Mo75   Mo    0.87019   0.51343   0.85007   0.00000  Uiso   1.00
Mo76   Mo    0.82737   0.42641   0.00559   0.00000  Uiso   1.00
Mo77   Mo    0.91222   0.34513   0.06254   0.00000  Uiso   1.00
Mo78   Mo    0.06965   0.32358   0.98691   0.00000  Uiso   1.00
Mo79   Mo    0.09731   0.38771   0.86789   0.00000  Uiso   1.00
Mn80   Mn    0.99447   0.21214   0.84320   0.00000  Uiso   1.00
P81    P     0.93590   0.35627   0.87755   0.00000  Uiso   1.00
P82    P     0.08053   0.39833   0.68433   0.00000  Uiso   1.00
P83    P     0.72074   0.44623   0.86932   0.00000  Uiso   1.00
P84    P     0.97277   0.19659   0.01963   0.00000  Uiso   1.00
C85    C     0.13610   0.67890   0.35390   0.00000  Uiso   1.00
H86    H     0.14280   0.65710   0.40060   0.00000  Uiso   1.00
H87    H     0.12990   0.72550   0.36350   0.00000  Uiso   1.00
C88    C     0.19630   0.67000   0.30750   0.00000  Uiso   1.00
H89    H     0.18880   0.69100   0.26050   0.00000  Uiso   1.00
H90    H     0.23280   0.69250   0.33100   0.00000  Uiso   1.00
C91    C     0.28700   0.75060   0.12850   0.00000  Uiso   1.00
H92    H     0.30210   0.79590   0.12800   0.00000  Uiso   1.00
H93    H     0.30310   0.73010   0.17310   0.00000  Uiso   1.00
C94    C     0.53550   0.50140   0.98740   0.00000  Uiso   1.00
H95    H     0.56400   0.48620   0.02650   0.00000  Uiso   1.00
H96    H     0.54710   0.54660   0.97620   0.00000  Uiso   1.00
N97    N     0.07940   0.65400   0.32120   0.00000  Uiso   1.00
H98    H     0.08160   0.63580   0.27870   0.00000  Uiso   1.00
H99    H     0.04230   0.65670   0.34360   0.00000  Uiso   1.00
N100   N     0.21500   0.60200   0.29480   0.00000  Uiso   1.00
H101   H     0.19200   0.57060   0.31350   0.00000  Uiso   1.00
H102   H     0.24910   0.59310   0.26870   0.00000  Uiso   1.00
N103   N     0.31440   0.71540   0.06410   0.00000  Uiso   1.00
H104   H     0.28850   0.69760   0.03260   0.00000  Uiso   1.00
H105   H     0.35640   0.71290   0.05830   0.00000  Uiso   1.00
N106   N     0.54560   0.46000   0.92140   0.00000  Uiso   1.00
H107   H     0.51310   0.43850   0.90290   0.00000  Uiso   1.00
H108   H     0.58390   0.45740   0.90160   0.00000  Uiso   1.00
O109   O     0.95931   0.51991   0.89174   0.00000  Uiso   1.00
O110   O     0.06541   0.41853   0.96429   0.00000  Uiso   1.00
O111   O     0.85672   0.59133   0.82520   0.00000  Uiso   1.00
O112   O     0.69198   0.39459   0.81914   0.00000  Uiso   1.00
O113   O     0.87802   0.40286   0.88979   0.00000  Uiso   1.00
O114   O     0.91940   0.43887   0.03506   0.00000  Uiso   1.00
O115   O     0.89881   0.46988   0.75857   0.00000  Uiso   1.00
O116   O     0.83653   0.51449   0.95381   0.00000  Uiso   1.00
O117   O     0.07400   0.29532   0.88422   0.00000  Uiso   1.00
O118   O     0.14620   0.31464   0.02084   0.00000  Uiso   1.00
O119   O     0.99620   0.57352   0.75376   0.00000  Uiso   1.00
O120   O     0.02447   0.44864   0.70049   0.00000  Uiso   1.00
O121   O     0.78711   0.45307   0.08023   0.00000  Uiso   1.00
O122   O     0.89200   0.34959   0.15151   0.00000  Uiso   1.00
O123   O     0.82848   0.33092   0.01404   0.00000  Uiso   1.00
O124   O     0.74840   0.41072   0.93943   0.00000  Uiso   1.00
O125   O     0.94670   0.17984   0.94272   0.00000  Uiso   1.00
O126   O     0.99124   0.39690   0.83976   0.00000  Uiso   1.00
O127   O     0.08270   0.48631   0.83358   0.00000  Uiso   1.00
O128   O     0.10135   0.36543   0.75757   0.00000  Uiso   1.00
O129   O     0.92169   0.29627   0.83130   0.00000  Uiso   1.00
O130   O     0.05220   0.34463   0.63549   0.00000  Uiso   1.00
O131   O     0.13906   0.43150   0.64921   0.00000  Uiso   1.00
O132   O     0.03941   0.23135   0.01152   0.00000  Uiso   1.00
O133   O     0.67077   0.49805   0.89460   0.00000  Uiso   1.00
O134   O     0.96116   0.33358   0.95390   0.00000  Uiso   1.00
O135   O     0.01649   0.34708   0.08061   0.00000  Uiso   1.00
O136   O     0.92280   0.24459   0.05781   0.00000  Uiso   1.00
O137   O     0.97940   0.13611   0.06630   0.00000  Uiso   1.00
O138   O     0.77756   0.48047   0.82750   0.00000  Uiso   1.00
O139   O     0.17917   0.39097   0.87900   0.00000  Uiso   1.00
O140   O     0.92646   0.14759   0.78435   0.00000  Uiso   1.00
O141   O     0.02740   0.23941   0.73281   0.00000  Uiso   1.00
Mo147  Mo    0.99839   0.01343   0.29039   0.00000  Uiso   1.00
Mo148  Mo    0.01343   0.12981   0.35007   0.00000  Uiso   1.00
Mo149  Mo    0.92641   0.17263   0.50559   0.00000  Uiso   1.00
Mo150  Mo    0.84513   0.08778   0.56254   0.00000  Uiso   1.00
Mo151  Mo    0.82358   0.93035   0.48691   0.00000  Uiso   1.00
Mo152  Mo    0.88771   0.90269   0.36789   0.00000  Uiso   1.00
Mn153  Mn    0.71214   0.00553   0.34320   0.00000  Uiso   1.00
P154   P     0.85627   0.06410   0.37755   0.00000  Uiso   1.00
P155   P     0.89833   0.91947   0.18433   0.00000  Uiso   1.00
P156   P     0.94623   0.27926   0.36932   0.00000  Uiso   1.00
P157   P     0.69659   0.02723   0.51963   0.00000  Uiso   1.00
C158   C     0.17890   0.86390   0.85390   0.00000  Uiso   1.00
H159   H     0.15710   0.85720   0.90060   0.00000  Uiso   1.00
H160   H     0.22550   0.87010   0.86350   0.00000  Uiso   1.00
C161   C     0.17000   0.80370   0.80750   0.00000  Uiso   1.00
H162   H     0.19100   0.81120   0.76050   0.00000  Uiso   1.00
H163   H     0.19250   0.76720   0.83100   0.00000  Uiso   1.00
C164   C     0.25060   0.71300   0.62850   0.00000  Uiso   1.00
H165   H     0.29590   0.69790   0.62800   0.00000  Uiso   1.00
H166   H     0.23010   0.69690   0.67310   0.00000  Uiso   1.00
C167   C     0.00140   0.46450   0.48740   0.00000  Uiso   1.00
H168   H     0.98620   0.43600   0.52650   0.00000  Uiso   1.00
H169   H     0.04660   0.45290   0.47620   0.00000  Uiso   1.00
N170   N     0.15400   0.92060   0.82120   0.00000  Uiso   1.00
H171   H     0.13580   0.91840   0.77870   0.00000  Uiso   1.00
H172   H     0.15670   0.95770   0.84360   0.00000  Uiso   1.00
N173   N     0.10200   0.78500   0.79480   0.00000  Uiso   1.00
H174   H     0.07060   0.80800   0.81350   0.00000  Uiso   1.00
H175   H     0.09310   0.75090   0.76870   0.00000  Uiso   1.00
N176   N     0.21540   0.68560   0.56410   0.00000  Uiso   1.00
H177   H     0.19760   0.71150   0.53260   0.00000  Uiso   1.00
H178   H     0.21290   0.64360   0.55830   0.00000  Uiso   1.00
N179   N     0.96000   0.45440   0.42140   0.00000  Uiso   1.00
H180   H     0.93850   0.48690   0.40290   0.00000  Uiso   1.00
H181   H     0.95740   0.41610   0.40160   0.00000  Uiso   1.00
O182   O     0.01991   0.04069   0.39174   0.00000  Uiso   1.00
O183   O     0.91853   0.93459   0.46429   0.00000  Uiso   1.00
O184   O     0.09133   0.14328   0.32520   0.00000  Uiso   1.00
O185   O     0.89459   0.30802   0.31914   0.00000  Uiso   1.00
O186   O     0.90286   0.12198   0.38979   0.00000  Uiso   1.00
O187   O     0.93887   0.08060   0.53506   0.00000  Uiso   1.00
O188   O     0.96988   0.10119   0.25857   0.00000  Uiso   1.00
O189   O     0.01449   0.16347   0.45381   0.00000  Uiso   1.00
O190   O     0.79532   0.92600   0.38422   0.00000  Uiso   1.00
O191   O     0.81464   0.85380   0.52084   0.00000  Uiso   1.00
O192   O     0.07352   0.00380   0.25376   0.00000  Uiso   1.00
O193   O     0.94864   0.97553   0.20049   0.00000  Uiso   1.00
O194   O     0.95307   0.21289   0.58023   0.00000  Uiso   1.00
O195   O     0.84959   0.10800   0.65151   0.00000  Uiso   1.00
O196   O     0.83092   0.17152   0.51404   0.00000  Uiso   1.00
O197   O     0.91072   0.25160   0.43943   0.00000  Uiso   1.00
O198   O     0.67984   0.05330   0.44272   0.00000  Uiso   1.00
O199   O     0.89690   0.00876   0.33976   0.00000  Uiso   1.00
O200   O     0.98631   0.91730   0.33358   0.00000  Uiso   1.00
O201   O     0.86543   0.89865   0.25757   0.00000  Uiso   1.00
O202   O     0.79627   0.07831   0.33130   0.00000  Uiso   1.00
O203   O     0.84463   0.94780   0.13549   0.00000  Uiso   1.00
O204   O     0.93150   0.86094   0.14921   0.00000  Uiso   1.00
O205   O     0.73135   0.96059   0.51152   0.00000  Uiso   1.00
O206   O     0.99805   0.32923   0.39460   0.00000  Uiso   1.00
O207   O     0.83358   0.03884   0.45390   0.00000  Uiso   1.00
O208   O     0.84708   0.98351   0.58061   0.00000  Uiso   1.00
O209   O     0.74459   0.07720   0.55781   0.00000  Uiso   1.00
O210   O     0.63611   0.02060   0.56630   0.00000  Uiso   1.00
O211   O     0.98047   0.22244   0.32750   0.00000  Uiso   1.00
O212   O     0.89097   0.82083   0.37900   0.00000  Uiso   1.00
O213   O     0.64759   0.07354   0.28435   0.00000  Uiso   1.00
O214   O     0.73941   0.97260   0.23281   0.00000  Uiso   1.00
Mo220  Mo    0.50161   0.48657   0.29039   0.00000  Uiso   1.00
Mo221  Mo    0.48657   0.37019   0.35007   0.00000  Uiso   1.00
Mo222  Mo    0.57359   0.32737   0.50559   0.00000  Uiso   1.00
Mo223  Mo    0.65487   0.41222   0.56254   0.00000  Uiso   1.00
Mo224  Mo    0.67642   0.56965   0.48691   0.00000  Uiso   1.00
Mo225  Mo    0.61229   0.59731   0.36789   0.00000  Uiso   1.00
Mn226  Mn    0.78786   0.49447   0.34320   0.00000  Uiso   1.00
P227   P     0.64373   0.43590   0.37755   0.00000  Uiso   1.00
P228   P     0.60167   0.58053   0.18433   0.00000  Uiso   1.00
P229   P     0.55377   0.22074   0.36932   0.00000  Uiso   1.00
P230   P     0.80341   0.47277   0.51963   0.00000  Uiso   1.00
C231   C     0.32110   0.63610   0.85390   0.00000  Uiso   1.00
H232   H     0.34290   0.64280   0.90060   0.00000  Uiso   1.00
H233   H     0.27450   0.62990   0.86350   0.00000  Uiso   1.00
C234   C     0.33000   0.69630   0.80750   0.00000  Uiso   1.00
H235   H     0.30900   0.68880   0.76050   0.00000  Uiso   1.00
H236   H     0.30750   0.73280   0.83100   0.00000  Uiso   1.00
C237   C     0.24940   0.78700   0.62850   0.00000  Uiso   1.00
H238   H     0.20410   0.80210   0.62800   0.00000  Uiso   1.00
H239   H     0.26990   0.80310   0.67310   0.00000  Uiso   1.00
C240   C     0.49860   0.03550   0.48740   0.00000  Uiso   1.00
H241   H     0.51380   0.06400   0.52650   0.00000  Uiso   1.00
H242   H     0.45340   0.04710   0.47620   0.00000  Uiso   1.00
N243   N     0.34600   0.57940   0.82120   0.00000  Uiso   1.00
H244   H     0.36420   0.58160   0.77870   0.00000  Uiso   1.00
H245   H     0.34330   0.54230   0.84360   0.00000  Uiso   1.00
N246   N     0.39800   0.71500   0.79480   0.00000  Uiso   1.00
H247   H     0.42940   0.69200   0.81350   0.00000  Uiso   1.00
H248   H     0.40690   0.74910   0.76870   0.00000  Uiso   1.00
N249   N     0.28460   0.81440   0.56410   0.00000  Uiso   1.00
H250   H     0.30240   0.78850   0.53260   0.00000  Uiso   1.00
H251   H     0.28710   0.85640   0.55830   0.00000  Uiso   1.00
N252   N     0.54000   0.04560   0.42140   0.00000  Uiso   1.00
H253   H     0.56150   0.01310   0.40290   0.00000  Uiso   1.00
H254   H     0.54260   0.08390   0.40160   0.00000  Uiso   1.00
O255   O     0.48009   0.45931   0.39174   0.00000  Uiso   1.00
O256   O     0.58147   0.56541   0.46429   0.00000  Uiso   1.00
O257   O     0.40867   0.35672   0.32520   0.00000  Uiso   1.00
O258   O     0.60541   0.19198   0.31914   0.00000  Uiso   1.00
O259   O     0.59714   0.37802   0.38979   0.00000  Uiso   1.00
O260   O     0.56113   0.41940   0.53506   0.00000  Uiso   1.00
O261   O     0.53012   0.39881   0.25857   0.00000  Uiso   1.00
O262   O     0.48551   0.33653   0.45381   0.00000  Uiso   1.00
O263   O     0.70468   0.57400   0.38422   0.00000  Uiso   1.00
O264   O     0.68536   0.64620   0.52084   0.00000  Uiso   1.00
O265   O     0.42648   0.49620   0.25376   0.00000  Uiso   1.00
O266   O     0.55136   0.52447   0.20049   0.00000  Uiso   1.00
O267   O     0.54693   0.28711   0.58023   0.00000  Uiso   1.00
O268   O     0.65041   0.39200   0.65151   0.00000  Uiso   1.00
O269   O     0.66908   0.32848   0.51404   0.00000  Uiso   1.00
O270   O     0.58928   0.24840   0.43943   0.00000  Uiso   1.00
O271   O     0.82016   0.44670   0.44272   0.00000  Uiso   1.00
O272   O     0.60310   0.49124   0.33976   0.00000  Uiso   1.00
O273   O     0.51369   0.58270   0.33358   0.00000  Uiso   1.00
O274   O     0.63457   0.60135   0.25757   0.00000  Uiso   1.00
O275   O     0.70373   0.42169   0.33130   0.00000  Uiso   1.00
O276   O     0.65537   0.55220   0.13549   0.00000  Uiso   1.00
O277   O     0.56850   0.63906   0.14921   0.00000  Uiso   1.00
O278   O     0.76865   0.53941   0.51152   0.00000  Uiso   1.00
O279   O     0.50195   0.17077   0.39460   0.00000  Uiso   1.00
O280   O     0.66642   0.46116   0.45390   0.00000  Uiso   1.00
O281   O     0.65292   0.51649   0.58061   0.00000  Uiso   1.00
O282   O     0.75541   0.42280   0.55781   0.00000  Uiso   1.00
O283   O     0.86389   0.47940   0.56630   0.00000  Uiso   1.00
O284   O     0.51953   0.27756   0.32750   0.00000  Uiso   1.00
O285   O     0.60903   0.67917   0.37900   0.00000  Uiso   1.00
O286   O     0.85241   0.42646   0.28435   0.00000  Uiso   1.00
O287   O     0.76059   0.52740   0.23281   0.00000  Uiso   1.00
Mo293  Mo    0.48657   0.99839   0.20961   0.00000  Uiso   1.00
Mo294  Mo    0.37019   0.01343   0.14993   0.00000  Uiso   1.00
Mo295  Mo    0.32737   0.92641   0.99441   0.00000  Uiso   1.00
Mo296  Mo    0.41222   0.84513   0.93746   0.00000  Uiso   1.00
Mo297  Mo    0.56965   0.82358   0.01309   0.00000  Uiso   1.00
Mo298  Mo    0.59731   0.88771   0.13211   0.00000  Uiso   1.00
Mn299  Mn    0.49447   0.71214   0.15680   0.00000  Uiso   1.00
P300   P     0.43590   0.85627   0.12245   0.00000  Uiso   1.00
P301   P     0.58053   0.89833   0.31567   0.00000  Uiso   1.00
P302   P     0.22074   0.94623   0.13068   0.00000  Uiso   1.00
P303   P     0.47277   0.69659   0.98037   0.00000  Uiso   1.00
C304   C     0.63610   0.17890   0.64610   0.00000  Uiso   1.00
H305   H     0.64280   0.15710   0.59940   0.00000  Uiso   1.00
H306   H     0.62990   0.22550   0.63650   0.00000  Uiso   1.00
C307   C     0.69630   0.17000   0.69250   0.00000  Uiso   1.00
H308   H     0.68880   0.19100   0.73950   0.00000  Uiso   1.00
H309   H     0.73280   0.19250   0.66900   0.00000  Uiso   1.00
C310   C     0.78700   0.25060   0.87150   0.00000  Uiso   1.00
H311   H     0.80210   0.29590   0.87200   0.00000  Uiso   1.00
H312   H     0.80310   0.23010   0.82690   0.00000  Uiso   1.00
C313   C     0.03550   0.00140   0.01260   0.00000  Uiso   1.00
H314   H     0.06400   0.98620   0.97350   0.00000  Uiso   1.00
H315   H     0.04710   0.04660   0.02380   0.00000  Uiso   1.00
N316   N     0.57940   0.15400   0.67880   0.00000  Uiso   1.00
H317   H     0.58160   0.13580   0.72130   0.00000  Uiso   1.00
H318   H     0.54230   0.15670   0.65640   0.00000  Uiso   1.00
N319   N     0.71500   0.10200   0.70520   0.00000  Uiso   1.00
H320   H     0.69200   0.07060   0.68650   0.00000  Uiso   1.00
H321   H     0.74910   0.09310   0.73130   0.00000  Uiso   1.00
N322   N     0.81440   0.21540   0.93590   0.00000  Uiso   1.00
H323   H     0.78850   0.19760   0.96740   0.00000  Uiso   1.00
H324   H     0.85640   0.21290   0.94170   0.00000  Uiso   1.00
N325   N     0.04560   0.96000   0.07860   0.00000  Uiso   1.00
H326   H     0.01310   0.93850   0.09710   0.00000  Uiso   1.00
H327   H     0.08390   0.95740   0.09840   0.00000  Uiso   1.00
O328   O     0.45931   0.01991   0.10826   0.00000  Uiso   1.00
O329   O     0.56541   0.91853   0.03571   0.00000  Uiso   1.00
O330   O     0.35672   0.09133   0.17480   0.00000  Uiso   1.00
O331   O     0.19198   0.89459   0.18086   0.00000  Uiso   1.00
O332   O     0.37802   0.90286   0.11021   0.00000  Uiso   1.00
O333   O     0.41940   0.93887   0.96494   0.00000  Uiso   1.00
O334   O     0.39881   0.96988   0.24143   0.00000  Uiso   1.00
O335   O     0.33653   0.01449   0.04619   0.00000  Uiso   1.00
O336   O     0.57400   0.79532   0.11578   0.00000  Uiso   1.00
O337   O     0.64620   0.81464   0.97916   0.00000  Uiso   1.00
O338   O     0.49620   0.07352   0.24624   0.00000  Uiso   1.00
O339   O     0.52447   0.94864   0.29951   0.00000  Uiso   1.00
O340   O     0.28711   0.95307   0.91977   0.00000  Uiso   1.00
O341   O     0.39200   0.84959   0.84849   0.00000  Uiso   1.00
O342   O     0.32848   0.83092   0.98596   0.00000  Uiso   1.00
O343   O     0.24840   0.91072   0.06057   0.00000  Uiso   1.00
O344   O     0.44670   0.67984   0.05728   0.00000  Uiso   1.00
O345   O     0.49124   0.89690   0.16024   0.00000  Uiso   1.00
O346   O     0.58270   0.98631   0.16642   0.00000  Uiso   1.00
O347   O     0.60135   0.86543   0.24243   0.00000  Uiso   1.00
O348   O     0.42169   0.79627   0.16870   0.00000  Uiso   1.00
O349   O     0.55220   0.84463   0.36451   0.00000  Uiso   1.00
O350   O     0.63906   0.93150   0.35079   0.00000  Uiso   1.00
O351   O     0.53941   0.73135   0.98848   0.00000  Uiso   1.00
O352   O     0.17077   0.99805   0.10540   0.00000  Uiso   1.00
O353   O     0.46116   0.83358   0.04610   0.00000  Uiso   1.00
O354   O     0.51649   0.84708   0.91939   0.00000  Uiso   1.00
O355   O     0.42280   0.74459   0.94219   0.00000  Uiso   1.00
O356   O     0.47940   0.63611   0.93370   0.00000  Uiso   1.00
O357   O     0.27756   0.98047   0.17250   0.00000  Uiso   1.00
O358   O     0.67917   0.89097   0.12100   0.00000  Uiso   1.00
O359   O     0.42646   0.64759   0.21565   0.00000  Uiso   1.00
O360   O     0.52740   0.73941   0.26719   0.00000  Uiso   1.00
Mo366  Mo    0.01343   0.50161   0.20961   0.00000  Uiso   1.00
Mo367  Mo    0.12981   0.48657   0.14993   0.00000  Uiso   1.00
Mo368  Mo    0.17263   0.57359   0.99441   0.00000  Uiso   1.00
Mo369  Mo    0.08778   0.65487   0.93746   0.00000  Uiso   1.00
Mo370  Mo    0.93035   0.67642   0.01309   0.00000  Uiso   1.00
Mo371  Mo    0.90269   0.61229   0.13211   0.00000  Uiso   1.00
Mn372  Mn    0.00553   0.78786   0.15680   0.00000  Uiso   1.00
P373   P     0.06410   0.64373   0.12245   0.00000  Uiso   1.00
P374   P     0.91947   0.60167   0.31567   0.00000  Uiso   1.00
P375   P     0.27926   0.55377   0.13068   0.00000  Uiso   1.00
P376   P     0.02723   0.80341   0.98037   0.00000  Uiso   1.00
C377   C     0.86390   0.32110   0.64610   0.00000  Uiso   1.00
H378   H     0.85720   0.34290   0.59940   0.00000  Uiso   1.00
H379   H     0.87010   0.27450   0.63650   0.00000  Uiso   1.00
C380   C     0.80370   0.33000   0.69250   0.00000  Uiso   1.00
H381   H     0.81120   0.30900   0.73950   0.00000  Uiso   1.00
H382   H     0.76720   0.30750   0.66900   0.00000  Uiso   1.00
C383   C     0.71300   0.24940   0.87150   0.00000  Uiso   1.00
H384   H     0.69790   0.20410   0.87200   0.00000  Uiso   1.00
H385   H     0.69690   0.26990   0.82690   0.00000  Uiso   1.00
C386   C     0.46450   0.49860   0.01260   0.00000  Uiso   1.00
H387   H     0.43600   0.51380   0.97350   0.00000  Uiso   1.00
H388   H     0.45290   0.45340   0.02380   0.00000  Uiso   1.00
N389   N     0.92060   0.34600   0.67880   0.00000  Uiso   1.00
H390   H     0.91840   0.36420   0.72130   0.00000  Uiso   1.00
H391   H     0.95770   0.34330   0.65640   0.00000  Uiso   1.00
N392   N     0.78500   0.39800   0.70520   0.00000  Uiso   1.00
H393   H     0.80800   0.42940   0.68650   0.00000  Uiso   1.00
H394   H     0.75090   0.40690   0.73130   0.00000  Uiso   1.00
N395   N     0.68560   0.28460   0.93590   0.00000  Uiso   1.00
H396   H     0.71150   0.30240   0.96740   0.00000  Uiso   1.00
H397   H     0.64360   0.28710   0.94170   0.00000  Uiso   1.00
N398   N     0.45440   0.54000   0.07860   0.00000  Uiso   1.00
H399   H     0.48690   0.56150   0.09710   0.00000  Uiso   1.00
H400   H     0.41610   0.54260   0.09840   0.00000  Uiso   1.00
O401   O     0.04069   0.48009   0.10826   0.00000  Uiso   1.00
O402   O     0.93459   0.58147   0.03571   0.00000  Uiso   1.00
O403   O     0.14328   0.40867   0.17480   0.00000  Uiso   1.00
O404   O     0.30802   0.60541   0.18086   0.00000  Uiso   1.00
O405   O     0.12198   0.59714   0.11021   0.00000  Uiso   1.00
O406   O     0.08060   0.56113   0.96494   0.00000  Uiso   1.00
O407   O     0.10119   0.53012   0.24143   0.00000  Uiso   1.00
O408   O     0.16347   0.48551   0.04619   0.00000  Uiso   1.00
O409   O     0.92600   0.70468   0.11578   0.00000  Uiso   1.00
O410   O     0.85380   0.68536   0.97916   0.00000  Uiso   1.00
O411   O     0.00380   0.42648   0.24624   0.00000  Uiso   1.00
O412   O     0.97553   0.55136   0.29951   0.00000  Uiso   1.00
O413   O     0.21289   0.54693   0.91977   0.00000  Uiso   1.00
O414   O     0.10800   0.65041   0.84849   0.00000  Uiso   1.00
O415   O     0.17152   0.66908   0.98596   0.00000  Uiso   1.00
O416   O     0.25160   0.58928   0.06057   0.00000  Uiso   1.00
O417   O     0.05330   0.82016   0.05728   0.00000  Uiso   1.00
O418   O     0.00876   0.60310   0.16024   0.00000  Uiso   1.00
O419   O     0.91730   0.51369   0.16642   0.00000  Uiso   1.00
O420   O     0.89865   0.63457   0.24243   0.00000  Uiso   1.00
O421   O     0.07831   0.70373   0.16870   0.00000  Uiso   1.00
O422   O     0.94780   0.65537   0.36451   0.00000  Uiso   1.00
O423   O     0.86094   0.56850   0.35079   0.00000  Uiso   1.00
O424   O     0.96059   0.76865   0.98848   0.00000  Uiso   1.00
O425   O     0.32923   0.50195   0.10540   0.00000  Uiso   1.00
O426   O     0.03884   0.66642   0.04610   0.00000  Uiso   1.00
O427   O     0.98351   0.65292   0.91939   0.00000  Uiso   1.00
O428   O     0.07720   0.75541   0.94219   0.00000  Uiso   1.00
O429   O     0.02060   0.86389   0.93370   0.00000  Uiso   1.00
O430   O     0.22244   0.51953   0.17250   0.00000  Uiso   1.00
O431   O     0.82083   0.60903   0.12100   0.00000  Uiso   1.00
O432   O     0.07354   0.85241   0.21565   0.00000  Uiso   1.00
O433   O     0.97260   0.76059   0.26719   0.00000  Uiso   1.00
Mo439  Mo    0.00161   0.98657   0.70961   0.00000  Uiso   1.00
Mo440  Mo    0.98657   0.87019   0.64993   0.00000  Uiso   1.00
Mo441  Mo    0.07359   0.82737   0.49441   0.00000  Uiso   1.00
Mo442  Mo    0.15487   0.91222   0.43746   0.00000  Uiso   1.00
Mo443  Mo    0.17642   0.06965   0.51309   0.00000  Uiso   1.00
Mo444  Mo    0.11229   0.09731   0.63211   0.00000  Uiso   1.00
Mn445  Mn    0.28786   0.99447   0.65680   0.00000  Uiso   1.00
P446   P     0.14373   0.93590   0.62245   0.00000  Uiso   1.00
P447   P     0.10167   0.08053   0.81567   0.00000  Uiso   1.00
P448   P     0.05377   0.72074   0.63068   0.00000  Uiso   1.00
P449   P     0.30341   0.97277   0.48037   0.00000  Uiso   1.00
C450   C     0.82110   0.13610   0.14610   0.00000  Uiso   1.00
H451   H     0.84290   0.14280   0.09940   0.00000  Uiso   1.00
H452   H     0.77450   0.12990   0.13650   0.00000  Uiso   1.00
C453   C     0.83000   0.19630   0.19250   0.00000  Uiso   1.00
H454   H     0.80900   0.18880   0.23950   0.00000  Uiso   1.00
H455   H     0.80750   0.23280   0.16900   0.00000  Uiso   1.00
C456   C     0.74940   0.28700   0.37150   0.00000  Uiso   1.00
H457   H     0.70410   0.30210   0.37200   0.00000  Uiso   1.00
H458   H     0.76990   0.30310   0.32690   0.00000  Uiso   1.00
C459   C     0.99860   0.53550   0.51260   0.00000  Uiso   1.00
H460   H     0.01380   0.56400   0.47350   0.00000  Uiso   1.00
H461   H     0.95340   0.54710   0.52380   0.00000  Uiso   1.00
N462   N     0.84600   0.07940   0.17880   0.00000  Uiso   1.00
H463   H     0.86420   0.08160   0.22130   0.00000  Uiso   1.00
H464   H     0.84330   0.04230   0.15640   0.00000  Uiso   1.00
N465   N     0.89800   0.21500   0.20520   0.00000  Uiso   1.00
H466   H     0.92940   0.19200   0.18650   0.00000  Uiso   1.00
H467   H     0.90690   0.24910   0.23130   0.00000  Uiso   1.00
N468   N     0.78460   0.31440   0.43590   0.00000  Uiso   1.00
H469   H     0.80240   0.28850   0.46740   0.00000  Uiso   1.00
H470   H     0.78710   0.35640   0.44170   0.00000  Uiso   1.00
N471   N     0.04000   0.54560   0.57860   0.00000  Uiso   1.00
H472   H     0.06150   0.51310   0.59710   0.00000  Uiso   1.00
H473   H     0.04260   0.58390   0.59840   0.00000  Uiso   1.00
O474   O     0.98009   0.95931   0.60826   0.00000  Uiso   1.00
O475   O     0.08147   0.06541   0.53571   0.00000  Uiso   1.00
O476   O     0.90867   0.85672   0.67480   0.00000  Uiso   1.00
O477   O     0.10541   0.69198   0.68086   0.00000  Uiso   1.00
O478   O     0.09714   0.87802   0.61021   0.00000  Uiso   1.00
O479   O     0.06113   0.91940   0.46494   0.00000  Uiso   1.00
O480   O     0.03012   0.89881   0.74143   0.00000  Uiso   1.00
O481   O     0.98551   0.83653   0.54619   0.00000  Uiso   1.00
O482   O     0.20468   0.07400   0.61578   0.00000  Uiso   1.00
O483   O     0.18536   0.14620   0.47916   0.00000  Uiso   1.00
O484   O     0.92648   0.99620   0.74624   0.00000  Uiso   1.00
O485   O     0.05136   0.02447   0.79951   0.00000  Uiso   1.00
O486   O     0.04693   0.78711   0.41977   0.00000  Uiso   1.00
O487   O     0.15041   0.89200   0.34849   0.00000  Uiso   1.00
O488   O     0.16908   0.82848   0.48596   0.00000  Uiso   1.00
O489   O     0.08928   0.74840   0.56057   0.00000  Uiso   1.00
O490   O     0.32016   0.94670   0.55728   0.00000  Uiso   1.00
O491   O     0.10310   0.99124   0.66024   0.00000  Uiso   1.00
O492   O     0.01369   0.08270   0.66642   0.00000  Uiso   1.00
O493   O     0.13457   0.10135   0.74243   0.00000  Uiso   1.00
O494   O     0.20373   0.92169   0.66870   0.00000  Uiso   1.00
O495   O     0.15537   0.05220   0.86451   0.00000  Uiso   1.00
O496   O     0.06850   0.13906   0.85079   0.00000  Uiso   1.00
O497   O     0.26865   0.03941   0.48848   0.00000  Uiso   1.00
O498   O     0.00195   0.67077   0.60540   0.00000  Uiso   1.00
O499   O     0.16642   0.96116   0.54610   0.00000  Uiso   1.00
O500   O     0.15292   0.01649   0.41939   0.00000  Uiso   1.00
O501   O     0.25541   0.92280   0.44219   0.00000  Uiso   1.00
O502   O     0.36389   0.97940   0.43370   0.00000  Uiso   1.00
O503   O     0.01953   0.77756   0.67250   0.00000  Uiso   1.00
O504   O     0.10903   0.17917   0.62100   0.00000  Uiso   1.00
O505   O     0.35241   0.92646   0.71565   0.00000  Uiso   1.00
O506   O     0.26059   0.02740   0.76719   0.00000  Uiso   1.00
Mo512  Mo    0.49839   0.51343   0.70961   0.00000  Uiso   1.00
Mo513  Mo    0.51343   0.62981   0.64993   0.00000  Uiso   1.00
Mo514  Mo    0.42641   0.67263   0.49441   0.00000  Uiso   1.00
Mo515  Mo    0.34513   0.58778   0.43746   0.00000  Uiso   1.00
Mo516  Mo    0.32358   0.43035   0.51309   0.00000  Uiso   1.00
Mo517  Mo    0.38771   0.40269   0.63211   0.00000  Uiso   1.00
Mn518  Mn    0.21214   0.50553   0.65680   0.00000  Uiso   1.00
P519   P     0.35627   0.56410   0.62245   0.00000  Uiso   1.00
P520   P     0.39833   0.41947   0.81567   0.00000  Uiso   1.00
P521   P     0.44623   0.77926   0.63068   0.00000  Uiso   1.00
P522   P     0.19659   0.52723   0.48037   0.00000  Uiso   1.00
C523   C     0.67890   0.36390   0.14610   0.00000  Uiso   1.00
H524   H     0.65710   0.35720   0.09940   0.00000  Uiso   1.00
H525   H     0.72550   0.37010   0.13650   0.00000  Uiso   1.00
C526   C     0.67000   0.30370   0.19250   0.00000  Uiso   1.00
H527   H     0.69100   0.31120   0.23950   0.00000  Uiso   1.00
H528   H     0.69250   0.26720   0.16900   0.00000  Uiso   1.00
C529   C     0.75060   0.21300   0.37150   0.00000  Uiso   1.00
H530   H     0.79590   0.19790   0.37200   0.00000  Uiso   1.00
H531   H     0.73010   0.19690   0.32690   0.00000  Uiso   1.00
C532   C     0.50140   0.96450   0.51260   0.00000  Uiso   1.00
H533   H     0.48620   0.93600   0.47350   0.00000  Uiso   1.00
H534   H     0.54660   0.95290   0.52380   0.00000  Uiso   1.00
N535   N     0.65400   0.42060   0.17880   0.00000  Uiso   1.00
H536   H     0.63580   0.41840   0.22130   0.00000  Uiso   1.00
H537   H     0.65670   0.45770   0.15640   0.00000  Uiso   1.00
N538   N     0.60200   0.28500   0.20520   0.00000  Uiso   1.00
H539   H     0.57060   0.30800   0.18650   0.00000  Uiso   1.00
H540   H     0.59310   0.25090   0.23130   0.00000  Uiso   1.00
N541   N     0.71540   0.18560   0.43590   0.00000  Uiso   1.00
H542   H     0.69760   0.21150   0.46740   0.00000  Uiso   1.00
H543   H     0.71290   0.14360   0.44170   0.00000  Uiso   1.00
N544   N     0.46000   0.95440   0.57860   0.00000  Uiso   1.00
H545   H     0.43850   0.98690   0.59710   0.00000  Uiso   1.00
H546   H     0.45740   0.91610   0.59840   0.00000  Uiso   1.00
O547   O     0.51991   0.54069   0.60826   0.00000  Uiso   1.00
O548   O     0.41853   0.43459   0.53571   0.00000  Uiso   1.00
O549   O     0.59133   0.64328   0.67480   0.00000  Uiso   1.00
O550   O     0.39459   0.80802   0.68086   0.00000  Uiso   1.00
O551   O     0.40286   0.62198   0.61021   0.00000  Uiso   1.00
O552   O     0.43887   0.58060   0.46494   0.00000  Uiso   1.00
O553   O     0.46988   0.60119   0.74143   0.00000  Uiso   1.00
O554   O     0.51449   0.66347   0.54619   0.00000  Uiso   1.00
O555   O     0.29532   0.42600   0.61578   0.00000  Uiso   1.00
O556   O     0.31464   0.35380   0.47916   0.00000  Uiso   1.00
O557   O     0.57352   0.50380   0.74624   0.00000  Uiso   1.00
O558   O     0.44864   0.47553   0.79951   0.00000  Uiso   1.00
O559   O     0.45307   0.71289   0.41977   0.00000  Uiso   1.00
O560   O     0.34959   0.60800   0.34849   0.00000  Uiso   1.00
O561   O     0.33092   0.67152   0.48596   0.00000  Uiso   1.00
O562   O     0.41072   0.75160   0.56057   0.00000  Uiso   1.00
O563   O     0.17984   0.55330   0.55728   0.00000  Uiso   1.00
O564   O     0.39690   0.50876   0.66024   0.00000  Uiso   1.00
O565   O     0.48631   0.41730   0.66642   0.00000  Uiso   1.00
O566   O     0.36543   0.39865   0.74243   0.00000  Uiso   1.00
O567   O     0.29627   0.57831   0.66870   0.00000  Uiso   1.00
O568   O     0.34463   0.44780   0.86451   0.00000  Uiso   1.00
O569   O     0.43150   0.36094   0.85079   0.00000  Uiso   1.00
O570   O     0.23135   0.46059   0.48848   0.00000  Uiso   1.00
O571   O     0.49805   0.82923   0.60540   0.00000  Uiso   1.00
O572   O     0.33358   0.53884   0.54610   0.00000  Uiso   1.00
O573   O     0.34708   0.48351   0.41939   0.00000  Uiso   1.00
O574   O     0.24459   0.57720   0.44219   0.00000  Uiso   1.00
O575   O     0.13611   0.52060   0.43370   0.00000  Uiso   1.00
O576   O     0.48047   0.72244   0.67250   0.00000  Uiso   1.00
O577   O     0.39097   0.32083   0.62100   0.00000  Uiso   1.00
O578   O     0.14759   0.57354   0.71565   0.00000  Uiso   1.00
O579   O     0.23941   0.47260   0.76719   0.00000  Uiso   1.00
Mn585  Mn    0.50000   0.00000   0.00000   0.00000  Uiso   1.00
Mn586  Mn    0.00000   0.50000   0.00000   0.00000  Uiso   1.00
Mn587  Mn    0.00000   0.00000   0.50000   0.00000  Uiso   1.00
Mn588  Mn    0.50000   0.50000   0.50000   0.00000  Uiso   1.00
loop_
_geom_bond_atom_site_label_1
_geom_bond_atom_site_label_2
_geom_bond_distance
_geom_bond_site_symmetry_2
_ccdc_geom_bond_type
Mo1    O42     1.963   .     S
Mo1    O47     2.074   .     S
Mo1    O53     2.252   .     S
Mo1    O54     2.120   .     S
Mo1    Mo2     2.621   1_545 S
Mo1    O36     1.978   1_545 S
Mo1    O46     1.678   1_545 S
Mo2    O36     1.968   .     S
Mo2    O38     1.669   .     S
Mo2    O43     2.012   .     S
Mo2    Mo1     2.621   1_565 S
Mo2    O42     1.976   1_565 S
Mo2    O65     2.040   1_565 S
Mo3    Mo4     2.604   .     S
Mo3    O41     1.962   .     S
Mo3    O48     1.678   .     S
Mo3    O50     1.946   .     S
Mo3    O43     2.032   1_544 S
Mo3    O51     2.033   1_554 S
Mo4    O41     1.975   .     S
Mo4    O49     1.676   .     S
Mo4    O50     1.939   .     S
Mo4    O62     2.144   .     S
Mo4    O63     2.056   .     S
Mo4    O61     2.229   1_554 S
Mo5    Mo6     2.593   .     S
Mo5    O37     1.975   .     S
Mo5    O44     1.961   .     S
Mo5    O61     2.294   .     S
Mo5    O45     1.684   1_556 S
Mo5    O59     2.023   1_556 S
Mo5    O62     2.077   1_556 S
Mo6    O37     1.975   .     S
Mo6    O44     1.959   .     S
Mo6    O53     2.223   .     S
Mo6    O54     2.120   .     S
Mo6    O55     2.064   .     S
Mo6    O66     1.677   .     S
Mn7    O52     2.160   .     S
Mn7    O56     2.271   .     S
Mn7    O67     2.187   .     S
Mn7    O68     2.192   .     S
Mn7    O569    2.118   .     S
P8     O40     1.526   .     D
P8     O53     1.556   .     S
P8     O56     1.510   .     S
P8     O61     1.554   .     S
P9     O47     1.559   .     S
P9     O55     1.552   .     S
P9     O57     1.522   .     D
P9     O58     1.510   .     S
P10    O39     1.510   .     A
P10    O51     1.572   .     S
P10    O60     1.534   .     A
P10    O65     1.549   .     S
P11    O59     1.534   .     S
P11    O63     1.571   .     S
P11    O64     1.501   .     D
P11    O52     1.537   1_554 S
C12    H13     0.969   .     S
C12    H14     0.971   .     S
C12    C15     1.498   .     S
C12    N24     1.392   .     S
C15    H16     0.969   .     S
C15    H17     0.971   .     S
C15    N27     1.452   .     S
C18    H19     0.970   .     S
C18    H20     0.970   .     S
C18    N30     1.483   .     S
C18    C91     1.504   .     S
C21    H23     0.970   .     S
C21    H22     0.969   1_566 S
C21    N33     1.483   1_565 S
C21    C313    1.515   1_666 S
H22    C21     0.969   1_544 S
N24    H25     0.860   .     S
N24    H26     0.859   .     S
N27    H28     0.861   .     S
N27    H29     0.860   .     S
N30    H31     0.859   .     S
N30    H32     0.861   .     S
N33    H34     0.861   .     S
N33    H35     0.860   .     S
N33    C21     1.483   1_545 S
O36    Mo1     1.978   1_565 S
O36    Mn585   2.178   1_566 S
O37    Mn585   2.221   1_556 S
O41    Mn585   2.153   .     S
O42    Mo2     1.976   1_545 S
O43    Mo3     2.032   1_566 S
O45    Mo5     1.684   1_554 S
O46    Mo1     1.678   1_565 S
O51    Mo3     2.033   1_556 S
O52    P11     1.537   1_556 S
O58    Mn445   2.118   1_545 S
O59    Mo5     2.023   1_554 S
O61    Mo4     2.229   1_556 S
O62    Mo5     2.077   1_554 S
O65    Mo2     2.040   1_545 S
Mo74   Mo75    2.621   .     S
Mo74   O109    1.978   .     S
Mo74   O115    1.963   .     S
Mo74   O119    1.678   .     S
Mo74   O126    2.252   .     S
Mo74   O120    2.074   1_655 S
Mo74   O127    2.120   1_655 S
Mo75   O109    1.968   .     S
Mo75   O111    1.669   .     S
Mo75   O115    1.976   .     S
Mo75   O116    2.012   .     S
Mo75   O138    2.040   .     S
Mo76   Mo77    2.604   .     S
Mo76   O114    1.962   .     S
Mo76   O121    1.678   .     S
Mo76   O123    1.946   .     S
Mo76   O116    2.032   1_554 S
Mo76   O124    2.033   1_554 S
Mo77   O114    1.975   .     S
Mo77   O122    1.676   .     S
Mo77   O123    1.939   .     S
Mo77   O136    2.056   .     S
Mo77   O134    2.229   1_554 S
Mo77   O135    2.144   1_655 D
Mo78   Mo79    2.593   .     S
Mo78   O110    1.975   .     S
Mo78   O117    1.961   .     S
Mo78   O118    1.684   1_556 S
Mo78   O132    2.023   1_556 A
Mo78   O134    2.294   1_455 S
Mo78   O135    2.077   1_556 A
Mo79   O110    1.975   .     S
Mo79   O117    1.959   .     S
Mo79   O127    2.120   .     S
Mo79   O128    2.064   .     S
Mo79   O139    1.677   .     S
Mo79   O126    2.223   1_455 S
Mn80   O125    2.160   .     S
Mn80   O129    2.271   .     S
Mn80   O140    2.187   .     S
Mn80   O141    2.192   1_655 S
Mn80   O496    2.118   1_655 S
P81    O113    1.526   .     D
P81    O126    1.556   .     S
P81    O129    1.510   .     S
P81    O134    1.554   .     S
P82    O120    1.559   .     S
P82    O128    1.552   .     S
P82    O130    1.522   .     D
P82    O131    1.510   .     S
P83    O112    1.510   .     A
P83    O124    1.572   .     S
P83    O133    1.534   .     A
P83    O138    1.549   .     S
P84    O136    1.571   .     S
P84    O137    1.501   .     D
P84    O125    1.537   1_554 D
P84    O132    1.534   1_655 S
C85    H86     0.969   .     S
C85    H87     0.971   .     S
C85    C88     1.498   .     S
C85    N97     1.392   .     S
C88    H89     0.969   .     S
C88    H90     0.971   .     S
C88    N100    1.452   .     S
C91    H92     0.970   .     S
C91    H93     0.970   .     S
C91    N103    1.483   .     S
C94    H96     0.970   .     S
C94    N106    1.483   .     S
C94    H95     0.969   1_556 S
C94    C386    1.515   1_556 S
H95    C94     0.969   1_554 S
N97    H98     0.860   .     S
N97    H99     0.859   .     S
N100   H101    0.861   .     S
N100   H102    0.860   .     S
N103   H104    0.859   .     S
N103   H105    0.861   .     S
N106   H107    0.861   .     S
N106   H108    0.860   .     S
O109   Mn586   2.178   1_656 S
O110   Mn586   2.221   1_556 S
O114   Mn586   2.153   1_655 S
O116   Mo76    2.032   1_556 S
O118   Mo78    1.684   1_554 S
O120   Mo74    2.074   1_455 S
O124   Mo76    2.033   1_556 S
O125   P84     1.537   1_556 D
O126   Mo79    2.223   1_655 S
O127   Mo74    2.120   1_455 S
O131   Mn518   2.118   .     S
O132   Mo78    2.023   1_554 A
O132   P84     1.534   1_455 S
O134   Mo77    2.229   1_556 S
O134   Mo78    2.294   1_655 S
O135   Mo77    2.144   1_455 D
O135   Mo78    2.077   1_554 A
O141   Mn80    2.192   1_455 S
Mo147  O188    1.963   .     S
Mo147  O199    2.252   .     S
Mo147  Mo148   2.621   1_655 S
Mo147  O182    1.978   1_655 S
Mo147  O192    1.678   1_655 S
Mo147  O193    2.074   1_545 S
Mo147  O200    2.120   1_545 S
Mo148  O182    1.968   .     S
Mo148  O184    1.669   .     S
Mo148  O189    2.012   .     S
Mo148  Mo147   2.621   1_455 S
Mo148  O188    1.976   1_455 S
Mo148  O211    2.040   1_455 S
Mo149  Mo150   2.604   .     S
Mo149  O187    1.962   .     S
Mo149  O194    1.678   .     S
Mo149  O196    1.946   .     S
Mo149  O197    2.033   .     S
Mo149  O189    2.032   1_655 S
Mo150  O187    1.975   .     S
Mo150  O195    1.676   .     S
Mo150  O196    1.939   .     S
Mo150  O207    2.229   .     S
Mo150  O209    2.056   .     S
Mo150  O208    2.144   1_545 S
Mo151  Mo152   2.593   .     S
Mo151  O183    1.975   .     S
Mo151  O190    1.961   .     S
Mo151  O191    1.684   .     S
Mo151  O205    2.023   .     S
Mo151  O208    2.077   .     S
Mo151  O207    2.294   1_565 S
Mo152  O183    1.975   .     S
Mo152  O190    1.959   .     S
Mo152  O200    2.120   .     S
Mo152  O201    2.064   .     S
Mo152  O212    1.677   .     S
Mo152  O199    2.223   1_565 S
Mn153  O198    2.160   .     S
Mn153  O202    2.271   .     S
Mn153  O213    2.187   .     S
Mn153  O214    2.192   1_545 S
Mn153  O350    2.118   1_545 S
P154   O186    1.526   .     D
P154   O199    1.556   .     S
P154   O202    1.510   .     S
P154   O207    1.554   .     S
P155   O193    1.559   .     S
P155   O201    1.552   .     S
P155   O203    1.522   .     D
P155   O204    1.510   .     S
P156   O185    1.510   .     A
P156   O197    1.572   .     S
P156   O206    1.534   .     A
P156   O211    1.549   .     S
P157   O198    1.537   .     S
P157   O209    1.571   .     S
P157   O210    1.501   .     D
P157   O205    1.534   1_545 S
C158   H159    0.969   .     S
C158   H160    0.971   .     S
C158   C161    1.498   .     S
C158   N170    1.392   .     S
C161   H162    0.969   .     S
C161   H163    0.971   .     S
C161   N173    1.452   .     S
C164   H165    0.970   .     S
C164   H166    0.970   .     S
C164   N176    1.483   .     S
C164   C237    1.504   .     S
C167   H169    0.970   .     S
C167   H168    0.969   1_455 S
C167   N179    1.483   1_455 S
C167   C459    1.515   1_455 S
H168   C167    0.969   1_655 S
N170   H171    0.860   .     S
N170   H172    0.859   .     S
N173   H174    0.861   .     S
N173   H175    0.860   .     S
N176   H177    0.859   .     S
N176   H178    0.861   .     S
N179   H180    0.861   .     S
N179   H181    0.860   .     S
N179   C167    1.483   1_655 S
O182   Mn587   2.178   .     S
O182   Mo147   1.978   1_455 S
O183   Mn587   2.221   1_665 S
O187   Mn587   2.153   1_655 S
O188   Mo148   1.976   1_655 S
O189   Mo149   2.032   1_455 S
O192   Mo147   1.678   1_455 S
O193   Mo147   2.074   1_565 S
O199   Mo152   2.223   1_545 S
O200   Mo147   2.120   1_565 S
O204   Mn372   2.118   1_655 D
O205   P157    1.534   1_565 S
O207   Mo151   2.294   1_545 S
O208   Mo150   2.144   1_565 S
O211   Mo148   2.040   1_655 S
O214   Mn153   2.192   1_565 S
Mo220  Mo221   2.621   .     S
Mo220  O255    1.978   .     S
Mo220  O261    1.963   .     S
Mo220  O265    1.678   .     S
Mo220  O266    2.074   .     S
Mo220  O272    2.252   .     S
Mo220  O273    2.120   .     S
Mo221  O255    1.968   .     S
Mo221  O257    1.669   .     S
Mo221  O261    1.976   .     S
Mo221  O262    2.012   .     S
Mo221  O284    2.040   .     S
Mo222  Mo223   2.604   .     S
Mo222  O260    1.962   .     S
Mo222  O262    2.032   .     S
Mo222  O267    1.678   .     S
Mo222  O269    1.946   .     S
Mo222  O270    2.033   .     S
Mo223  O260    1.975   .     S
Mo223  O268    1.676   .     S
Mo223  O269    1.939   .     S
Mo223  O280    2.229   .     S
Mo223  O281    2.144   .     S
Mo223  O282    2.056   .     S
Mo224  Mo225   2.593   .     S
Mo224  O256    1.975   .     S
Mo224  O263    1.961   .     S
Mo224  O264    1.684   .     S
Mo224  O278    2.023   .     S
Mo224  O280    2.294   .     S
Mo224  O281    2.077   .     S
Mo225  O256    1.975   .     S
Mo225  O263    1.959   .     S
Mo225  O272    2.223   .     S
Mo225  O273    2.120   .     S
Mo225  O274    2.064   .     S
Mo225  O285    1.677   .     S
Mn226  O271    2.160   .     S
Mn226  O275    2.271   .     S
Mn226  O286    2.187   .     S
Mn226  O287    2.192   .     S
Mn226  O423    2.118   .     S
P227   O259    1.526   .     D
P227   O272    1.556   .     S
P227   O275    1.510   .     S
P227   O280    1.554   .     S
P228   O266    1.559   .     S
P228   O274    1.552   .     S
P228   O276    1.522   .     D
P228   O277    1.510   .     S
P229   O258    1.510   .     A
P229   O270    1.572   .     S
P229   O279    1.534   .     A
P229   O284    1.549   .     S
P230   O271    1.537   .     S
P230   O278    1.534   .     S
P230   O282    1.571   .     S
P230   O283    1.501   .     D
C231   H232    0.969   .     S
C231   H233    0.971   .     S
C231   C234    1.498   .     S
C231   N243    1.392   .     S
C234   H235    0.969   .     S
C234   H236    0.971   .     S
C234   N246    1.452   .     S
C237   H238    0.970   .     S
C237   H239    0.970   .     S
C237   N249    1.483   .     S
C240   H241    0.969   .     S
C240   H242    0.970   .     S
C240   N252    1.483   .     S
C240   C532    1.515   1_545 D
N243   H244    0.860   .     S
N243   H245    0.859   .     S
N246   H247    0.861   .     S
N246   H248    0.860   .     S
N249   H250    0.859   .     S
N249   H251    0.861   .     S
N252   H253    0.861   .     S
N252   H254    0.860   .     S
O255   Mn588   2.178   .     S
O256   Mn588   2.221   .     S
O260   Mn588   2.153   .     S
O277   Mn299   2.118   .     S
Mo293  O334    1.963   .     S
Mo293  O339    2.074   .     S
Mo293  O345    2.252   .     S
Mo293  O346    2.120   .     S
Mo293  Mo294   2.621   1_565 S
Mo293  O328    1.978   1_565 A
Mo293  O338    1.678   1_565 S
Mo294  O328    1.968   .     S
Mo294  O330    1.669   .     S
Mo294  O335    2.012   .     S
Mo294  Mo293   2.621   1_545 S
Mo294  O334    1.976   1_545 S
Mo294  O357    2.040   1_545 S
Mo295  Mo296   2.604   .     S
Mo295  O333    1.962   .     S
Mo295  O340    1.678   .     S
Mo295  O342    1.946   .     S
Mo295  O335    2.032   1_566 D
Mo295  O343    2.033   1_556 S
Mo296  O333    1.975   .     S
Mo296  O341    1.676   .     S
Mo296  O342    1.939   .     S
Mo296  O354    2.144   .     S
Mo296  O355    2.056   .     S
Mo296  O353    2.229   1_556 S
Mo297  Mo298   2.593   .     S
Mo297  O329    1.975   .     S
Mo297  O336    1.961   .     S
Mo297  O353    2.294   .     S
Mo297  O337    1.684   1_554 S
Mo297  O351    2.023   1_554 S
Mo297  O354    2.077   1_554 S
Mo298  O329    1.975   .     S
Mo298  O336    1.959   .     S
Mo298  O345    2.223   .     S
Mo298  O346    2.120   .     S
Mo298  O347    2.064   .     S
Mo298  O358    1.677   .     S
Mn299  O344    2.160   .     S
Mn299  O348    2.271   .     S
Mn299  O359    2.187   .     S
Mn299  O360    2.192   .     S
P300   O332    1.526   .     D
P300   O345    1.556   .     S
P300   O348    1.510   .     S
P300   O353    1.554   .     S
P301   O339    1.559   .     S
P301   O347    1.552   .     S
P301   O349    1.522   .     D
P301   O350    1.510   .     S
P302   O331    1.510   .     A
P302   O343    1.572   .     S
P302   O352    1.534   .     A
P302   O357    1.549   .     S
P303   O351    1.534   .     S
P303   O355    1.571   .     S
P303   O356    1.501   .     D
P303   O344    1.537   1_556 S
C304   H305    0.969   .     S
C304   H306    0.971   .     S
C304   C307    1.498   .     S
C304   N316    1.392   .     S
C307   H308    0.969   .     S
C307   H309    0.971   .     S
C307   N319    1.452   .     S
C310   H311    0.970   .     S
C310   H312    0.970   .     S
C310   N322    1.483   .     S
C310   C383    1.504   .     S
C313   H315    0.970   .     S
C313   C21     1.515   1_444 S
C313   H314    0.969   1_544 S
C313   N325    1.483   1_545 S
H314   C313    0.969   1_566 S
N316   H317    0.860   .     S
N316   H318    0.859   .     S
N319   H320    0.861   .     S
N319   H321    0.860   .     S
N322   H323    0.859   .     S
N322   H324    0.861   .     S
N325   H326    0.861   .     S
N325   H327    0.860   .     S
N325   C313    1.483   1_565 S
O328   Mn585   2.178   .     S
O328   Mo293   1.978   1_545 A
O329   Mn585   2.221   1_565 S
O333   Mn585   2.153   1_566 S
O334   Mo294   1.976   1_565 S
O335   Mo295   2.032   1_544 D
O337   Mo297   1.684   1_556 S
O338   Mo293   1.678   1_545 S
O343   Mo295   2.033   1_554 S
O344   P303    1.537   1_554 S
O350   Mn153   2.118   1_565 S
O351   Mo297   2.023   1_556 S
O353   Mo296   2.229   1_554 S
O354   Mo297   2.077   1_556 S
O357   Mo294   2.040   1_565 S
Mo366  Mo367   2.621   .     S
Mo366  O401    1.978   .     S
Mo366  O407    1.963   .     S
Mo366  O411    1.678   .     S
Mo366  O418    2.252   .     S
Mo366  O412    2.074   1_455 S
Mo366  O419    2.120   1_455 S
Mo367  O401    1.968   .     S
Mo367  O403    1.669   .     S
Mo367  O407    1.976   .     S
Mo367  O408    2.012   .     S
Mo367  O430    2.040   .     S
Mo368  Mo369   2.604   .     S
Mo368  O406    1.962   .     S
Mo368  O413    1.678   .     S
Mo368  O415    1.946   .     S
Mo368  O408    2.032   1_556 S
Mo368  O416    2.033   1_556 S
Mo369  O406    1.975   .     S
Mo369  O414    1.676   .     S
Mo369  O415    1.939   .     S
Mo369  O428    2.056   .     S
Mo369  O426    2.229   1_556 S
Mo369  O427    2.144   1_455 S
Mo370  Mo371   2.593   .     S
Mo370  O402    1.975   .     S
Mo370  O409    1.961   .     S
Mo370  O410    1.684   1_554 S
Mo370  O424    2.023   1_554 S
Mo370  O426    2.294   1_655 S
Mo370  O427    2.077   1_554 S
Mo371  O402    1.975   .     S
Mo371  O409    1.959   .     S
Mo371  O419    2.120   .     S
Mo371  O420    2.064   .     S
Mo371  O431    1.677   .     S
Mo371  O418    2.223   1_655 S
Mn372  O417    2.160   .     S
Mn372  O421    2.271   .     S
Mn372  O432    2.187   .     S
Mn372  O204    2.118   1_455 D
Mn372  O433    2.192   1_455 S
P373   O405    1.526   .     D
P373   O418    1.556   .     S
P373   O421    1.510   .     S
P373   O426    1.554   .     S
P374   O412    1.559   .     S
P374   O420    1.552   .     S
P374   O422    1.522   .     D
P374   O423    1.510   .     S
P375   O404    1.510   .     A
P375   O416    1.572   .     S
P375   O425    1.534   .     A
P375   O430    1.549   .     S
P376   O428    1.571   .     S
P376   O429    1.501   .     D
P376   O417    1.537   1_556 S
P376   O424    1.534   1_455 S
C377   H378    0.969   .     S
C377   H379    0.971   .     S
C377   C380    1.498   .     S
C377   N389    1.392   .     S
C380   H381    0.969   .     S
C380   H382    0.971   .     S
C380   N392    1.452   .     S
C383   H384    0.970   .     S
C383   H385    0.970   .     S
C383   N395    1.483   .     S
C386   H388    0.970   .     S
C386   N398    1.483   .     S
C386   C94     1.515   1_554 S
C386   H387    0.969   1_554 S
H387   C386    0.969   1_556 S
N389   H390    0.860   .     S
N389   H391    0.859   .     S
N392   H393    0.861   .     S
N392   H394    0.860   .     S
N395   H396    0.859   .     S
N395   H397    0.861   .     S
N398   H399    0.861   .     S
N398   H400    0.860   .     S
O401   Mn586   2.178   .     S
O402   Mn586   2.221   1_655 S
O406   Mn586   2.153   1_556 S
O408   Mo368   2.032   1_554 S
O410   Mo370   1.684   1_556 S
O412   Mo366   2.074   1_655 S
O416   Mo368   2.033   1_554 S
O417   P376    1.537   1_554 S
O418   Mo371   2.223   1_455 S
O419   Mo366   2.120   1_655 S
O424   Mo370   2.023   1_556 S
O424   P376    1.534   1_655 S
O426   Mo369   2.229   1_554 S
O426   Mo370   2.294   1_455 S
O427   Mo369   2.144   1_655 S
O427   Mo370   2.077   1_556 S
O433   Mn372   2.192   1_655 S
Mo439  O480    1.963   .     S
Mo439  O491    2.252   .     S
Mo439  Mo440   2.621   1_455 S
Mo439  O474    1.978   1_455 A
Mo439  O484    1.678   1_455 S
Mo439  O485    2.074   1_565 S
Mo439  O492    2.120   1_565 S
Mo440  O474    1.968   .     S
Mo440  O476    1.669   .     S
Mo440  O481    2.012   .     S
Mo440  Mo439   2.621   1_655 S
Mo440  O480    1.976   1_655 S
Mo440  O503    2.040   1_655 S
Mo441  Mo442   2.604   .     S
Mo441  O479    1.962   .     S
Mo441  O486    1.678   .     S
Mo441  O488    1.946   .     S
Mo441  O489    2.033   .     S
Mo441  O481    2.032   1_455 S
Mo442  O479    1.975   .     S
Mo442  O487    1.676   .     S
Mo442  O488    1.939   .     S
Mo442  O499    2.229   .     S
Mo442  O501    2.056   .     S
Mo442  O500    2.144   1_565 S
Mo443  Mo444   2.593   .     S
Mo443  O475    1.975   .     S
Mo443  O482    1.961   .     S
Mo443  O483    1.684   .     S
Mo443  O497    2.023   .     S
Mo443  O500    2.077   .     S
Mo443  O499    2.294   1_545 S
Mo444  O475    1.975   .     S
Mo444  O482    1.959   .     S
Mo444  O492    2.120   .     S
Mo444  O493    2.064   .     S
Mo444  O504    1.677   .     S
Mo444  O491    2.223   1_545 S
Mn445  O490    2.160   .     S
Mn445  O494    2.271   .     S
Mn445  O505    2.187   .     S
Mn445  O58     2.118   1_565 S
Mn445  O506    2.192   1_565 S
P446   O478    1.526   .     D
P446   O491    1.556   .     S
P446   O494    1.510   .     S
P446   O499    1.554   .     S
P447   O485    1.559   .     S
P447   O493    1.552   .     S
P447   O495    1.522   .     D
P447   O496    1.510   .     S
P448   O477    1.510   .     A
P448   O489    1.572   .     S
P448   O498    1.534   .     A
P448   O503    1.549   .     S
P449   O490    1.537   .     S
P449   O501    1.571   .     S
P449   O502    1.501   .     D
P449   O497    1.534   1_565 S
C450   H451    0.969   .     S
C450   H452    0.971   .     S
C450   C453    1.498   .     S
C450   N462    1.392   .     S
C453   H454    0.969   .     S
C453   H455    0.971   .     S
C453   N465    1.452   .     S
C456   H457    0.970   .     S
C456   H458    0.970   .     S
C456   N468    1.483   .     S
C456   C529    1.504   .     S
C459   H461    0.970   .     S
C459   C167    1.515   1_655 S
C459   H460    0.969   1_655 S
C459   N471    1.483   1_655 S
H460   C459    0.969   1_455 S
N462   H463    0.860   .     S
N462   H464    0.859   .     S
N465   H466    0.861   .     S
N465   H467    0.860   .     S
N468   H469    0.859   .     S
N468   H470    0.861   .     S
N471   H472    0.861   .     S
N471   H473    0.860   .     S
N471   C459    1.483   1_455 S
O474   Mo439   1.978   1_655 A
O474   Mn587   2.178   1_665 S
O475   Mn587   2.221   .     S
O479   Mn587   2.153   1_565 S
O480   Mo440   1.976   1_455 S
O481   Mo441   2.032   1_655 S
O484   Mo439   1.678   1_655 S
O485   Mo439   2.074   1_545 S
O491   Mo444   2.223   1_565 S
O492   Mo439   2.120   1_545 S
O496   Mn80    2.118   1_455 S
O497   P449    1.534   1_545 S
O499   Mo443   2.294   1_565 S
O500   Mo442   2.144   1_545 S
O503   Mo440   2.040   1_455 S
O506   Mn445   2.192   1_545 S
Mo512  Mo513   2.621   .     S
Mo512  O547    1.978   .     S
Mo512  O553    1.963   .     S
Mo512  O557    1.678   .     S
Mo512  O558    2.074   .     S
Mo512  O564    2.252   .     S
Mo512  O565    2.120   .     S
Mo513  O547    1.968   .     S
Mo513  O549    1.669   .     S
Mo513  O553    1.976   .     S
Mo513  O554    2.012   .     S
Mo513  O576    2.040   .     S
Mo514  Mo515   2.604   .     S
Mo514  O552    1.962   .     S
Mo514  O554    2.032   .     S
Mo514  O559    1.678   .     S
Mo514  O561    1.946   .     S
Mo514  O562    2.033   .     S
Mo515  O552    1.975   .     S
Mo515  O560    1.676   .     S
Mo515  O561    1.939   .     S
Mo515  O572    2.229   .     S
Mo515  O573    2.144   .     S
Mo515  O574    2.056   .     S
Mo516  Mo517   2.593   .     S
Mo516  O548    1.975   .     S
Mo516  O555    1.961   .     S
Mo516  O556    1.684   .     S
Mo516  O570    2.023   .     S
Mo516  O572    2.294   .     S
Mo516  O573    2.077   .     S
Mo517  O548    1.975   .     S
Mo517  O555    1.959   .     S
Mo517  O564    2.223   .     S
Mo517  O565    2.120   .     S
Mo517  O566    2.064   .     S
Mo517  O577    1.677   .     S
Mn518  O563    2.160   .     S
Mn518  O567    2.271   .     S
Mn518  O578    2.187   .     S
Mn518  O579    2.192   .     S
P519   O551    1.526   .     D
P519   O564    1.556   .     S
P519   O567    1.510   .     S
P519   O572    1.554   .     S
P520   O558    1.559   .     S
P520   O566    1.552   .     S
P520   O568    1.522   .     D
P520   O569    1.510   .     S
P521   O550    1.510   .     A
P521   O562    1.572   .     S
P521   O571    1.534   .     A
P521   O576    1.549   .     S
P522   O563    1.537   .     S
P522   O570    1.534   .     S
P522   O574    1.571   .     S
P522   O575    1.501   .     D
C523   H524    0.969   .     S
C523   H525    0.971   .     S
C523   C526    1.498   .     S
C523   N535    1.392   .     S
C526   H527    0.969   .     S
C526   H528    0.971   .     S
C526   N538    1.452   .     S
C529   H530    0.970   .     S
C529   H531    0.970   .     S
C529   N541    1.483   .     S
C532   H533    0.969   .     S
C532   H534    0.970   .     S
C532   N544    1.483   .     S
C532   C240    1.515   1_565 D
N535   H536    0.860   .     S
N535   H537    0.859   .     S
N538   H539    0.861   .     S
N538   H540    0.860   .     S
N541   H542    0.859   .     S
N541   H543    0.861   .     S
N544   H545    0.861   .     S
N544   H546    0.860   .     S
O547   Mn588   2.178   .     S
O548   Mn588   2.221   .     S
O552   Mn588   2.153   .     S
Mn585  O36     2.178   1_544 S
Mn585  O37     2.221   1_554 S
Mn585  O329    2.221   1_545 S
Mn585  O333    2.153   1_544 S
Mn586  O109    2.178   1_454 S
Mn586  O110    2.221   1_554 S
Mn586  O114    2.153   1_455 S
Mn586  O402    2.221   1_455 S
Mn586  O406    2.153   1_554 S
Mn587  O183    2.221   1_445 S
Mn587  O187    2.153   1_455 S
Mn587  O474    2.178   1_445 S
Mn587  O479    2.153   1_545 S
