data_image0
_cell_length_a       27.033
_cell_length_b       36.13
_cell_length_c       34.291
_cell_angle_alpha    108.81
_cell_angle_beta     90
_cell_angle_gamma    90

_symmetry_space_group_name_H-M    P 1
_symmetry_int_tables_number       1

loop_
  _symmetry_equiv_pos_as_xyz
  'x, y, z'

loop_
  _atom_site_label
  _atom_site_occupancy
  _atom_site_fract_x
  _atom_site_fract_y
  _atom_site_fract_z
  _atom_site_thermal_displace_type
  _atom_site_B_iso_or_equiv
  _atom_site_type_symbol
  Zn1      1.0000 0.53312  0.59917  0.80317  Biso   1.000  Zn
  Zn2      1.0000 0.50176  0.60486  0.71691  Biso   1.000  Zn
  Zn3      1.0000 0.98690  0.68119  0.29105  Biso   1.000  Zn
  Zn4      1.0000 0.42368  0.62349  0.78972  Biso   1.000  Zn
  Zn5      1.0000 0.99568  0.12726  0.36434  Biso   1.000  Zn
  Zn6      1.0000 0.01122  0.04985  0.29092  Biso   1.000  Zn
  Zn7      1.0000 0.46836  0.13388  0.77991  Biso   1.000  Zn
  Zn8      1.0000 0.92285  0.10575  0.28838  Biso   1.000  Zn
  Zn9      1.0000 0.96688  0.59917  0.30317  Biso   1.000  Zn
  Zn10     1.0000 0.99824  0.60486  0.21691  Biso   1.000  Zn
  Zn11     1.0000 0.51310  0.68119  0.79105  Biso   1.000  Zn
  Zn12     1.0000 0.07632  0.62349  0.28972  Biso   1.000  Zn
  Zn13     1.0000 0.50432  0.12726  0.86434  Biso   1.000  Zn
  Zn14     1.0000 0.48878  0.04985  0.79092  Biso   1.000  Zn
  Zn15     1.0000 0.03164  0.13388  0.27991  Biso   1.000  Zn
  Zn16     1.0000 0.57715  0.10575  0.78838  Biso   1.000  Zn
  H1       1.0000 0.64400  0.37630  0.65520  Biso   1.000  H
  H2       1.0000 0.71850  0.22130  0.48290  Biso   1.000  H
  H3       1.0000 0.59930  0.26560  0.63910  Biso   1.000  H
  H4       1.0000 0.86970  0.77810  0.11930  Biso   1.000  H
  H5       1.0000 0.74000  0.73340  0.97820  Biso   1.000  H
  H6       1.0000 0.89430  0.87950  0.09600  Biso   1.000  H
  H7       1.0000 0.12450  0.85570  0.47020  Biso   1.000  H
  H8       1.0000 0.15480  0.95920  0.45120  Biso   1.000  H
  H9       1.0000 0.29110  0.99380  0.58370  Biso   1.000  H
  H10      1.0000 0.40410  0.47530  0.95200  Biso   1.000  H
  H11      1.0000 0.35510  0.35450  0.92680  Biso   1.000  H
  H12      1.0000 0.21750  0.48720  0.05740  Biso   1.000  H
  H13      1.0000 0.57810  0.50880  0.64850  Biso   1.000  H
  H14      1.0000 0.59920  0.44730  0.61110  Biso   1.000  H
  H15      1.0000 0.63330  0.42630  0.71660  Biso   1.000  H
  H16      1.0000 0.60790  0.48940  0.75290  Biso   1.000  H
  H17      1.0000 0.70220  0.33900  0.53960  Biso   1.000  H
  H18      1.0000 0.71390  0.23240  0.55450  Biso   1.000  H
  H19      1.0000 0.62680  0.31530  0.63010  Biso   1.000  H
  H20      1.0000 0.84360  0.24280  0.48280  Biso   1.000  H
  H21      1.0000 0.89960  0.20650  0.43750  Biso   1.000  H
  H22      1.0000 0.79340  0.13930  0.36930  Biso   1.000  H
  H23      1.0000 0.73360  0.17410  0.41420  Biso   1.000  H
  H24      1.0000 0.67240  0.21150  0.68280  Biso   1.000  H
  H25      1.0000 0.64090  0.17350  0.72310  Biso   1.000  H
  H26      1.0000 0.50730  0.19910  0.70440  Biso   1.000  H
  H27      1.0000 0.52960  0.23770  0.66370  Biso   1.000  H
  H28      1.0000 0.94410  0.65040  0.12490  Biso   1.000  H
  H29      1.0000 0.91340  0.68180  0.08260  Biso   1.000  H
  H30      1.0000 0.88660  0.77600  0.18080  Biso   1.000  H
  H31      1.0000 0.92640  0.74560  0.22380  Biso   1.000  H
  H32      1.0000 0.81120  0.73750  0.00130  Biso   1.000  H
  H33      1.0000 0.77850  0.85020  0.01500  Biso   1.000  H
  H34      1.0000 0.86760  0.82500  0.09690  Biso   1.000  H
  H35      1.0000 0.70350  0.76200  0.89340  Biso   1.000  H
  H36      1.0000 0.64710  0.72560  0.84220  Biso   1.000  H
  H37      1.0000 0.62930  0.65060  0.90620  Biso   1.000  H
  H38      1.0000 0.67850  0.68720  0.95700  Biso   1.000  H
  H39      1.0000 0.95260  0.91930  0.12890  Biso   1.000  H
  H40      1.0000 0.97920  0.97820  0.17970  Biso   1.000  H
  H41      1.0000 0.83950  0.01390  0.19510  Biso   1.000  H
  H42      1.0000 0.81450  0.95720  0.14300  Biso   1.000  H
  H43      1.0000 0.03040  0.77470  0.37650  Biso   1.000  H
  H44      1.0000 0.06610  0.82870  0.42780  Biso   1.000  H
  H45      1.0000 0.18990  0.76590  0.43040  Biso   1.000  H
  H46      1.0000 0.15210  0.71360  0.38300  Biso   1.000  H
  H47      1.0000 0.15160  0.91160  0.47020  Biso   1.000  H
  H48      1.0000 0.21700  0.99260  0.56550  Biso   1.000  H
  H49      1.0000 0.24940  0.87850  0.54160  Biso   1.000  H
  H50      1.0000 0.12240  0.96560  0.39090  Biso   1.000  H
  H51      1.0000 0.10630  0.01260  0.35770  Biso   1.000  H
  H52      1.0000 0.05690  0.08530  0.46210  Biso   1.000  H
  H53      1.0000 0.10110  0.04940  0.49760  Biso   1.000  H
  H54      1.0000 0.32860  0.05150  0.61680  Biso   1.000  H
  H55      1.0000 0.37600  0.08850  0.67320  Biso   1.000  H
  H56      1.0000 0.38200  0.99770  0.71740  Biso   1.000  H
  H57      1.0000 0.32790  0.96200  0.66560  Biso   1.000  H
  H58      1.0000 0.49880  0.53520  0.88580  Biso   1.000  H
  H59      1.0000 0.46920  0.50110  0.92580  Biso   1.000  H
  H60      1.0000 0.33120  0.53080  0.91020  Biso   1.000  H
  H61      1.0000 0.36070  0.56300  0.86690  Biso   1.000  H
  H62      1.0000 0.37150  0.41900  0.95060  Biso   1.000  H
  H63      1.0000 0.30710  0.39560  0.04780  Biso   1.000  H
  H64      1.0000 0.28690  0.50100  0.03280  Biso   1.000  H
  H65      1.0000 0.35180  0.29910  0.86980  Biso   1.000  H
  H66      1.0000 0.38310  0.23760  0.83340  Biso   1.000  H
  H67      1.0000 0.46020  0.23740  0.93320  Biso   1.000  H
  H68      1.0000 0.42470  0.29910  0.97130  Biso   1.000  H
  H69      1.0000 0.15280  0.52670  0.07410  Biso   1.000  H
  H70      1.0000 0.08890  0.55110  0.12220  Biso   1.000  H
  H71      1.0000 0.17160  0.53110  0.21200  Biso   1.000  H
  H72      1.0000 0.22440  0.49380  0.15890  Biso   1.000  H
  H73      1.0000 0.85600  0.37630  0.15520  Biso   1.000  H
  H74      1.0000 0.78150  0.22130  0.98290  Biso   1.000  H
  H75      1.0000 0.90070  0.26560  0.13910  Biso   1.000  H
  H76      1.0000 0.63030  0.77810  0.61930  Biso   1.000  H
  H77      1.0000 0.76000  0.73340  0.47820  Biso   1.000  H
  H78      1.0000 0.60570  0.87950  0.59600  Biso   1.000  H
  H79      1.0000 0.37550  0.85570  0.97020  Biso   1.000  H
  H80      1.0000 0.34520  0.95920  0.95120  Biso   1.000  H
  H81      1.0000 0.20890  0.99380  0.08370  Biso   1.000  H
  H82      1.0000 0.09590  0.47530  0.45200  Biso   1.000  H
  H83      1.0000 0.14490  0.35450  0.42680  Biso   1.000  H
  H84      1.0000 0.28250  0.48720  0.55740  Biso   1.000  H
  H85      1.0000 0.92190  0.50880  0.14850  Biso   1.000  H
  H86      1.0000 0.90080  0.44730  0.11110  Biso   1.000  H
  H87      1.0000 0.86670  0.42630  0.21660  Biso   1.000  H
  H88      1.0000 0.89210  0.48940  0.25290  Biso   1.000  H
  H89      1.0000 0.79780  0.33900  0.03960  Biso   1.000  H
  H90      1.0000 0.78610  0.23240  0.05450  Biso   1.000  H
  H91      1.0000 0.87320  0.31530  0.13010  Biso   1.000  H
  H92      1.0000 0.65640  0.24280  0.98280  Biso   1.000  H
  H93      1.0000 0.60040  0.20650  0.93750  Biso   1.000  H
  H94      1.0000 0.70660  0.13930  0.86930  Biso   1.000  H
  H95      1.0000 0.76640  0.17410  0.91420  Biso   1.000  H
  H96      1.0000 0.82760  0.21150  0.18280  Biso   1.000  H
  H97      1.0000 0.85910  0.17350  0.22310  Biso   1.000  H
  H98      1.0000 0.99270  0.19910  0.20440  Biso   1.000  H
  H99      1.0000 0.97040  0.23770  0.16370  Biso   1.000  H
  H100     1.0000 0.55590  0.65040  0.62490  Biso   1.000  H
  H101     1.0000 0.58660  0.68180  0.58260  Biso   1.000  H
  H102     1.0000 0.61340  0.77600  0.68080  Biso   1.000  H
  H103     1.0000 0.57360  0.74560  0.72380  Biso   1.000  H
  H104     1.0000 0.68880  0.73750  0.50130  Biso   1.000  H
  H105     1.0000 0.72150  0.85020  0.51500  Biso   1.000  H
  H106     1.0000 0.63240  0.82500  0.59690  Biso   1.000  H
  H107     1.0000 0.79650  0.76200  0.39340  Biso   1.000  H
  H108     1.0000 0.85290  0.72560  0.34220  Biso   1.000  H
  H109     1.0000 0.87070  0.65060  0.40620  Biso   1.000  H
  H110     1.0000 0.82150  0.68720  0.45700  Biso   1.000  H
  H111     1.0000 0.54740  0.91930  0.62890  Biso   1.000  H
  H112     1.0000 0.52080  0.97820  0.67970  Biso   1.000  H
  H113     1.0000 0.66050  0.01390  0.69510  Biso   1.000  H
  H114     1.0000 0.68550  0.95720  0.64300  Biso   1.000  H
  H115     1.0000 0.46960  0.77470  0.87650  Biso   1.000  H
  H116     1.0000 0.43390  0.82870  0.92780  Biso   1.000  H
  H117     1.0000 0.31010  0.76590  0.93040  Biso   1.000  H
  H118     1.0000 0.34790  0.71360  0.88300  Biso   1.000  H
  H119     1.0000 0.34840  0.91160  0.97020  Biso   1.000  H
  H120     1.0000 0.28300  0.99260  0.06550  Biso   1.000  H
  H121     1.0000 0.25060  0.87850  0.04160  Biso   1.000  H
  H122     1.0000 0.37760  0.96560  0.89090  Biso   1.000  H
  H123     1.0000 0.39370  0.01260  0.85770  Biso   1.000  H
  H124     1.0000 0.44310  0.08530  0.96210  Biso   1.000  H
  H125     1.0000 0.39890  0.04940  0.99760  Biso   1.000  H
  H126     1.0000 0.17140  0.05150  0.11680  Biso   1.000  H
  H127     1.0000 0.12400  0.08850  0.17320  Biso   1.000  H
  H128     1.0000 0.11800  0.99770  0.21740  Biso   1.000  H
  H129     1.0000 0.17210  0.96200  0.16560  Biso   1.000  H
  H130     1.0000 0.00120  0.53520  0.38580  Biso   1.000  H
  H131     1.0000 0.03080  0.50110  0.42580  Biso   1.000  H
  H132     1.0000 0.16880  0.53080  0.41020  Biso   1.000  H
  H133     1.0000 0.13930  0.56300  0.36690  Biso   1.000  H
  H134     1.0000 0.12850  0.41900  0.45060  Biso   1.000  H
  H135     1.0000 0.19290  0.39560  0.54780  Biso   1.000  H
  H136     1.0000 0.21310  0.50100  0.53280  Biso   1.000  H
  H137     1.0000 0.14820  0.29910  0.36980  Biso   1.000  H
  H138     1.0000 0.11690  0.23760  0.33340  Biso   1.000  H
  H139     1.0000 0.03980  0.23740  0.43320  Biso   1.000  H
  H140     1.0000 0.07530  0.29910  0.47130  Biso   1.000  H
  H141     1.0000 0.34720  0.52670  0.57410  Biso   1.000  H
  H142     1.0000 0.41110  0.55110  0.62220  Biso   1.000  H
  H143     1.0000 0.32840  0.53110  0.71200  Biso   1.000  H
  H144     1.0000 0.27560  0.49380  0.65890  Biso   1.000  H
  C1       1.0000 0.56740  0.54290  0.72700  Biso   1.000  C
  C2       1.0000 0.58750  0.50443  0.70410  Biso   1.000  C
  C3       1.0000 0.58810  0.49130  0.66260  Biso   1.000  C
  C4       1.0000 0.60150  0.45550  0.64030  Biso   1.000  C
  C5       1.0000 0.61920  0.42998  0.66010  Biso   1.000  C
  C6       1.0000 0.62130  0.44293  0.70220  Biso   1.000  C
  C7       1.0000 0.60570  0.48040  0.72370  Biso   1.000  C
  C8       1.0000 0.64440  0.37414  0.59860  Biso   1.000  C
  C9       1.0000 0.66180  0.33256  0.58660  Biso   1.000  C
  C10      1.0000 0.69320  0.32117  0.55350  Biso   1.000  C
  C11      1.0000 0.71220  0.28221  0.54010  Biso   1.000  C
  C12      1.0000 0.70040  0.25800  0.56210  Biso   1.000  C
  C13      1.0000 0.66890  0.27073  0.59529  Biso   1.000  C
  C14      1.0000 0.64910  0.30738  0.60746  Biso   1.000  C
  C15      1.0000 0.74790  0.27120  0.50690  Biso   1.000  C
  C16      1.0000 0.78070  0.21375  0.45280  Biso   1.000  C
  C17      1.0000 0.83280  0.22197  0.45950  Biso   1.000  C
  C18      1.0000 0.86540  0.20050  0.43317  Biso   1.000  C
  C19      1.0000 0.85100  0.16911  0.39910  Biso   1.000  C
  C20      1.0000 0.80300  0.16050  0.39270  Biso   1.000  C
  C21      1.0000 0.76740  0.18144  0.41900  Biso   1.000  C
  C22      1.0000 0.88950  0.14660  0.37060  Biso   1.000  C
  C23      1.0000 0.65910  0.24314  0.61950  Biso   1.000  C
  C24      1.0000 0.60170  0.22511  0.66640  Biso   1.000  C
  C25      1.0000 0.63790  0.20860  0.68620  Biso   1.000  C
  C26      1.0000 0.61810  0.18717  0.71170  Biso   1.000  C
  C27      1.0000 0.57220  0.18517  0.72010  Biso   1.000  C
  C28      1.0000 0.54160  0.20220  0.70050  Biso   1.000  C
  C29      1.0000 0.55370  0.22440  0.67450  Biso   1.000  C
  C30      1.0000 0.55360  0.16231  0.74464  Biso   1.000  C
  C31      1.0000 0.95940  0.67430  0.20472  Biso   1.000  C
  C32      1.0000 0.93990  0.69480  0.17751  Biso   1.000  C
  C33      1.0000 0.93420  0.67690  0.13640  Biso   1.000  C
  C34      1.0000 0.91510  0.69510  0.11140  Biso   1.000  C
  C35      1.0000 0.89830  0.73240  0.12700  Biso   1.000  C
  C36      1.0000 0.90050  0.75060  0.16920  Biso   1.000  C
  C37      1.0000 0.92300  0.73240  0.19510  Biso   1.000  C
  C38      1.0000 0.86730  0.74580  0.06520  Biso   1.000  C
  C39      1.0000 0.84540  0.77600  0.04890  Biso   1.000  C
  C40      1.0000 0.81510  0.76461  0.01590  Biso   1.000  C
  C41      1.0000 0.78950  0.79159  0.00280  Biso   1.000  C
  C42      1.0000 0.79580  0.83151  0.02400  Biso   1.000  C
  C43      1.0000 0.82590  0.84390  0.05690  Biso   1.000  C
  C44      1.0000 0.84940  0.81660  0.07190  Biso   1.000  C
  C45      1.0000 0.75820  0.78080  0.96520  Biso   1.000  C
  C46      1.0000 0.69940  0.72676  0.92910  Biso   1.000  C
  C47      1.0000 0.68820  0.73920  0.89590  Biso   1.000  C
  C48      1.0000 0.65380  0.71793  0.86570  Biso   1.000  C
  C49      1.0000 0.63050  0.68615  0.87090  Biso   1.000  C
  C50      1.0000 0.64310  0.67410  0.90410  Biso   1.000  C
  C51      1.0000 0.67380  0.69458  0.93300  Biso   1.000  C
  C52      1.0000 0.59470  0.66390  0.83780  Biso   1.000  C
  C53      1.0000 0.83160  0.88370  0.08130  Biso   1.000  C
  C54      1.0000 0.88100  0.93350  0.13170  Biso   1.000  C
  C55      1.0000 0.92910  0.93880  0.14240  Biso   1.000  C
  C56      1.0000 0.94500  0.97330  0.17370  Biso   1.000  C
  C57      1.0000 0.90940  0.99950  0.19530  Biso   1.000  C
  C58      1.0000 0.86330  0.99434  0.18250  Biso   1.000  C
  C59      1.0000 0.84840  0.96060  0.15080  Biso   1.000  C
  C60      1.0000 0.92770  0.03450  0.22770  Biso   1.000  C
  C61      1.0000 0.07090  0.70910  0.34070  Biso   1.000  C
  C62      1.0000 0.09230  0.73930  0.37430  Biso   1.000  C
  C63      1.0000 0.06240  0.77330  0.38740  Biso   1.000  C
  C64      1.0000 0.08410  0.80490  0.41810  Biso   1.000  C
  C65      1.0000 0.12980  0.80350  0.43490  Biso   1.000  C
  C66      1.0000 0.15760  0.76818  0.42050  Biso   1.000  C
  C67      1.0000 0.13510  0.73794  0.39150  Biso   1.000  C
  C68      1.0000 0.19080  0.84678  0.47810  Biso   1.000  C
  C69      1.0000 0.19730  0.88888  0.50303  Biso   1.000  C
  C70      1.0000 0.17320  0.91793  0.49329  Biso   1.000  C
  C71      1.0000 0.18030  0.95772  0.51770  Biso   1.000  C
  C72      1.0000 0.21240  0.96604  0.54933  Biso   1.000  C
  C73      1.0000 0.23870  0.93804  0.55921  Biso   1.000  C
  C74      1.0000 0.23130  0.89849  0.53552  Biso   1.000  C
  C75      1.0000 0.15530  0.99010  0.50880  Biso   1.000  C
  C76      1.0000 0.12060  0.00500  0.44850  Biso   1.000  C
  C77      1.0000 0.11500  0.99200  0.40620  Biso   1.000  C
  C78      1.0000 0.09850  0.01760  0.38590  Biso   1.000  C
  C79      1.0000 0.07180  0.04900  0.40600  Biso   1.000  C
  C80      1.0000 0.07310  0.06160  0.44710  Biso   1.000  C
  C81      1.0000 0.09910  0.03946  0.46840  Biso   1.000  C
  C82      1.0000 0.04440  0.07040  0.38040  Biso   1.000  C
  C83      1.0000 0.27170  0.94694  0.59390  Biso   1.000  C
  C84      1.0000 0.32380  0.00300  0.63570  Biso   1.000  C
  C85      1.0000 0.33820  0.04090  0.63770  Biso   1.000  C
  C86      1.0000 0.36690  0.06250  0.67110  Biso   1.000  C
  C87      1.0000 0.38180  0.04790  0.70020  Biso   1.000  C
  C88      1.0000 0.36940  0.00870  0.69780  Biso   1.000  C
  C89      1.0000 0.33880  0.98730  0.66640  Biso   1.000  C
  C90      1.0000 0.41160  0.07240  0.73510  Biso   1.000  C
  C91      1.0000 0.45220  0.57505  0.84403  Biso   1.000  C
  C92      1.0000 0.43180  0.55249  0.86997  Biso   1.000  C
  C93      1.0000 0.46420  0.53403  0.88970  Biso   1.000  C
  C94      1.0000 0.44650  0.51465  0.91407  Biso   1.000  C
  C95      1.0000 0.39900  0.51347  0.92260  Biso   1.000  C
  C96      1.0000 0.36560  0.53140  0.90490  Biso   1.000  C
  C97      1.0000 0.38380  0.55040  0.87920  Biso   1.000  C
  C98      1.0000 0.33990  0.49478  0.96719  Biso   1.000  C
  C99      1.0000 0.33210  0.46451  0.98788  Biso   1.000  C
  C100     1.0000 0.35150  0.42743  0.97464  Biso   1.000  C
  C101     1.0000 0.34080  0.40151  0.99790  Biso   1.000  C
  C102     1.0000 0.31250  0.41273  0.03222  Biso   1.000  C
  C103     1.0000 0.29190  0.44890  0.04401  Biso   1.000  C
  C104     1.0000 0.30110  0.47560  0.02330  Biso   1.000  C
  C105     1.0000 0.36440  0.36171  0.98400  Biso   1.000  C
  C106     1.0000 0.38640  0.30509  0.92400  Biso   1.000  C
  C107     1.0000 0.37360  0.28640  0.88310  Biso   1.000  C
  C108     1.0000 0.39170  0.24988  0.86150  Biso   1.000  C
  C109     1.0000 0.42180  0.23193  0.88100  Biso   1.000  C
  C110     1.0000 0.43680  0.24969  0.92069  Biso   1.000  C
  C111     1.0000 0.41670  0.28708  0.94307  Biso   1.000  C
  C112     1.0000 0.44170  0.19110  0.85820  Biso   1.000  C
  C113     1.0000 0.26250  0.46070  0.08350  Biso   1.000  C
  C114     1.0000 0.19280  0.50590  0.11390  Biso   1.000  C
  C115     1.0000 0.15470  0.52580  0.10150  Biso   1.000  C
  C116     1.0000 0.12010  0.54400  0.13040  Biso   1.000  C
  C117     1.0000 0.13160  0.55230  0.17410  Biso   1.000  C
  C118     1.0000 0.16740  0.53090  0.18450  Biso   1.000  C
  C119     1.0000 0.19820  0.50820  0.15210  Biso   1.000  C
  C120     1.0000 0.09550  0.57660  0.20320  Biso   1.000  C
  C121     1.0000 0.93760  0.02800  0.34610  Biso   1.000  C
  C122     1.0000 0.89700  0.06270  0.40730  Biso   1.000  C
  C123     1.0000 0.94060  0.01030  0.41170  Biso   1.000  C
  C124     1.0000 0.93260  0.54290  0.22700  Biso   1.000  C
  C125     1.0000 0.91250  0.50443  0.20410  Biso   1.000  C
  C126     1.0000 0.91190  0.49130  0.16260  Biso   1.000  C
  C127     1.0000 0.89850  0.45550  0.14030  Biso   1.000  C
  C128     1.0000 0.88080  0.42998  0.16010  Biso   1.000  C
  C129     1.0000 0.87870  0.44293  0.20220  Biso   1.000  C
  C130     1.0000 0.89430  0.48040  0.22370  Biso   1.000  C
  C131     1.0000 0.85560  0.37414  0.09860  Biso   1.000  C
  C132     1.0000 0.83820  0.33256  0.08660  Biso   1.000  C
  C133     1.0000 0.80680  0.32117  0.05350  Biso   1.000  C
  C134     1.0000 0.78780  0.28221  0.04010  Biso   1.000  C
  C135     1.0000 0.79960  0.25800  0.06210  Biso   1.000  C
  C136     1.0000 0.83110  0.27073  0.09529  Biso   1.000  C
  C137     1.0000 0.85090  0.30738  0.10746  Biso   1.000  C
  C138     1.0000 0.75210  0.27120  0.00690  Biso   1.000  C
  C139     1.0000 0.71930  0.21375  0.95280  Biso   1.000  C
  C140     1.0000 0.66720  0.22197  0.95950  Biso   1.000  C
  C141     1.0000 0.63460  0.20050  0.93317  Biso   1.000  C
  C142     1.0000 0.64900  0.16911  0.89910  Biso   1.000  C
  C143     1.0000 0.69700  0.16050  0.89270  Biso   1.000  C
  C144     1.0000 0.73260  0.18144  0.91900  Biso   1.000  C
  C145     1.0000 0.61050  0.14660  0.87060  Biso   1.000  C
  C146     1.0000 0.84090  0.24314  0.11950  Biso   1.000  C
  C147     1.0000 0.89830  0.22511  0.16640  Biso   1.000  C
  C148     1.0000 0.86210  0.20860  0.18620  Biso   1.000  C
  C149     1.0000 0.88190  0.18717  0.21170  Biso   1.000  C
  C150     1.0000 0.92780  0.18517  0.22010  Biso   1.000  C
  C151     1.0000 0.95840  0.20220  0.20050  Biso   1.000  C
  C152     1.0000 0.94630  0.22440  0.17450  Biso   1.000  C
  C153     1.0000 0.94640  0.16231  0.24464  Biso   1.000  C
  C154     1.0000 0.54060  0.67430  0.70472  Biso   1.000  C
  C155     1.0000 0.56010  0.69480  0.67751  Biso   1.000  C
  C156     1.0000 0.56580  0.67690  0.63640  Biso   1.000  C
  C157     1.0000 0.58490  0.69510  0.61140  Biso   1.000  C
  C158     1.0000 0.60170  0.73240  0.62700  Biso   1.000  C
  C159     1.0000 0.59950  0.75060  0.66920  Biso   1.000  C
  C160     1.0000 0.57700  0.73240  0.69510  Biso   1.000  C
  C161     1.0000 0.63270  0.74580  0.56520  Biso   1.000  C
  C162     1.0000 0.65460  0.77600  0.54890  Biso   1.000  C
  C163     1.0000 0.68490  0.76461  0.51590  Biso   1.000  C
  C164     1.0000 0.71050  0.79159  0.50280  Biso   1.000  C
  C165     1.0000 0.70420  0.83151  0.52400  Biso   1.000  C
  C166     1.0000 0.67410  0.84390  0.55690  Biso   1.000  C
  C167     1.0000 0.65060  0.81660  0.57190  Biso   1.000  C
  C168     1.0000 0.74180  0.78080  0.46520  Biso   1.000  C
  C169     1.0000 0.80060  0.72676  0.42910  Biso   1.000  C
  C170     1.0000 0.81180  0.73920  0.39590  Biso   1.000  C
  C171     1.0000 0.84620  0.71793  0.36570  Biso   1.000  C
  C172     1.0000 0.86950  0.68615  0.37090  Biso   1.000  C
  C173     1.0000 0.85690  0.67410  0.40410  Biso   1.000  C
  C174     1.0000 0.82620  0.69458  0.43300  Biso   1.000  C
  C175     1.0000 0.90530  0.66390  0.33780  Biso   1.000  C
  C176     1.0000 0.66840  0.88370  0.58130  Biso   1.000  C
  C177     1.0000 0.61900  0.93350  0.63170  Biso   1.000  C
  C178     1.0000 0.57090  0.93880  0.64240  Biso   1.000  C
  C179     1.0000 0.55500  0.97330  0.67370  Biso   1.000  C
  C180     1.0000 0.59060  0.99950  0.69530  Biso   1.000  C
  C181     1.0000 0.63670  0.99434  0.68250  Biso   1.000  C
  C182     1.0000 0.65160  0.96060  0.65080  Biso   1.000  C
  C183     1.0000 0.57230  0.03450  0.72770  Biso   1.000  C
  C184     1.0000 0.42910  0.70910  0.84070  Biso   1.000  C
  C185     1.0000 0.40770  0.73930  0.87430  Biso   1.000  C
  C186     1.0000 0.43760  0.77330  0.88740  Biso   1.000  C
  C187     1.0000 0.41590  0.80490  0.91810  Biso   1.000  C
  C188     1.0000 0.37020  0.80350  0.93490  Biso   1.000  C
  C189     1.0000 0.34240  0.76818  0.92050  Biso   1.000  C
  C190     1.0000 0.36490  0.73794  0.89150  Biso   1.000  C
  C191     1.0000 0.30920  0.84678  0.97810  Biso   1.000  C
  C192     1.0000 0.30270  0.88888  0.00303  Biso   1.000  C
  C193     1.0000 0.32680  0.91793  0.99329  Biso   1.000  C
  C194     1.0000 0.31970  0.95772  0.01770  Biso   1.000  C
  C195     1.0000 0.28760  0.96604  0.04933  Biso   1.000  C
  C196     1.0000 0.26130  0.93804  0.05921  Biso   1.000  C
  C197     1.0000 0.26870  0.89849  0.03552  Biso   1.000  C
  C198     1.0000 0.34470  0.99010  0.00880  Biso   1.000  C
  C199     1.0000 0.37940  0.00500  0.94850  Biso   1.000  C
  C200     1.0000 0.38500  0.99200  0.90620  Biso   1.000  C
  C201     1.0000 0.40150  0.01760  0.88590  Biso   1.000  C
  C202     1.0000 0.42820  0.04900  0.90600  Biso   1.000  C
  C203     1.0000 0.42690  0.06160  0.94710  Biso   1.000  C
  C204     1.0000 0.40090  0.03946  0.96840  Biso   1.000  C
  C205     1.0000 0.45560  0.07040  0.88040  Biso   1.000  C
  C206     1.0000 0.22830  0.94694  0.09390  Biso   1.000  C
  C207     1.0000 0.17620  0.00300  0.13570  Biso   1.000  C
  C208     1.0000 0.16180  0.04090  0.13770  Biso   1.000  C
  C209     1.0000 0.13310  0.06250  0.17110  Biso   1.000  C
  C210     1.0000 0.11820  0.04790  0.20020  Biso   1.000  C
  C211     1.0000 0.13060  0.00870  0.19780  Biso   1.000  C
  C212     1.0000 0.16120  0.98730  0.16640  Biso   1.000  C
  C213     1.0000 0.08840  0.07240  0.23510  Biso   1.000  C
  C214     1.0000 0.04780  0.57505  0.34403  Biso   1.000  C
  C215     1.0000 0.06820  0.55249  0.36997  Biso   1.000  C
  C216     1.0000 0.03580  0.53403  0.38970  Biso   1.000  C
  C217     1.0000 0.05350  0.51465  0.41407  Biso   1.000  C
  C218     1.0000 0.10100  0.51347  0.42260  Biso   1.000  C
  C219     1.0000 0.13440  0.53140  0.40490  Biso   1.000  C
  C220     1.0000 0.11620  0.55040  0.37920  Biso   1.000  C
  C221     1.0000 0.16010  0.49478  0.46719  Biso   1.000  C
  C222     1.0000 0.16790  0.46451  0.48788  Biso   1.000  C
  C223     1.0000 0.14850  0.42743  0.47464  Biso   1.000  C
  C224     1.0000 0.15920  0.40151  0.49790  Biso   1.000  C
  C225     1.0000 0.18750  0.41273  0.53222  Biso   1.000  C
  C226     1.0000 0.20810  0.44890  0.54401  Biso   1.000  C
  C227     1.0000 0.19890  0.47560  0.52330  Biso   1.000  C
  C228     1.0000 0.13560  0.36171  0.48400  Biso   1.000  C
  C229     1.0000 0.11360  0.30509  0.42400  Biso   1.000  C
  C230     1.0000 0.12640  0.28640  0.38310  Biso   1.000  C
  C231     1.0000 0.10830  0.24988  0.36150  Biso   1.000  C
  C232     1.0000 0.07820  0.23193  0.38100  Biso   1.000  C
  C233     1.0000 0.06320  0.24969  0.42069  Biso   1.000  C
  C234     1.0000 0.08330  0.28708  0.44307  Biso   1.000  C
  C235     1.0000 0.05830  0.19110  0.35820  Biso   1.000  C
  C236     1.0000 0.23750  0.46070  0.58350  Biso   1.000  C
  C237     1.0000 0.30720  0.50590  0.61390  Biso   1.000  C
  C238     1.0000 0.34530  0.52580  0.60150  Biso   1.000  C
  C239     1.0000 0.37990  0.54400  0.63040  Biso   1.000  C
  C240     1.0000 0.36840  0.55230  0.67410  Biso   1.000  C
  C241     1.0000 0.33260  0.53090  0.68450  Biso   1.000  C
  C242     1.0000 0.30180  0.50820  0.65210  Biso   1.000  C
  C243     1.0000 0.40450  0.57660  0.70320  Biso   1.000  C
  C244     1.0000 0.56240  0.02800  0.84610  Biso   1.000  C
  C245     1.0000 0.60300  0.06270  0.90730  Biso   1.000  C
  C246     1.0000 0.55940  0.01030  0.91170  Biso   1.000  C
  N1       1.0000 0.63710  0.39073  0.63951  Biso   1.000  N
  N2       1.0000 0.74560  0.23423  0.48138  Biso   1.000  N
  N3       1.0000 0.61910  0.24678  0.64066  Biso   1.000  N
  N4       1.0000 0.87750  0.75409  0.10441  Biso   1.000  N
  N5       1.0000 0.73340  0.74524  0.96006  Biso   1.000  N
  N6       1.0000 0.86970  0.89634  0.10130  Biso   1.000  N
  N7       1.0000 0.14680  0.83704  0.46190  Biso   1.000  N
  N8       1.0000 0.14470  0.98209  0.46752  Biso   1.000  N
  N9       1.0000 0.29510  0.98232  0.60250  Biso   1.000  N
  N10      1.0000 0.38290  0.49234  0.94815  Biso   1.000  N
  N11      1.0000 0.36698  0.34232  0.94320  Biso   1.000  N
  N12      1.0000 0.22360  0.48480  0.08165  Biso   1.000  N
  N13      1.0000 0.91570  0.02350  0.37940  Biso   1.000  N
  N14      1.0000 0.86290  0.39073  0.13951  Biso   1.000  N
  N15      1.0000 0.75440  0.23423  0.98138  Biso   1.000  N
  N16      1.0000 0.88090  0.24678  0.14066  Biso   1.000  N
  N17      1.0000 0.62250  0.75409  0.60441  Biso   1.000  N
  N18      1.0000 0.76660  0.74524  0.46006  Biso   1.000  N
  N19      1.0000 0.63030  0.89634  0.60130  Biso   1.000  N
  N20      1.0000 0.35320  0.83704  0.96190  Biso   1.000  N
  N21      1.0000 0.35530  0.98209  0.96752  Biso   1.000  N
  N22      1.0000 0.20490  0.98232  0.10250  Biso   1.000  N
  N23      1.0000 0.11710  0.49234  0.44815  Biso   1.000  N
  N24      1.0000 0.13302  0.34232  0.44320  Biso   1.000  N
  N25      1.0000 0.27640  0.48480  0.58165  Biso   1.000  N
  N26      1.0000 0.58430  0.02350  0.87940  Biso   1.000  N
  O1       1.0000 0.56716  0.55431  0.76662  Biso   1.000  O
  O2       1.0000 0.54910  0.56363  0.70585  Biso   1.000  O
  O3       1.0000 0.93190  0.14879  0.38554  Biso   1.000  O
  O4       1.0000 0.87593  0.12518  0.33356  Biso   1.000  O
  O5       1.0000 0.50613  0.16176  0.75065  Biso   1.000  O
  O6       1.0000 0.58480  0.14534  0.76013  Biso   1.000  O
  O7       1.0000 0.63950  0.39024  0.57297  Biso   1.000  O
  O8       1.0000 0.77950  0.29366  0.50244  Biso   1.000  O
  O9       1.0000 0.69100  0.21918  0.62008  Biso   1.000  O
  O10      1.0000 0.96945  0.69461  0.24246  Biso   1.000  O
  O11      1.0000 0.97113  0.63906  0.18891  Biso   1.000  O
  O12      1.0000 0.57935  0.67920  0.81244  Biso   1.000  O
  O13      1.0000 0.57919  0.63180  0.84127  Biso   1.000  O
  O14      1.0000 0.89630  0.05926  0.24688  Biso   1.000  O
  O15      1.0000 0.97400  0.03667  0.23559  Biso   1.000  O
  O16      1.0000 0.87770  0.71331  0.03980  Biso   1.000  O
  O17      1.0000 0.75070  0.80061  0.94389  Biso   1.000  O
  O18      1.0000 0.79530  0.90607  0.08250  Biso   1.000  O
  O19      1.0000 0.03320  0.71223  0.32100  Biso   1.000  O
  O20      1.0000 0.09650  0.67299  0.32832  Biso   1.000  O
  O21      1.0000 0.02218  0.10063  0.40009  Biso   1.000  O
  O22      1.0000 0.05270  0.05860  0.34330  Biso   1.000  O
  O23      1.0000 0.42420  0.05611  0.76201  Biso   1.000  O
  O24      1.0000 0.42487  0.10528  0.73736  Biso   1.000  O
  O25      1.0000 0.22528  0.82298  0.47261  Biso   1.000  O
  O26      1.0000 0.14370  0.01994  0.53399  Biso   1.000  O
  O27      1.0000 0.28055  0.92448  0.61411  Biso   1.000  O
  O28      1.0000 0.49756  0.57583  0.83840  Biso   1.000  O
  O29      1.0000 0.42000  0.59032  0.82728  Biso   1.000  O
  O30      1.0000 0.43407  0.17826  0.82010  Biso   1.000  O
  O31      1.0000 0.46494  0.17466  0.88006  Biso   1.000  O
  O32      1.0000 0.05520  0.58620  0.18890  Biso   1.000  O
  O33      1.0000 0.10510  0.58430  0.23920  Biso   1.000  O
  O34      1.0000 0.30833  0.51747  0.96612  Biso   1.000  O
  O35      1.0000 0.38118  0.34850  0.01018  Biso   1.000  O
  O36      1.0000 0.27160  0.45095  0.11278  Biso   1.000  O
  O37      1.0000 0.49343  0.62654  0.77569  Biso   1.000  O
  O38      1.0000 0.98961  0.10632  0.30592  Biso   1.000  O
  O39      1.0000 0.03300  0.99080  0.27840  Biso   1.000  O
  O40      1.0000 0.95010  0.04390  0.32390  Biso   1.000  O
  O41      1.0000 0.93284  0.55431  0.26662  Biso   1.000  O
  O42      1.0000 0.95090  0.56363  0.20585  Biso   1.000  O
  O43      1.0000 0.56810  0.14879  0.88554  Biso   1.000  O
  O44      1.0000 0.62407  0.12518  0.83356  Biso   1.000  O
  O45      1.0000 0.99387  0.16176  0.25065  Biso   1.000  O
  O46      1.0000 0.91520  0.14534  0.26013  Biso   1.000  O
  O47      1.0000 0.86050  0.39024  0.07297  Biso   1.000  O
  O48      1.0000 0.72050  0.29366  0.00244  Biso   1.000  O
  O49      1.0000 0.80900  0.21918  0.12008  Biso   1.000  O
  O50      1.0000 0.53055  0.69461  0.74246  Biso   1.000  O
  O51      1.0000 0.52887  0.63906  0.68891  Biso   1.000  O
  O52      1.0000 0.92065  0.67920  0.31244  Biso   1.000  O
  O53      1.0000 0.92081  0.63180  0.34127  Biso   1.000  O
  O54      1.0000 0.60370  0.05926  0.74688  Biso   1.000  O
  O55      1.0000 0.52600  0.03667  0.73559  Biso   1.000  O
  O56      1.0000 0.62230  0.71331  0.53980  Biso   1.000  O
  O57      1.0000 0.74930  0.80061  0.44389  Biso   1.000  O
  O58      1.0000 0.70470  0.90607  0.58250  Biso   1.000  O
  O59      1.0000 0.46680  0.71223  0.82100  Biso   1.000  O
  O60      1.0000 0.40350  0.67299  0.82832  Biso   1.000  O
  O61      1.0000 0.47782  0.10063  0.90009  Biso   1.000  O
  O62      1.0000 0.44730  0.05860  0.84330  Biso   1.000  O
  O63      1.0000 0.07580  0.05611  0.26201  Biso   1.000  O
  O64      1.0000 0.07513  0.10528  0.23736  Biso   1.000  O
  O65      1.0000 0.27472  0.82298  0.97261  Biso   1.000  O
  O66      1.0000 0.35630  0.01994  0.03399  Biso   1.000  O
  O67      1.0000 0.21945  0.92448  0.11411  Biso   1.000  O
  O68      1.0000 0.00244  0.57583  0.33840  Biso   1.000  O
  O69      1.0000 0.08000  0.59032  0.32728  Biso   1.000  O
  O70      1.0000 0.06593  0.17826  0.32010  Biso   1.000  O
  O71      1.0000 0.03506  0.17466  0.38006  Biso   1.000  O
  O72      1.0000 0.44480  0.58620  0.68890  Biso   1.000  O
  O73      1.0000 0.39490  0.58430  0.73920  Biso   1.000  O
  O74      1.0000 0.19167  0.51747  0.46612  Biso   1.000  O
  O75      1.0000 0.11882  0.34850  0.51018  Biso   1.000  O
  O76      1.0000 0.22840  0.45095  0.61278  Biso   1.000  O
  O77      1.0000 0.00657  0.62654  0.27569  Biso   1.000  O
  O78      1.0000 0.51039  0.10632  0.80592  Biso   1.000  O
  O79      1.0000 0.46700  0.99080  0.77840  Biso   1.000  O
  O80      1.0000 0.54990  0.04390  0.82390  Biso   1.000  O
  Zn17     1.0000 0.03312  0.40083  0.69683  Biso   1.000  Zn
  Zn18     1.0000 0.00176  0.39514  0.78309  Biso   1.000  Zn
  Zn19     1.0000 0.48690  0.31881  0.20895  Biso   1.000  Zn
  Zn20     1.0000 0.92368  0.37651  0.71028  Biso   1.000  Zn
  Zn21     1.0000 0.49568  0.87274  0.13566  Biso   1.000  Zn
  Zn22     1.0000 0.51122  0.95015  0.20908  Biso   1.000  Zn
  Zn23     1.0000 0.96836  0.86612  0.72009  Biso   1.000  Zn
  Zn24     1.0000 0.42285  0.89425  0.21162  Biso   1.000  Zn
  Zn25     1.0000 0.46688  0.40083  0.19683  Biso   1.000  Zn
  Zn26     1.0000 0.49824  0.39514  0.28309  Biso   1.000  Zn
  Zn27     1.0000 0.01310  0.31881  0.70895  Biso   1.000  Zn
  Zn28     1.0000 0.57632  0.37651  0.21028  Biso   1.000  Zn
  Zn29     1.0000 0.00432  0.87274  0.63566  Biso   1.000  Zn
  Zn30     1.0000 0.98878  0.95015  0.70908  Biso   1.000  Zn
  Zn31     1.0000 0.53164  0.86612  0.22009  Biso   1.000  Zn
  Zn32     1.0000 0.07715  0.89425  0.71162  Biso   1.000  Zn
  H145     1.0000 0.14400  0.62370  0.84480  Biso   1.000  H
  H146     1.0000 0.21850  0.77870  0.01710  Biso   1.000  H
  H147     1.0000 0.09930  0.73440  0.86090  Biso   1.000  H
  H148     1.0000 0.36970  0.22190  0.38070  Biso   1.000  H
  H149     1.0000 0.24000  0.26660  0.52180  Biso   1.000  H
  H150     1.0000 0.39430  0.12050  0.40400  Biso   1.000  H
  H151     1.0000 0.62450  0.14430  0.02980  Biso   1.000  H
  H152     1.0000 0.65480  0.04080  0.04880  Biso   1.000  H
  H153     1.0000 0.79110  0.00620  0.91630  Biso   1.000  H
  H154     1.0000 0.90410  0.52470  0.54800  Biso   1.000  H
  H155     1.0000 0.85510  0.64550  0.57320  Biso   1.000  H
  H156     1.0000 0.71750  0.51280  0.44260  Biso   1.000  H
  H157     1.0000 0.07810  0.49120  0.85150  Biso   1.000  H
  H158     1.0000 0.09920  0.55270  0.88890  Biso   1.000  H
  H159     1.0000 0.13330  0.57370  0.78340  Biso   1.000  H
  H160     1.0000 0.10790  0.51060  0.74710  Biso   1.000  H
  H161     1.0000 0.20220  0.66100  0.96040  Biso   1.000  H
  H162     1.0000 0.21390  0.76760  0.94550  Biso   1.000  H
  H163     1.0000 0.12680  0.68470  0.86990  Biso   1.000  H
  H164     1.0000 0.34360  0.75720  0.01720  Biso   1.000  H
  H165     1.0000 0.39960  0.79350  0.06250  Biso   1.000  H
  H166     1.0000 0.29340  0.86070  0.13070  Biso   1.000  H
  H167     1.0000 0.23360  0.82590  0.08580  Biso   1.000  H
  H168     1.0000 0.17240  0.78850  0.81720  Biso   1.000  H
  H169     1.0000 0.14090  0.82650  0.77690  Biso   1.000  H
  H170     1.0000 0.00730  0.80090  0.79560  Biso   1.000  H
  H171     1.0000 0.02960  0.76230  0.83630  Biso   1.000  H
  H172     1.0000 0.44410  0.34960  0.37510  Biso   1.000  H
  H173     1.0000 0.41340  0.31820  0.41740  Biso   1.000  H
  H174     1.0000 0.38660  0.22400  0.31920  Biso   1.000  H
  H175     1.0000 0.42640  0.25440  0.27620  Biso   1.000  H
  H176     1.0000 0.31120  0.26250  0.49870  Biso   1.000  H
  H177     1.0000 0.27850  0.14980  0.48500  Biso   1.000  H
  H178     1.0000 0.36760  0.17500  0.40310  Biso   1.000  H
  H179     1.0000 0.20350  0.23800  0.60660  Biso   1.000  H
  H180     1.0000 0.14710  0.27440  0.65780  Biso   1.000  H
  H181     1.0000 0.12930  0.34940  0.59380  Biso   1.000  H
  H182     1.0000 0.17850  0.31280  0.54300  Biso   1.000  H
  H183     1.0000 0.45260  0.08070  0.37110  Biso   1.000  H
  H184     1.0000 0.47920  0.02180  0.32030  Biso   1.000  H
  H185     1.0000 0.33950  0.98610  0.30490  Biso   1.000  H
  H186     1.0000 0.31450  0.04280  0.35700  Biso   1.000  H
  H187     1.0000 0.53040  0.22530  0.12350  Biso   1.000  H
  H188     1.0000 0.56610  0.17130  0.07220  Biso   1.000  H
  H189     1.0000 0.68990  0.23410  0.06960  Biso   1.000  H
  H190     1.0000 0.65210  0.28640  0.11700  Biso   1.000  H
  H191     1.0000 0.65160  0.08840  0.02980  Biso   1.000  H
  H192     1.0000 0.71700  0.00740  0.93450  Biso   1.000  H
  H193     1.0000 0.74940  0.12150  0.95840  Biso   1.000  H
  H194     1.0000 0.62240  0.03440  0.10910  Biso   1.000  H
  H195     1.0000 0.60630  0.98740  0.14230  Biso   1.000  H
  H196     1.0000 0.55690  0.91470  0.03790  Biso   1.000  H
  H197     1.0000 0.60110  0.95060  0.00240  Biso   1.000  H
  H198     1.0000 0.82860  0.94850  0.88320  Biso   1.000  H
  H199     1.0000 0.87600  0.91150  0.82680  Biso   1.000  H
  H200     1.0000 0.88200  0.00230  0.78260  Biso   1.000  H
  H201     1.0000 0.82790  0.03800  0.83440  Biso   1.000  H
  H202     1.0000 0.99880  0.46480  0.61420  Biso   1.000  H
  H203     1.0000 0.96920  0.49890  0.57420  Biso   1.000  H
  H204     1.0000 0.83120  0.46920  0.58980  Biso   1.000  H
  H205     1.0000 0.86070  0.43700  0.63310  Biso   1.000  H
  H206     1.0000 0.87150  0.58100  0.54940  Biso   1.000  H
  H207     1.0000 0.80710  0.60440  0.45220  Biso   1.000  H
  H208     1.0000 0.78690  0.49900  0.46720  Biso   1.000  H
  H209     1.0000 0.85180  0.70090  0.63020  Biso   1.000  H
  H210     1.0000 0.88310  0.76240  0.66660  Biso   1.000  H
  H211     1.0000 0.96020  0.76260  0.56680  Biso   1.000  H
  H212     1.0000 0.92470  0.70090  0.52870  Biso   1.000  H
  H213     1.0000 0.65280  0.47330  0.42590  Biso   1.000  H
  H214     1.0000 0.58890  0.44890  0.37780  Biso   1.000  H
  H215     1.0000 0.67160  0.46890  0.28800  Biso   1.000  H
  H216     1.0000 0.72440  0.50620  0.34110  Biso   1.000  H
  H217     1.0000 0.35600  0.62370  0.34480  Biso   1.000  H
  H218     1.0000 0.28150  0.77870  0.51710  Biso   1.000  H
  H219     1.0000 0.40070  0.73440  0.36090  Biso   1.000  H
  H220     1.0000 0.13030  0.22190  0.88070  Biso   1.000  H
  H221     1.0000 0.26000  0.26660  0.02180  Biso   1.000  H
  H222     1.0000 0.10570  0.12050  0.90400  Biso   1.000  H
  H223     1.0000 0.87550  0.14430  0.52980  Biso   1.000  H
  H224     1.0000 0.84520  0.04080  0.54880  Biso   1.000  H
  H225     1.0000 0.70890  0.00620  0.41630  Biso   1.000  H
  H226     1.0000 0.59590  0.52470  0.04800  Biso   1.000  H
  H227     1.0000 0.64490  0.64550  0.07320  Biso   1.000  H
  H228     1.0000 0.78250  0.51280  0.94260  Biso   1.000  H
  H229     1.0000 0.42190  0.49120  0.35150  Biso   1.000  H
  H230     1.0000 0.40080  0.55270  0.38890  Biso   1.000  H
  H231     1.0000 0.36670  0.57370  0.28340  Biso   1.000  H
  H232     1.0000 0.39210  0.51060  0.24710  Biso   1.000  H
  H233     1.0000 0.29780  0.66100  0.46040  Biso   1.000  H
  H234     1.0000 0.28610  0.76760  0.44550  Biso   1.000  H
  H235     1.0000 0.37320  0.68470  0.36990  Biso   1.000  H
  H236     1.0000 0.15640  0.75720  0.51720  Biso   1.000  H
  H237     1.0000 0.10040  0.79350  0.56250  Biso   1.000  H
  H238     1.0000 0.20660  0.86070  0.63070  Biso   1.000  H
  H239     1.0000 0.26640  0.82590  0.58580  Biso   1.000  H
  H240     1.0000 0.32760  0.78850  0.31720  Biso   1.000  H
  H241     1.0000 0.35910  0.82650  0.27690  Biso   1.000  H
  H242     1.0000 0.49270  0.80090  0.29560  Biso   1.000  H
  H243     1.0000 0.47040  0.76230  0.33630  Biso   1.000  H
  H244     1.0000 0.05590  0.34960  0.87510  Biso   1.000  H
  H245     1.0000 0.08660  0.31820  0.91740  Biso   1.000  H
  H246     1.0000 0.11340  0.22400  0.81920  Biso   1.000  H
  H247     1.0000 0.07360  0.25440  0.77620  Biso   1.000  H
  H248     1.0000 0.18880  0.26250  0.99870  Biso   1.000  H
  H249     1.0000 0.22150  0.14980  0.98500  Biso   1.000  H
  H250     1.0000 0.13240  0.17500  0.90310  Biso   1.000  H
  H251     1.0000 0.29650  0.23800  0.10660  Biso   1.000  H
  H252     1.0000 0.35290  0.27440  0.15780  Biso   1.000  H
  H253     1.0000 0.37070  0.34940  0.09380  Biso   1.000  H
  H254     1.0000 0.32150  0.31280  0.04300  Biso   1.000  H
  H255     1.0000 0.04740  0.08070  0.87110  Biso   1.000  H
  H256     1.0000 0.02080  0.02180  0.82030  Biso   1.000  H
  H257     1.0000 0.16050  0.98610  0.80490  Biso   1.000  H
  H258     1.0000 0.18550  0.04280  0.85700  Biso   1.000  H
  H259     1.0000 0.96960  0.22530  0.62350  Biso   1.000  H
  H260     1.0000 0.93390  0.17130  0.57220  Biso   1.000  H
  H261     1.0000 0.81010  0.23410  0.56960  Biso   1.000  H
  H262     1.0000 0.84790  0.28640  0.61700  Biso   1.000  H
  H263     1.0000 0.84840  0.08840  0.52980  Biso   1.000  H
  H264     1.0000 0.78300  0.00740  0.43450  Biso   1.000  H
  H265     1.0000 0.75060  0.12150  0.45840  Biso   1.000  H
  H266     1.0000 0.87760  0.03440  0.60910  Biso   1.000  H
  H267     1.0000 0.89370  0.98740  0.64230  Biso   1.000  H
  H268     1.0000 0.94310  0.91470  0.53790  Biso   1.000  H
  H269     1.0000 0.89890  0.95060  0.50240  Biso   1.000  H
  H270     1.0000 0.67140  0.94850  0.38320  Biso   1.000  H
  H271     1.0000 0.62400  0.91150  0.32680  Biso   1.000  H
  H272     1.0000 0.61800  0.00230  0.28260  Biso   1.000  H
  H273     1.0000 0.67210  0.03800  0.33440  Biso   1.000  H
  H274     1.0000 0.50120  0.46480  0.11420  Biso   1.000  H
  H275     1.0000 0.53080  0.49890  0.07420  Biso   1.000  H
  H276     1.0000 0.66880  0.46920  0.08980  Biso   1.000  H
  H277     1.0000 0.63930  0.43700  0.13310  Biso   1.000  H
  H278     1.0000 0.62850  0.58100  0.04940  Biso   1.000  H
  H279     1.0000 0.69290  0.60440  0.95220  Biso   1.000  H
  H280     1.0000 0.71310  0.49900  0.96720  Biso   1.000  H
  H281     1.0000 0.64820  0.70090  0.13020  Biso   1.000  H
  H282     1.0000 0.61690  0.76240  0.16660  Biso   1.000  H
  H283     1.0000 0.53980  0.76260  0.06680  Biso   1.000  H
  H284     1.0000 0.57530  0.70090  0.02870  Biso   1.000  H
  H285     1.0000 0.84720  0.47330  0.92590  Biso   1.000  H
  H286     1.0000 0.91110  0.44890  0.87780  Biso   1.000  H
  H287     1.0000 0.82840  0.46890  0.78800  Biso   1.000  H
  H288     1.0000 0.77560  0.50620  0.84110  Biso   1.000  H
  C247     1.0000 0.06740  0.45710  0.77300  Biso   1.000  C
  C248     1.0000 0.08750  0.49557  0.79590  Biso   1.000  C
  C249     1.0000 0.08810  0.50870  0.83740  Biso   1.000  C
  C250     1.0000 0.10150  0.54450  0.85970  Biso   1.000  C
  C251     1.0000 0.11920  0.57002  0.83990  Biso   1.000  C
  C252     1.0000 0.12130  0.55707  0.79780  Biso   1.000  C
  C253     1.0000 0.10570  0.51960  0.77630  Biso   1.000  C
  C254     1.0000 0.14440  0.62586  0.90140  Biso   1.000  C
  C255     1.0000 0.16180  0.66744  0.91340  Biso   1.000  C
  C256     1.0000 0.19320  0.67883  0.94650  Biso   1.000  C
  C257     1.0000 0.21220  0.71779  0.95990  Biso   1.000  C
  C258     1.0000 0.20040  0.74200  0.93790  Biso   1.000  C
  C259     1.0000 0.16890  0.72927  0.90471  Biso   1.000  C
  C260     1.0000 0.14910  0.69262  0.89254  Biso   1.000  C
  C261     1.0000 0.24790  0.72880  0.99310  Biso   1.000  C
  C262     1.0000 0.28070  0.78625  0.04720  Biso   1.000  C
  C263     1.0000 0.33280  0.77803  0.04050  Biso   1.000  C
  C264     1.0000 0.36540  0.79950  0.06683  Biso   1.000  C
  C265     1.0000 0.35100  0.83089  0.10090  Biso   1.000  C
  C266     1.0000 0.30300  0.83950  0.10730  Biso   1.000  C
  C267     1.0000 0.26740  0.81856  0.08100  Biso   1.000  C
  C268     1.0000 0.38950  0.85340  0.12940  Biso   1.000  C
  C269     1.0000 0.15910  0.75686  0.88050  Biso   1.000  C
  C270     1.0000 0.10170  0.77489  0.83360  Biso   1.000  C
  C271     1.0000 0.13790  0.79140  0.81380  Biso   1.000  C
  C272     1.0000 0.11810  0.81283  0.78830  Biso   1.000  C
  C273     1.0000 0.07220  0.81483  0.77990  Biso   1.000  C
  C274     1.0000 0.04160  0.79780  0.79950  Biso   1.000  C
  C275     1.0000 0.05370  0.77560  0.82550  Biso   1.000  C
  C276     1.0000 0.05360  0.83769  0.75536  Biso   1.000  C
  C277     1.0000 0.45940  0.32570  0.29528  Biso   1.000  C
  C278     1.0000 0.43990  0.30520  0.32249  Biso   1.000  C
  C279     1.0000 0.43420  0.32310  0.36360  Biso   1.000  C
  C280     1.0000 0.41510  0.30490  0.38860  Biso   1.000  C
  C281     1.0000 0.39830  0.26760  0.37300  Biso   1.000  C
  C282     1.0000 0.40050  0.24940  0.33080  Biso   1.000  C
  C283     1.0000 0.42300  0.26760  0.30490  Biso   1.000  C
  C284     1.0000 0.36730  0.25420  0.43480  Biso   1.000  C
  C285     1.0000 0.34540  0.22400  0.45110  Biso   1.000  C
  C286     1.0000 0.31510  0.23539  0.48410  Biso   1.000  C
  C287     1.0000 0.28950  0.20841  0.49720  Biso   1.000  C
  C288     1.0000 0.29580  0.16849  0.47600  Biso   1.000  C
  C289     1.0000 0.32590  0.15610  0.44310  Biso   1.000  C
  C290     1.0000 0.34940  0.18340  0.42810  Biso   1.000  C
  C291     1.0000 0.25820  0.21920  0.53480  Biso   1.000  C
  C292     1.0000 0.19940  0.27324  0.57090  Biso   1.000  C
  C293     1.0000 0.18820  0.26080  0.60410  Biso   1.000  C
  C294     1.0000 0.15380  0.28207  0.63430  Biso   1.000  C
  C295     1.0000 0.13050  0.31385  0.62910  Biso   1.000  C
  C296     1.0000 0.14310  0.32590  0.59590  Biso   1.000  C
  C297     1.0000 0.17380  0.30542  0.56700  Biso   1.000  C
  C298     1.0000 0.09470  0.33610  0.66220  Biso   1.000  C
  C299     1.0000 0.33160  0.11630  0.41870  Biso   1.000  C
  C300     1.0000 0.38100  0.06650  0.36830  Biso   1.000  C
  C301     1.0000 0.42910  0.06120  0.35760  Biso   1.000  C
  C302     1.0000 0.44500  0.02670  0.32630  Biso   1.000  C
  C303     1.0000 0.40940  0.00050  0.30470  Biso   1.000  C
  C304     1.0000 0.36330  0.00566  0.31750  Biso   1.000  C
  C305     1.0000 0.34840  0.03940  0.34920  Biso   1.000  C
  C306     1.0000 0.42770  0.96550  0.27230  Biso   1.000  C
  C307     1.0000 0.57090  0.29090  0.15930  Biso   1.000  C
  C308     1.0000 0.59230  0.26070  0.12570  Biso   1.000  C
  C309     1.0000 0.56240  0.22670  0.11260  Biso   1.000  C
  C310     1.0000 0.58410  0.19510  0.08190  Biso   1.000  C
  C311     1.0000 0.62980  0.19650  0.06510  Biso   1.000  C
  C312     1.0000 0.65760  0.23182  0.07950  Biso   1.000  C
  C313     1.0000 0.63510  0.26206  0.10850  Biso   1.000  C
  C314     1.0000 0.69080  0.15322  0.02190  Biso   1.000  C
  C315     1.0000 0.69730  0.11112  0.99697  Biso   1.000  C
  C316     1.0000 0.67320  0.08207  0.00671  Biso   1.000  C
  C317     1.0000 0.68030  0.04228  0.98230  Biso   1.000  C
  C318     1.0000 0.71240  0.03396  0.95067  Biso   1.000  C
  C319     1.0000 0.73870  0.06196  0.94079  Biso   1.000  C
  C320     1.0000 0.73130  0.10151  0.96448  Biso   1.000  C
  C321     1.0000 0.65530  0.00990  0.99120  Biso   1.000  C
  C322     1.0000 0.62060  0.99500  0.05150  Biso   1.000  C
  C323     1.0000 0.61500  0.00800  0.09380  Biso   1.000  C
  C324     1.0000 0.59850  0.98240  0.11410  Biso   1.000  C
  C325     1.0000 0.57180  0.95100  0.09400  Biso   1.000  C
  C326     1.0000 0.57310  0.93840  0.05290  Biso   1.000  C
  C327     1.0000 0.59910  0.96054  0.03160  Biso   1.000  C
  C328     1.0000 0.54440  0.92960  0.11960  Biso   1.000  C
  C329     1.0000 0.77170  0.05306  0.90610  Biso   1.000  C
  C330     1.0000 0.82380  0.99700  0.86430  Biso   1.000  C
  C331     1.0000 0.83820  0.95910  0.86230  Biso   1.000  C
  C332     1.0000 0.86690  0.93750  0.82890  Biso   1.000  C
  C333     1.0000 0.88180  0.95210  0.79980  Biso   1.000  C
  C334     1.0000 0.86940  0.99130  0.80220  Biso   1.000  C
  C335     1.0000 0.83880  0.01270  0.83360  Biso   1.000  C
  C336     1.0000 0.91160  0.92760  0.76490  Biso   1.000  C
  C337     1.0000 0.95220  0.42495  0.65597  Biso   1.000  C
  C338     1.0000 0.93180  0.44751  0.63003  Biso   1.000  C
  C339     1.0000 0.96420  0.46597  0.61030  Biso   1.000  C
  C340     1.0000 0.94650  0.48535  0.58593  Biso   1.000  C
  C341     1.0000 0.89900  0.48653  0.57740  Biso   1.000  C
  C342     1.0000 0.86560  0.46860  0.59510  Biso   1.000  C
  C343     1.0000 0.88380  0.44960  0.62080  Biso   1.000  C
  C344     1.0000 0.83990  0.50522  0.53281  Biso   1.000  C
  C345     1.0000 0.83210  0.53549  0.51212  Biso   1.000  C
  C346     1.0000 0.85150  0.57257  0.52536  Biso   1.000  C
  C347     1.0000 0.84080  0.59849  0.50210  Biso   1.000  C
  C348     1.0000 0.81250  0.58727  0.46778  Biso   1.000  C
  C349     1.0000 0.79190  0.55110  0.45599  Biso   1.000  C
  C350     1.0000 0.80110  0.52440  0.47670  Biso   1.000  C
  C351     1.0000 0.86440  0.63829  0.51600  Biso   1.000  C
  C352     1.0000 0.88640  0.69491  0.57600  Biso   1.000  C
  C353     1.0000 0.87360  0.71360  0.61690  Biso   1.000  C
  C354     1.0000 0.89170  0.75012  0.63850  Biso   1.000  C
  C355     1.0000 0.92180  0.76807  0.61900  Biso   1.000  C
  C356     1.0000 0.93680  0.75031  0.57931  Biso   1.000  C
  C357     1.0000 0.91670  0.71292  0.55693  Biso   1.000  C
  C358     1.0000 0.94170  0.80890  0.64180  Biso   1.000  C
  C359     1.0000 0.76250  0.53930  0.41650  Biso   1.000  C
  C360     1.0000 0.69280  0.49410  0.38610  Biso   1.000  C
  C361     1.0000 0.65470  0.47420  0.39850  Biso   1.000  C
  C362     1.0000 0.62010  0.45600  0.36960  Biso   1.000  C
  C363     1.0000 0.63160  0.44770  0.32590  Biso   1.000  C
  C364     1.0000 0.66740  0.46910  0.31550  Biso   1.000  C
  C365     1.0000 0.69820  0.49180  0.34790  Biso   1.000  C
  C366     1.0000 0.59550  0.42340  0.29680  Biso   1.000  C
  C367     1.0000 0.43760  0.97200  0.15390  Biso   1.000  C
  C368     1.0000 0.39700  0.93730  0.09270  Biso   1.000  C
  C369     1.0000 0.44060  0.98970  0.08830  Biso   1.000  C
  C370     1.0000 0.43260  0.45710  0.27300  Biso   1.000  C
  C371     1.0000 0.41250  0.49557  0.29590  Biso   1.000  C
  C372     1.0000 0.41190  0.50870  0.33740  Biso   1.000  C
  C373     1.0000 0.39850  0.54450  0.35970  Biso   1.000  C
  C374     1.0000 0.38080  0.57002  0.33990  Biso   1.000  C
  C375     1.0000 0.37870  0.55707  0.29780  Biso   1.000  C
  C376     1.0000 0.39430  0.51960  0.27630  Biso   1.000  C
  C377     1.0000 0.35560  0.62586  0.40140  Biso   1.000  C
  C378     1.0000 0.33820  0.66744  0.41340  Biso   1.000  C
  C379     1.0000 0.30680  0.67883  0.44650  Biso   1.000  C
  C380     1.0000 0.28780  0.71779  0.45990  Biso   1.000  C
  C381     1.0000 0.29960  0.74200  0.43790  Biso   1.000  C
  C382     1.0000 0.33110  0.72927  0.40471  Biso   1.000  C
  C383     1.0000 0.35090  0.69262  0.39254  Biso   1.000  C
  C384     1.0000 0.25210  0.72880  0.49310  Biso   1.000  C
  C385     1.0000 0.21930  0.78625  0.54720  Biso   1.000  C
  C386     1.0000 0.16720  0.77803  0.54050  Biso   1.000  C
  C387     1.0000 0.13460  0.79950  0.56683  Biso   1.000  C
  C388     1.0000 0.14900  0.83089  0.60090  Biso   1.000  C
  C389     1.0000 0.19700  0.83950  0.60730  Biso   1.000  C
  C390     1.0000 0.23260  0.81856  0.58100  Biso   1.000  C
  C391     1.0000 0.11050  0.85340  0.62940  Biso   1.000  C
  C392     1.0000 0.34090  0.75686  0.38050  Biso   1.000  C
  C393     1.0000 0.39830  0.77489  0.33360  Biso   1.000  C
  C394     1.0000 0.36210  0.79140  0.31380  Biso   1.000  C
  C395     1.0000 0.38190  0.81283  0.28830  Biso   1.000  C
  C396     1.0000 0.42780  0.81483  0.27990  Biso   1.000  C
  C397     1.0000 0.45840  0.79780  0.29950  Biso   1.000  C
  C398     1.0000 0.44630  0.77560  0.32550  Biso   1.000  C
  C399     1.0000 0.44640  0.83769  0.25536  Biso   1.000  C
  C400     1.0000 0.04060  0.32570  0.79528  Biso   1.000  C
  C401     1.0000 0.06010  0.30520  0.82249  Biso   1.000  C
  C402     1.0000 0.06580  0.32310  0.86360  Biso   1.000  C
  C403     1.0000 0.08490  0.30490  0.88860  Biso   1.000  C
  C404     1.0000 0.10170  0.26760  0.87300  Biso   1.000  C
  C405     1.0000 0.09950  0.24940  0.83080  Biso   1.000  C
  C406     1.0000 0.07700  0.26760  0.80490  Biso   1.000  C
  C407     1.0000 0.13270  0.25420  0.93480  Biso   1.000  C
  C408     1.0000 0.15460  0.22400  0.95110  Biso   1.000  C
  C409     1.0000 0.18490  0.23539  0.98410  Biso   1.000  C
  C410     1.0000 0.21050  0.20841  0.99720  Biso   1.000  C
  C411     1.0000 0.20420  0.16849  0.97600  Biso   1.000  C
  C412     1.0000 0.17410  0.15610  0.94310  Biso   1.000  C
  C413     1.0000 0.15060  0.18340  0.92810  Biso   1.000  C
  C414     1.0000 0.24180  0.21920  0.03480  Biso   1.000  C
  C415     1.0000 0.30060  0.27324  0.07090  Biso   1.000  C
  C416     1.0000 0.31180  0.26080  0.10410  Biso   1.000  C
  C417     1.0000 0.34620  0.28207  0.13430  Biso   1.000  C
  C418     1.0000 0.36950  0.31385  0.12910  Biso   1.000  C
  C419     1.0000 0.35690  0.32590  0.09590  Biso   1.000  C
  C420     1.0000 0.32620  0.30542  0.06700  Biso   1.000  C
  C421     1.0000 0.40530  0.33610  0.16220  Biso   1.000  C
  C422     1.0000 0.16840  0.11630  0.91870  Biso   1.000  C
  C423     1.0000 0.11900  0.06650  0.86830  Biso   1.000  C
  C424     1.0000 0.07090  0.06120  0.85760  Biso   1.000  C
  C425     1.0000 0.05500  0.02670  0.82630  Biso   1.000  C
  C426     1.0000 0.09060  0.00050  0.80470  Biso   1.000  C
  C427     1.0000 0.13670  0.00566  0.81750  Biso   1.000  C
  C428     1.0000 0.15160  0.03940  0.84920  Biso   1.000  C
  C429     1.0000 0.07230  0.96550  0.77230  Biso   1.000  C
  C430     1.0000 0.92910  0.29090  0.65930  Biso   1.000  C
  C431     1.0000 0.90770  0.26070  0.62570  Biso   1.000  C
  C432     1.0000 0.93760  0.22670  0.61260  Biso   1.000  C
  C433     1.0000 0.91590  0.19510  0.58190  Biso   1.000  C
  C434     1.0000 0.87020  0.19650  0.56510  Biso   1.000  C
  C435     1.0000 0.84240  0.23182  0.57950  Biso   1.000  C
  C436     1.0000 0.86490  0.26206  0.60850  Biso   1.000  C
  C437     1.0000 0.80920  0.15322  0.52190  Biso   1.000  C
  C438     1.0000 0.80270  0.11112  0.49697  Biso   1.000  C
  C439     1.0000 0.82680  0.08207  0.50671  Biso   1.000  C
  C440     1.0000 0.81970  0.04228  0.48230  Biso   1.000  C
  C441     1.0000 0.78760  0.03396  0.45067  Biso   1.000  C
  C442     1.0000 0.76130  0.06196  0.44079  Biso   1.000  C
  C443     1.0000 0.76870  0.10151  0.46448  Biso   1.000  C
  C444     1.0000 0.84470  0.00990  0.49120  Biso   1.000  C
  C445     1.0000 0.87940  0.99500  0.55150  Biso   1.000  C
  C446     1.0000 0.88500  0.00800  0.59380  Biso   1.000  C
  C447     1.0000 0.90150  0.98240  0.61410  Biso   1.000  C
  C448     1.0000 0.92820  0.95100  0.59400  Biso   1.000  C
  C449     1.0000 0.92690  0.93840  0.55290  Biso   1.000  C
  C450     1.0000 0.90090  0.96054  0.53160  Biso   1.000  C
  C451     1.0000 0.95560  0.92960  0.61960  Biso   1.000  C
  C452     1.0000 0.72830  0.05306  0.40610  Biso   1.000  C
  C453     1.0000 0.67620  0.99700  0.36430  Biso   1.000  C
  C454     1.0000 0.66180  0.95910  0.36230  Biso   1.000  C
  C455     1.0000 0.63310  0.93750  0.32890  Biso   1.000  C
  C456     1.0000 0.61820  0.95210  0.29980  Biso   1.000  C
  C457     1.0000 0.63060  0.99130  0.30220  Biso   1.000  C
  C458     1.0000 0.66120  0.01270  0.33360  Biso   1.000  C
  C459     1.0000 0.58840  0.92760  0.26490  Biso   1.000  C
  C460     1.0000 0.54780  0.42495  0.15597  Biso   1.000  C
  C461     1.0000 0.56820  0.44751  0.13003  Biso   1.000  C
  C462     1.0000 0.53580  0.46597  0.11030  Biso   1.000  C
  C463     1.0000 0.55350  0.48535  0.08593  Biso   1.000  C
  C464     1.0000 0.60100  0.48653  0.07740  Biso   1.000  C
  C465     1.0000 0.63440  0.46860  0.09510  Biso   1.000  C
  C466     1.0000 0.61620  0.44960  0.12080  Biso   1.000  C
  C467     1.0000 0.66010  0.50522  0.03281  Biso   1.000  C
  C468     1.0000 0.66790  0.53549  0.01212  Biso   1.000  C
  C469     1.0000 0.64850  0.57257  0.02536  Biso   1.000  C
  C470     1.0000 0.65920  0.59849  0.00210  Biso   1.000  C
  C471     1.0000 0.68750  0.58727  0.96778  Biso   1.000  C
  C472     1.0000 0.70810  0.55110  0.95599  Biso   1.000  C
  C473     1.0000 0.69890  0.52440  0.97670  Biso   1.000  C
  C474     1.0000 0.63560  0.63829  0.01600  Biso   1.000  C
  C475     1.0000 0.61360  0.69491  0.07600  Biso   1.000  C
  C476     1.0000 0.62640  0.71360  0.11690  Biso   1.000  C
  C477     1.0000 0.60830  0.75012  0.13850  Biso   1.000  C
  C478     1.0000 0.57820  0.76807  0.11900  Biso   1.000  C
  C479     1.0000 0.56320  0.75031  0.07931  Biso   1.000  C
  C480     1.0000 0.58330  0.71292  0.05693  Biso   1.000  C
  C481     1.0000 0.55830  0.80890  0.14180  Biso   1.000  C
  C482     1.0000 0.73750  0.53930  0.91650  Biso   1.000  C
  C483     1.0000 0.80720  0.49410  0.88610  Biso   1.000  C
  C484     1.0000 0.84530  0.47420  0.89850  Biso   1.000  C
  C485     1.0000 0.87990  0.45600  0.86960  Biso   1.000  C
  C486     1.0000 0.86840  0.44770  0.82590  Biso   1.000  C
  C487     1.0000 0.83260  0.46910  0.81550  Biso   1.000  C
  C488     1.0000 0.80180  0.49180  0.84790  Biso   1.000  C
  C489     1.0000 0.90450  0.42340  0.79680  Biso   1.000  C
  C490     1.0000 0.06240  0.97200  0.65390  Biso   1.000  C
  C491     1.0000 0.10300  0.93730  0.59270  Biso   1.000  C
  C492     1.0000 0.05940  0.98970  0.58830  Biso   1.000  C
  N27      1.0000 0.13710  0.60927  0.86049  Biso   1.000  N
  N28      1.0000 0.24560  0.76577  0.01862  Biso   1.000  N
  N29      1.0000 0.11910  0.75322  0.85934  Biso   1.000  N
  N30      1.0000 0.37750  0.24591  0.39559  Biso   1.000  N
  N31      1.0000 0.23340  0.25476  0.53994  Biso   1.000  N
  N32      1.0000 0.36970  0.10366  0.39870  Biso   1.000  N
  N33      1.0000 0.64680  0.16296  0.03810  Biso   1.000  N
  N34      1.0000 0.64470  0.01791  0.03248  Biso   1.000  N
  N35      1.0000 0.79510  0.01768  0.89750  Biso   1.000  N
  N36      1.0000 0.88290  0.50766  0.55185  Biso   1.000  N
  N37      1.0000 0.86698  0.65768  0.55680  Biso   1.000  N
  N38      1.0000 0.72360  0.51520  0.41835  Biso   1.000  N
  N39      1.0000 0.41570  0.97650  0.12060  Biso   1.000  N
  N40      1.0000 0.36290  0.60927  0.36049  Biso   1.000  N
  N41      1.0000 0.25440  0.76577  0.51862  Biso   1.000  N
  N42      1.0000 0.38090  0.75322  0.35934  Biso   1.000  N
  N43      1.0000 0.12250  0.24591  0.89559  Biso   1.000  N
  N44      1.0000 0.26660  0.25476  0.03994  Biso   1.000  N
  N45      1.0000 0.13030  0.10366  0.89870  Biso   1.000  N
  N46      1.0000 0.85320  0.16296  0.53810  Biso   1.000  N
  N47      1.0000 0.85530  0.01791  0.53248  Biso   1.000  N
  N48      1.0000 0.70490  0.01768  0.39750  Biso   1.000  N
  N49      1.0000 0.61710  0.50766  0.05185  Biso   1.000  N
  N50      1.0000 0.63302  0.65768  0.05680  Biso   1.000  N
  N51      1.0000 0.77640  0.51520  0.91835  Biso   1.000  N
  N52      1.0000 0.08430  0.97650  0.62060  Biso   1.000  N
  O81      1.0000 0.06716  0.44569  0.73338  Biso   1.000  O
  O82      1.0000 0.04910  0.43637  0.79415  Biso   1.000  O
  O83      1.0000 0.43190  0.85121  0.11446  Biso   1.000  O
  O84      1.0000 0.37593  0.87482  0.16644  Biso   1.000  O
  O85      1.0000 0.00613  0.83824  0.74935  Biso   1.000  O
  O86      1.0000 0.08480  0.85466  0.73987  Biso   1.000  O
  O87      1.0000 0.13950  0.60976  0.92703  Biso   1.000  O
  O88      1.0000 0.27950  0.70634  0.99756  Biso   1.000  O
  O89      1.0000 0.19100  0.78082  0.87992  Biso   1.000  O
  O90      1.0000 0.46945  0.30539  0.25754  Biso   1.000  O
  O91      1.0000 0.47113  0.36094  0.31109  Biso   1.000  O
  O92      1.0000 0.07935  0.32080  0.68756  Biso   1.000  O
  O93      1.0000 0.07919  0.36820  0.65873  Biso   1.000  O
  O94      1.0000 0.39630  0.94074  0.25312  Biso   1.000  O
  O95      1.0000 0.47400  0.96333  0.26441  Biso   1.000  O
  O96      1.0000 0.37770  0.28669  0.46020  Biso   1.000  O
  O97      1.0000 0.25070  0.19939  0.55611  Biso   1.000  O
  O98      1.0000 0.29530  0.09393  0.41750  Biso   1.000  O
  O99      1.0000 0.53320  0.28777  0.17900  Biso   1.000  O
  O100     1.0000 0.59650  0.32701  0.17168  Biso   1.000  O
  O101     1.0000 0.52218  0.89937  0.09991  Biso   1.000  O
  O102     1.0000 0.55270  0.94140  0.15670  Biso   1.000  O
  O103     1.0000 0.92420  0.94389  0.73799  Biso   1.000  O
  O104     1.0000 0.92487  0.89472  0.76264  Biso   1.000  O
  O105     1.0000 0.72528  0.17702  0.02739  Biso   1.000  O
  O106     1.0000 0.64370  0.98006  0.96601  Biso   1.000  O
  O107     1.0000 0.78055  0.07552  0.88589  Biso   1.000  O
  O108     1.0000 0.99756  0.42417  0.66160  Biso   1.000  O
  O109     1.0000 0.92000  0.40968  0.67272  Biso   1.000  O
  O110     1.0000 0.93407  0.82174  0.67990  Biso   1.000  O
  O111     1.0000 0.96494  0.82534  0.61994  Biso   1.000  O
  O112     1.0000 0.55520  0.41380  0.31110  Biso   1.000  O
  O113     1.0000 0.60510  0.41570  0.26080  Biso   1.000  O
  O114     1.0000 0.80833  0.48253  0.53388  Biso   1.000  O
  O115     1.0000 0.88118  0.65150  0.48982  Biso   1.000  O
  O116     1.0000 0.77160  0.54905  0.38722  Biso   1.000  O
  O117     1.0000 0.99343  0.37346  0.72431  Biso   1.000  O
  O118     1.0000 0.48961  0.89368  0.19408  Biso   1.000  O
  O119     1.0000 0.53300  0.00920  0.22160  Biso   1.000  O
  O120     1.0000 0.45010  0.95610  0.17610  Biso   1.000  O
  O121     1.0000 0.43284  0.44569  0.23338  Biso   1.000  O
  O122     1.0000 0.45090  0.43637  0.29415  Biso   1.000  O
  O123     1.0000 0.06810  0.85121  0.61446  Biso   1.000  O
  O124     1.0000 0.12407  0.87482  0.66644  Biso   1.000  O
  O125     1.0000 0.49387  0.83824  0.24935  Biso   1.000  O
  O126     1.0000 0.41520  0.85466  0.23987  Biso   1.000  O
  O127     1.0000 0.36050  0.60976  0.42703  Biso   1.000  O
  O128     1.0000 0.22050  0.70634  0.49756  Biso   1.000  O
  O129     1.0000 0.30900  0.78082  0.37992  Biso   1.000  O
  O130     1.0000 0.03055  0.30539  0.75754  Biso   1.000  O
  O131     1.0000 0.02887  0.36094  0.81109  Biso   1.000  O
  O132     1.0000 0.42065  0.32080  0.18756  Biso   1.000  O
  O133     1.0000 0.42081  0.36820  0.15873  Biso   1.000  O
  O134     1.0000 0.10370  0.94074  0.75312  Biso   1.000  O
  O135     1.0000 0.02600  0.96333  0.76441  Biso   1.000  O
  O136     1.0000 0.12230  0.28669  0.96020  Biso   1.000  O
  O137     1.0000 0.24930  0.19939  0.05611  Biso   1.000  O
  O138     1.0000 0.20470  0.09393  0.91750  Biso   1.000  O
  O139     1.0000 0.96680  0.28777  0.67900  Biso   1.000  O
  O140     1.0000 0.90350  0.32701  0.67168  Biso   1.000  O
  O141     1.0000 0.97782  0.89937  0.59991  Biso   1.000  O
  O142     1.0000 0.94730  0.94140  0.65670  Biso   1.000  O
  O143     1.0000 0.57580  0.94389  0.23799  Biso   1.000  O
  O144     1.0000 0.57513  0.89472  0.26264  Biso   1.000  O
  O145     1.0000 0.77472  0.17702  0.52739  Biso   1.000  O
  O146     1.0000 0.85630  0.98006  0.46601  Biso   1.000  O
  O147     1.0000 0.71945  0.07552  0.38589  Biso   1.000  O
  O148     1.0000 0.50244  0.42417  0.16160  Biso   1.000  O
  O149     1.0000 0.58000  0.40968  0.17272  Biso   1.000  O
  O150     1.0000 0.56593  0.82174  0.17990  Biso   1.000  O
  O151     1.0000 0.53506  0.82534  0.11994  Biso   1.000  O
  O152     1.0000 0.94480  0.41380  0.81110  Biso   1.000  O
  O153     1.0000 0.89490  0.41570  0.76080  Biso   1.000  O
  O154     1.0000 0.69167  0.48253  0.03388  Biso   1.000  O
  O155     1.0000 0.61882  0.65150  0.98982  Biso   1.000  O
  O156     1.0000 0.72840  0.54905  0.88722  Biso   1.000  O
  O157     1.0000 0.50657  0.37346  0.22431  Biso   1.000  O
  O158     1.0000 0.01039  0.89368  0.69408  Biso   1.000  O
  O159     1.0000 0.96700  0.00920  0.72160  Biso   1.000  O
  O160     1.0000 0.04990  0.95610  0.67610  Biso   1.000  O
