data_GALHOS_ion_b
_audit_creation_date              2014-07-02
_audit_creation_method            'Materials Studio'
_symmetry_space_group_name_H-M    'P1'
_symmetry_Int_Tables_number       1
_symmetry_cell_setting            triclinic
loop_
_symmetry_equiv_pos_as_xyz
  x,y,z
_cell_length_a                    28.2670
_cell_length_b                    23.5250
_cell_length_c                    22.9753
_cell_angle_alpha                 74.8635
_cell_angle_beta                  53.4531
_cell_angle_gamma                 51.6835
loop_
_atom_site_label
_atom_site_type_symbol
_atom_site_fract_x
_atom_site_fract_y
_atom_site_fract_z
_atom_site_U_iso_or_equiv
_atom_site_adp_type
_atom_site_occupancy
O1     O     0.40711   0.76944   0.50586   0.00000  Uiso   1.00
O2     O     0.51462   0.68948   0.42610   0.00000  Uiso   1.00
O3     O     0.32097   0.49933   0.23398   0.00000  Uiso   1.00
O4     O     0.21327   0.57232   0.31864   0.00000  Uiso   1.00
C5     C     0.44867   0.71788   0.45449   0.00000  Uiso   1.00
C6     C     0.42295   0.69352   0.43092   0.00000  Uiso   1.00
C7     C     0.34762   0.72986   0.46482   0.00000  Uiso   1.00
H8     H     0.30675   0.77672   0.50839   0.00000  Uiso   1.00
C9     C     0.32376   0.70690   0.44275   0.00000  Uiso   1.00
H10    H     0.26527   0.73816   0.46967   0.00000  Uiso   1.00
C11    C     0.37422   0.64617   0.38605   0.00000  Uiso   1.00
C12    C     0.44983   0.60971   0.35267   0.00000  Uiso   1.00
H13    H     0.49150   0.56205   0.30995   0.00000  Uiso   1.00
C14    C     0.47344   0.63309   0.37460   0.00000  Uiso   1.00
H15    H     0.53164   0.60341   0.34779   0.00000  Uiso   1.00
C16    C     0.34863   0.62145   0.36154   0.00000  Uiso   1.00
C17    C     0.39366   0.58371   0.28964   0.00000  Uiso   1.00
H18    H     0.44557   0.57517   0.24948   0.00000  Uiso   1.00
C19    C     0.37164   0.55893   0.26687   0.00000  Uiso   1.00
H20    H     0.40858   0.53012   0.21113   0.00000  Uiso   1.00
C21    C     0.30216   0.57323   0.31414   0.00000  Uiso   1.00
C22    C     0.25576   0.61284   0.38529   0.00000  Uiso   1.00
H23    H     0.20180   0.62523   0.42343   0.00000  Uiso   1.00
C24    C     0.27876   0.63568   0.40885   0.00000  Uiso   1.00
H25    H     0.24158   0.66383   0.46481   0.00000  Uiso   1.00
C26    C     0.27838   0.54778   0.28881   0.00000  Uiso   1.00
O27    O     0.69860   0.52051   0.09552   0.00000  Uiso   1.00
O28    O     0.62065   0.56936   0.20394   0.00000  Uiso   1.00
O29    O     0.80910  -0.00700   0.39568   0.00000  Uiso   1.00
O30    O     0.89427   0.93866   0.28896   0.00000  Uiso   1.00
C31    C     0.67215   0.50899   0.16068   0.00000  Uiso   1.00
C32    C     0.69785   0.43407   0.18401   0.00000  Uiso   1.00
C33    C     0.75228   0.36862   0.13247   0.00000  Uiso   1.00
H34    H     0.77658   0.37135   0.07446   0.00000  Uiso   1.00
C35    C     0.77515   0.29895   0.15487   0.00000  Uiso   1.00
H36    H     0.81530   0.25135   0.11253   0.00000  Uiso   1.00
C37    C     0.74560   0.29131   0.23000   0.00000  Uiso   1.00
C38    C     0.69160   0.35761   0.28111   0.00000  Uiso   1.00
H39    H     0.66751   0.35683   0.33920   0.00000  Uiso   1.00
C40    C     0.66788   0.42707   0.25866   0.00000  Uiso   1.00
H41    H     0.62624   0.47562   0.30030   0.00000  Uiso   1.00
C42    C     0.77032   0.21580   0.25494   0.00000  Uiso   1.00
C43    C     0.83721   0.14896   0.20602   0.00000  Uiso   1.00
H44    H     0.87368   0.14934   0.14929   0.00000  Uiso   1.00
C45    C     0.85965   0.07975   0.22947   0.00000  Uiso   1.00
H46    H     0.91118   0.03044   0.18987   0.00000  Uiso   1.00
C47    C     0.81684   0.07407   0.30302   0.00000  Uiso   1.00
C48    C     0.75081   0.13990   0.35192   0.00000  Uiso   1.00
H49    H     0.71688   0.13751   0.40874   0.00000  Uiso   1.00
C50    C     0.72756   0.20898   0.32860   0.00000  Uiso   1.00
H51    H     0.67511   0.25681   0.36910   0.00000  Uiso   1.00
C52    C     0.84047   0.00073   0.32946   0.00000  Uiso   1.00
N53    N     0.88816   0.47636   0.97478   0.00000  Uiso   1.00
C54    C     0.88607   0.43301   0.94193   0.00000  Uiso   1.00
C55    C     0.88150   0.53964   0.93823   0.00000  Uiso   1.00
N56    N     0.70252   0.54432   0.29310   0.00000  Uiso   1.00
C57    C     0.69029   0.50944   0.35862   0.00000  Uiso   1.00
C58    C     0.77559   0.49270   0.22771   0.00000  Uiso   1.00
O59    O     0.76152   0.41023   0.81982   0.00000  Uiso   1.00
O60    O     0.69197   0.51628   0.87226   0.00000  Uiso   1.00
O61    O     0.49359   0.32291   0.44811   0.00000  Uiso   1.00
O62    O     0.57470   0.21446   0.39899   0.00000  Uiso   1.00
C63    C     0.71550   0.45084   0.88119   0.00000  Uiso   1.00
C64    C     0.69191   0.42474   0.95458   0.00000  Uiso   1.00
C65    C     0.71186   0.35285   0.96057   0.00000  Uiso   1.00
H66    H     0.74484   0.31486   0.91172   0.00000  Uiso   1.00
C67    C     0.68915   0.32895   0.02949   0.00000  Uiso   1.00
H68    H     0.70505   0.27367   0.03021   0.00000  Uiso   1.00
C69    C     0.64617   0.37564   0.09567   0.00000  Uiso   1.00
C70    C     0.62656   0.44787   0.08866   0.00000  Uiso   1.00
H71    H     0.59483   0.48674   0.13598   0.00000  Uiso   1.00
C72    C     0.64870   0.47168   0.01985   0.00000  Uiso   1.00
H73    H     0.63258   0.52709   0.01728   0.00000  Uiso   1.00
C74    C     0.62171   0.34983   0.17074   0.00000  Uiso   1.00
C75    C     0.56254   0.40053   0.23757   0.00000  Uiso   1.00
H76    H     0.53353   0.45845   0.23726   0.00000  Uiso   1.00
C77    C     0.53869   0.37794   0.30679   0.00000  Uiso   1.00
H78    H     0.49281   0.41961   0.35583   0.00000  Uiso   1.00
C79    C     0.57314   0.30309   0.31297   0.00000  Uiso   1.00
C80    C     0.63307   0.25166   0.24700   0.00000  Uiso   1.00
H81    H     0.66215   0.19345   0.24901   0.00000  Uiso   1.00
C82    C     0.65689   0.27441   0.17747   0.00000  Uiso   1.00
H83    H     0.70411   0.23212   0.12924   0.00000  Uiso   1.00
C84    C     0.54679   0.27967   0.38771   0.00000  Uiso   1.00
O85    O     0.51692   0.70196   0.19559   0.00000  Uiso   1.00
O86    O     0.56488   0.62798   0.11301   0.00000  Uiso   1.00
O87    O    -0.00918   0.81217   0.30987   0.00000  Uiso   1.00
O88    O     0.93655   0.89528   0.38788   0.00000  Uiso   1.00
C89    C     0.50490   0.67811   0.16650   0.00000  Uiso   1.00
C90    C     0.42997   0.70505   0.19151   0.00000  Uiso   1.00
C91    C     0.36499   0.75522   0.25718   0.00000  Uiso   1.00
H92    H     0.36803   0.77607   0.29077   0.00000  Uiso   1.00
C93    C     0.29557   0.77732   0.28172   0.00000  Uiso   1.00
H94    H     0.24828   0.81352   0.33405   0.00000  Uiso   1.00
C95    C     0.28781   0.75151   0.24074   0.00000  Uiso   1.00
C96    C     0.35338   0.70267   0.17378   0.00000  Uiso   1.00
H97    H     0.35191   0.68190   0.13855   0.00000  Uiso   1.00
C98    C     0.42276   0.67929   0.15038   0.00000  Uiso   1.00
H99    H     0.47126   0.64032   0.09978   0.00000  Uiso   1.00
C100   C     0.21281   0.77467   0.26728   0.00000  Uiso   1.00
C101   C     0.14562   0.84008   0.31809   0.00000  Uiso   1.00
H102   H     0.14558   0.87620   0.33911   0.00000  Uiso   1.00
C103   C     0.07673   0.86148   0.34171   0.00000  Uiso   1.00
H104   H     0.02710   0.91197   0.38048   0.00000  Uiso   1.00
C105   C     0.07180   0.81918   0.31487   0.00000  Uiso   1.00
C106   C     0.13810   0.75417   0.26471   0.00000  Uiso   1.00
H107   H     0.13634   0.72024   0.24339   0.00000  Uiso   1.00
C108   C     0.20694   0.73189   0.24189   0.00000  Uiso   1.00
H109   H     0.25544   0.68027   0.20466   0.00000  Uiso   1.00
C110   C    -0.00140   0.84249   0.33807   0.00000  Uiso   1.00
N111   N     0.48420   0.89582   0.15220   0.00000  Uiso   1.00
C112   C     0.43711   0.89350   0.22929   0.00000  Uiso   1.00
C113   C     0.54778   0.88431   0.13771   0.00000  Uiso   1.00
N114   N     0.55004   0.69297   0.95266   0.00000  Uiso   1.00
C115   C     0.51179   0.68008   0.94062   0.00000  Uiso   1.00
C116   C     0.50084   0.76799   0.99134   0.00000  Uiso   1.00
O117   O     0.49909   0.81690   0.41251   0.00000  Uiso   1.00
O118   O     0.42071   0.86913   0.51998   0.00000  Uiso   1.00
O119   O     0.22878   0.44538   0.32638   0.00000  Uiso   1.00
O120   O     0.31207   0.39563   0.21853   0.00000  Uiso   1.00
C121   C     0.44821   0.87828   0.45401   0.00000  Uiso   1.00
C122   C     0.42434   0.95191   0.42829   0.00000  Uiso   1.00
C123   C     0.45374   0.95750   0.35329   0.00000  Uiso   1.00
H124   H     0.49361   0.90836   0.31273   0.00000  Uiso   1.00
C125   C     0.43163   0.02645   0.32950   0.00000  Uiso   1.00
H126   H     0.45464   0.02734   0.27155   0.00000  Uiso   1.00
C127   C     0.37980   0.09292   0.37955   0.00000  Uiso   1.00
C128   C     0.35081   0.08651   0.45474   0.00000  Uiso   1.00
H129   H     0.31204   0.13448   0.49604   0.00000  Uiso   1.00
C130   C     0.37229   0.01772   0.47845   0.00000  Uiso   1.00
H131   H     0.34868   0.01580   0.53642   0.00000  Uiso   1.00
C132   C     0.35555   0.16788   0.35407   0.00000  Uiso   1.00
C133   C     0.28657   0.23365   0.40191   0.00000  Uiso   1.00
H134   H     0.24852   0.23149   0.45643   0.00000  Uiso   1.00
C135   C     0.26377   0.30310   0.37958   0.00000  Uiso   1.00
H136   H     0.21025   0.35153   0.41871   0.00000  Uiso   1.00
C137   C     0.30813   0.31005   0.30744   0.00000  Uiso   1.00
C138   C     0.37639   0.24472   0.25864   0.00000  Uiso   1.00
H139   H     0.41226   0.24731   0.20260   0.00000  Uiso   1.00
C140   C     0.39994   0.17525   0.28156   0.00000  Uiso   1.00
H141   H     0.45367   0.12745   0.24206   0.00000  Uiso   1.00
C142   C     0.28283   0.38471   0.28367   0.00000  Uiso   1.00
O143   O     0.08700   0.19358   0.69925   0.00000  Uiso   1.00
O144   O     0.19559   0.10998   0.62612   0.00000  Uiso   1.00
O145   O     0.38755   0.30683   0.81243   0.00000  Uiso   1.00
O146   O     0.28074   0.38514   0.89531   0.00000  Uiso   1.00
C147   C     0.15200   0.16413   0.67562   0.00000  Uiso   1.00
C148   C     0.17490   0.18940   0.70248   0.00000  Uiso   1.00
C149   C     0.12375   0.25442   0.75364   0.00000  Uiso   1.00
H150   H     0.06619   0.28759   0.77502   0.00000  Uiso   1.00
C151   C     0.14619   0.27894   0.77629   0.00000  Uiso   1.00
H152   H     0.10444   0.33086   0.81326   0.00000  Uiso   1.00
C153   C     0.22080   0.23842   0.75021   0.00000  Uiso   1.00
C154   C     0.27128   0.17197   0.70047   0.00000  Uiso   1.00
H155   H     0.32876   0.13667   0.67955   0.00000  Uiso   1.00
C156   C     0.24894   0.14871   0.67658   0.00000  Uiso   1.00
H157   H     0.29015   0.09816   0.63766   0.00000  Uiso   1.00
C158   C     0.24592   0.26469   0.77407   0.00000  Uiso   1.00
C159   C     0.19628   0.31741   0.83826   0.00000  Uiso   1.00
H160   H     0.13871   0.34031   0.87310   0.00000  Uiso   1.00
C161   C     0.22004   0.34084   0.86007   0.00000  Uiso   1.00
H162   H     0.17989   0.38126   0.90946   0.00000  Uiso   1.00
C163   C     0.29457   0.31187   0.81953   0.00000  Uiso   1.00
C164   C     0.34407   0.25957   0.75606   0.00000  Uiso   1.00
H165   H     0.40153   0.23622   0.72385   0.00000  Uiso   1.00
C166   C     0.32052   0.23706   0.73320   0.00000  Uiso   1.00
H167   H     0.36165   0.19824   0.68259   0.00000  Uiso   1.00
C168   C     0.32124   0.33512   0.84277   0.00000  Uiso   1.00
N169   N     0.93768   0.25082   0.88165   0.00000  Uiso   1.00
C170   C     0.90468   0.31479   0.85035   0.00000  Uiso   1.00
C171   C     0.88831   0.23007   0.93107   0.00000  Uiso   1.00
N172   N     0.28809   0.95977   0.70635   0.00000  Uiso   1.00
C173   C     0.35329   0.94240   0.69395   0.00000  Uiso   1.00
C174   C     0.22248   1.00407   0.77920   0.00000  Uiso   1.00
O175   O     0.81404   0.50113   0.77396   0.00000  Uiso   1.00
O176   O     0.86574   0.42287   0.69284   0.00000  Uiso   1.00
O177   O     0.44259   0.23185   0.50069   0.00000  Uiso   1.00
O178   O     0.39220   0.31358   0.57732   0.00000  Uiso   1.00
C179   C     0.87523   0.45017   0.72193   0.00000  Uiso   1.00
C180   C     0.94895   0.42633   0.69757   0.00000  Uiso   1.00
C181   C     0.95467   0.45531   0.73779   0.00000  Uiso   1.00
H182   H     0.90563   0.49467   0.78802   0.00000  Uiso   1.00
C183   C     0.02360   0.43353   0.71442   0.00000  Uiso   1.00
H184   H     0.02458   0.45619   0.74864   0.00000  Uiso   1.00
C185   C     0.08994   0.38239   0.64919   0.00000  Uiso   1.00
C186   C     0.08338   0.35390   0.60912   0.00000  Uiso   1.00
H187   H     0.13122   0.31575   0.55819   0.00000  Uiso   1.00
C188   C     0.01459   0.37510   0.63304   0.00000  Uiso   1.00
H189   H     0.01250   0.35200   0.60036   0.00000  Uiso   1.00
C190   C     0.16495   0.35820   0.62379   0.00000  Uiso   1.00
C191   C     0.23083   0.28960   0.57837   0.00000  Uiso   1.00
H192   H     0.22877   0.25187   0.56335   0.00000  Uiso   1.00
C193   C     0.30030   0.26669   0.55419   0.00000  Uiso   1.00
H194   H     0.34879   0.21344   0.51961   0.00000  Uiso   1.00
C195   C     0.30714   0.31054   0.57594   0.00000  Uiso   1.00
C196   C     0.24172   0.37847   0.62244   0.00000  Uiso   1.00
H197   H     0.24420   0.41399   0.64067   0.00000  Uiso   1.00
C198   C     0.17226   0.40214   0.64528   0.00000  Uiso   1.00
H199   H     0.12441   0.45559   0.67940   0.00000  Uiso   1.00
C200   C     0.38170   0.28511   0.55088   0.00000  Uiso   1.00
O201   O     0.18901   0.09304   0.51984   0.00000  Uiso   1.00
O202   O     0.10428   0.20134   0.56829   0.00000  Uiso   1.00
O203   O     0.30222   0.39341  -0.00728   0.00000  Uiso   1.00
O204   O     0.37921   0.28649   0.93862   0.00000  Uiso   1.00
C205   C     0.15909   0.15807   0.50814   0.00000  Uiso   1.00
C206   C     0.18458   0.18123   0.43319   0.00000  Uiso   1.00
C207   C     0.24998   0.13025   0.36816   0.00000  Uiso   1.00
H208   H     0.28343   0.07274   0.37113   0.00000  Uiso   1.00
C209   C     0.27444   0.15280   0.29860   0.00000  Uiso   1.00
H210   H     0.32655   0.11120   0.25143   0.00000  Uiso   1.00
C211   C     0.23359   0.22734   0.29064   0.00000  Uiso   1.00
C212   C     0.16701   0.27772   0.35634   0.00000  Uiso   1.00
H213   H     0.13163   0.33516   0.35499   0.00000  Uiso   1.00
C214   C     0.14370   0.25528   0.42579   0.00000  Uiso   1.00
H215   H     0.09296   0.29640   0.47404   0.00000  Uiso   1.00
C216   C     0.25965   0.25244   0.21536   0.00000  Uiso   1.00
C217   C     0.31155   0.20283   0.14826   0.00000  Uiso   1.00
H218   H     0.33387   0.14539   0.14834   0.00000  Uiso   1.00
C219   C     0.33482   0.22646   0.07918   0.00000  Uiso   1.00
H220   H     0.37452   0.18633   0.02961   0.00000  Uiso   1.00
C221   C     0.30655   0.30082   0.07394   0.00000  Uiso   1.00
C222   C     0.25488   0.35040   0.14009   0.00000  Uiso   1.00
H223   H     0.23182   0.40788   0.13806   0.00000  Uiso   1.00
C224   C     0.23253   0.32690   0.20909   0.00000  Uiso   1.00
H225   H     0.19421   0.36789   0.25737   0.00000  Uiso   1.00
C226   C     0.32987   0.32718   0.00060   0.00000  Uiso   1.00
N227   N     0.25186   0.95044   0.41615   0.00000  Uiso   1.00
C228   C     0.31343   0.91198   0.42242   0.00000  Uiso   1.00
C229   C     0.21656   0.91384   0.44739   0.00000  Uiso   1.00
N230   N     0.95523   0.29412   0.54593   0.00000  Uiso   1.00
C231   C     0.93681   0.36001   0.51158   0.00000  Uiso   1.00
C232   C     0.99922   0.22914   0.49377   0.00000  Uiso   1.00
O233   O     0.58615   0.22875   0.50245   0.00000  Uiso   1.00
O234   O     0.47863   0.31195   0.57829   0.00000  Uiso   1.00
O235   O     0.67195   0.50291   0.77081   0.00000  Uiso   1.00
O236   O     0.77987   0.42804   0.68734   0.00000  Uiso   1.00
C237   C     0.54443   0.28205   0.55198   0.00000  Uiso   1.00
C238   C     0.56990   0.30666   0.57562   0.00000  Uiso   1.00
C239   C     0.64474   0.26625   0.54705   0.00000  Uiso   1.00
H240   H     0.68529   0.21577   0.50802   0.00000  Uiso   1.00
C241   C     0.66842   0.28986   0.56870   0.00000  Uiso   1.00
H242   H     0.72625   0.25558   0.54630   0.00000  Uiso   1.00
C243   C     0.61837   0.35541   0.61939   0.00000  Uiso   1.00
C244   C     0.54336   0.39562   0.64750   0.00000  Uiso   1.00
H245   H     0.50218   0.44678   0.68529   0.00000  Uiso   1.00
C246   C     0.51977   0.37155   0.62636   0.00000  Uiso   1.00
H247   H     0.46194   0.40437   0.64919   0.00000  Uiso   1.00
C248   C     0.64370   0.38096   0.64349   0.00000  Uiso   1.00
C249   C     0.59559   0.42635   0.71209   0.00000  Uiso   1.00
H250   H     0.54079   0.44132   0.74984   0.00000  Uiso   1.00
C251   C     0.61797   0.45060   0.73490   0.00000  Uiso   1.00
H252   H     0.57870   0.48504   0.78821   0.00000  Uiso   1.00
C253   C     0.69034   0.42910   0.69085   0.00000  Uiso   1.00
C254   C     0.73928   0.38275   0.62285   0.00000  Uiso   1.00
H255   H     0.79548   0.36467   0.58722   0.00000  Uiso   1.00
C256   C     0.71637   0.35972   0.59935   0.00000  Uiso   1.00
H257   H     0.75603   0.32564   0.54587   0.00000  Uiso   1.00
C258   C     0.71446   0.45392   0.71642   0.00000  Uiso   1.00
O259   O     0.29750   0.48306   0.90996   0.00000  Uiso   1.00
O260   O     0.37148   0.43474   0.80137   0.00000  Uiso   1.00
O261   O     0.18497   1.00963   0.60971   0.00000  Uiso   1.00
O262   O     0.10143   0.06417   0.71660   0.00000  Uiso   1.00
C263   C     0.32175   0.49484   0.84490   0.00000  Uiso   1.00
C264   C     0.29537   0.56981   0.82193   0.00000  Uiso   1.00
C265   C     0.24520   0.63462   0.87300   0.00000  Uiso   1.00
H266   H     0.22450   0.63130   0.93041   0.00000  Uiso   1.00
C267   C     0.22267   0.70424   0.85058   0.00000  Uiso   1.00
H268   H     0.18628   0.75145   0.89201   0.00000  Uiso   1.00
C269   C     0.24811   0.71234   0.77616   0.00000  Uiso   1.00
C270   C     0.29724   0.64688   0.72567   0.00000  Uiso   1.00
H271   H     0.31765   0.64855   0.66830   0.00000  Uiso   1.00
C272   C     0.32088   0.57738   0.74795   0.00000  Uiso   1.00
H273   H     0.35922   0.52926   0.70680   0.00000  Uiso   1.00
C274   C     0.22407   0.78757   0.75125   0.00000  Uiso   1.00
C275   C     0.15834   0.85454   0.80052   0.00000  Uiso   1.00
H276   H     0.12262   0.85423   0.85763   0.00000  Uiso   1.00
C277   C     0.13616   0.92361   0.77684   0.00000  Uiso   1.00
H278   H     0.08537   0.97311   0.81661   0.00000  Uiso   1.00
C279   C     0.17805   0.92885   0.70275   0.00000  Uiso   1.00
C280   C     0.24320   0.86276   0.65366   0.00000  Uiso   1.00
H281   H     0.27663   0.86482   0.59658   0.00000  Uiso   1.00
C282   C     0.26623   0.79382   0.67721   0.00000  Uiso   1.00
H283   H     0.31794   0.74551   0.63669   0.00000  Uiso   1.00
C284   C     0.15444   1.00205   0.67608   0.00000  Uiso   1.00
N285   N     0.10594   0.52760   0.02967   0.00000  Uiso   1.00
C286   C     0.11081   0.56913   0.06099   0.00000  Uiso   1.00
C287   C     0.11160   0.46475   0.06659   0.00000  Uiso   1.00
N288   N     0.29096   0.45690   0.71087   0.00000  Uiso   1.00
C289   C     0.30301   0.49129   0.64505   0.00000  Uiso   1.00
C290   C     0.21814   0.50891   0.77626   0.00000  Uiso   1.00
O291   O     0.22720   0.59037   0.18584   0.00000  Uiso   1.00
O292   O     0.30707   0.48284   0.13349   0.00000  Uiso   1.00
O293   O     0.49867   0.67582   0.55699   0.00000  Uiso   1.00
O294   O     0.42391   0.78376   0.60696   0.00000  Uiso   1.00
C295   C     0.27868   0.54882   0.12443   0.00000  Uiso   1.00
C296   C     0.30310   0.57447   0.05081   0.00000  Uiso   1.00
C297   C     0.26598   0.64973   0.04550   0.00000  Uiso   1.00
H298   H     0.21850   0.69065   0.09492   0.00000  Uiso   1.00
C299   C     0.28898   0.67347   0.97655   0.00000  Uiso   1.00
H300   H     0.25686   0.73187   0.97622   0.00000  Uiso   1.00
C301   C     0.35095   0.62297   0.90968   0.00000  Uiso   1.00
C302   C     0.38819   0.54747   0.91588   0.00000  Uiso   1.00
H303   H     0.43671   0.50564   0.86770   0.00000  Uiso   1.00
C304   C     0.36453   0.52392   0.98474   0.00000  Uiso   1.00
H305   H     0.39498   0.46568   0.98643   0.00000  Uiso   1.00
C306   C     0.37611   0.64832   0.83460   0.00000  Uiso   1.00
C307   C     0.41857   0.60119   0.76919   0.00000  Uiso   1.00
H308   H     0.43120   0.54740   0.77164   0.00000  Uiso   1.00
C309   C     0.44291   0.62335   0.69966   0.00000  Uiso   1.00
H310   H     0.47523   0.58481   0.65153   0.00000  Uiso   1.00
C311   C     0.42409   0.69472   0.69231   0.00000  Uiso   1.00
C312   C     0.38036   0.74289   0.75724   0.00000  Uiso   1.00
H313   H     0.36446   0.79831   0.75429   0.00000  Uiso   1.00
C314   C     0.35757   0.72003   0.82672   0.00000  Uiso   1.00
H315   H     0.32592   0.75896   0.87406   0.00000  Uiso   1.00
C316   C     0.44937   0.71851   0.61770   0.00000  Uiso   1.00
O317   O     0.47727   0.30448   0.80782   0.00000  Uiso   1.00
O318   O     0.42945   0.37635   0.89225   0.00000  Uiso   1.00
O319   O     1.00427   0.19017   0.69447   0.00000  Uiso   1.00
O320   O     0.05951   0.10604   0.61680   0.00000  Uiso   1.00
C321   C     0.48940   0.32756   0.83748   0.00000  Uiso   1.00
C322   C     0.56458   0.30071   0.81176   0.00000  Uiso   1.00
C323   C     0.62944   0.24943   0.74669   0.00000  Uiso   1.00
H324   H     0.62610   0.22830   0.71370   0.00000  Uiso   1.00
C325   C     0.69929   0.22623   0.72200   0.00000  Uiso   1.00
H326   H     0.74650   0.18890   0.67024   0.00000  Uiso   1.00
C327   C     0.70757   0.25224   0.76217   0.00000  Uiso   1.00
C328   C     0.64211   0.30235   0.82846   0.00000  Uiso   1.00
H329   H     0.64397   0.32315   0.86326   0.00000  Uiso   1.00
C330   C     0.57240   0.32651   0.85211   0.00000  Uiso   1.00
H331   H     0.52429   0.36558   0.90264   0.00000  Uiso   1.00
C332   C     0.78291   0.22806   0.73564   0.00000  Uiso   1.00
C333   C     0.84982   0.16151   0.68640   0.00000  Uiso   1.00
H334   H     0.84937   0.12514   0.66645   0.00000  Uiso   1.00
C335   C     0.91892   0.13945   0.66312   0.00000  Uiso   1.00
H336   H     0.96839   0.08799   0.62572   0.00000  Uiso   1.00
C337   C     0.92415   0.18240   0.68870   0.00000  Uiso   1.00
C338   C     0.85812   0.24848   0.73714   0.00000  Uiso   1.00
H339   H     0.86021   0.28298   0.75714   0.00000  Uiso   1.00
C340   C     0.78925   0.27123   0.75967   0.00000  Uiso   1.00
H341   H     0.74099   0.32361   0.79556   0.00000  Uiso   1.00
C342   C     0.99716   0.15914   0.66612   0.00000  Uiso   1.00
N343   N     0.54731   0.12320   0.79179   0.00000  Uiso   1.00
C344   C     0.56272   0.13812   0.71865   0.00000  Uiso   1.00
C345   C     0.50183   0.09741   0.82792   0.00000  Uiso   1.00
N346   N     0.45235   0.29461   0.04079   0.00000  Uiso   1.00
C347   C     0.48769   0.30646   0.05883   0.00000  Uiso   1.00
C348   C     0.50413   0.22231  -0.00462   0.00000  Uiso   1.00
O349   O     0.49458   0.18283   0.59356   0.00000  Uiso   1.00
O350   O     0.57096   0.13049   0.48612   0.00000  Uiso   1.00
O351   O     0.76700   0.55477   0.67992   0.00000  Uiso   1.00
O352   O     0.67885   0.60429   0.78695   0.00000  Uiso   1.00
C353   C     0.54423   0.12148   0.55212   0.00000  Uiso   1.00
C354   C     0.56788   0.04796   0.57789   0.00000  Uiso   1.00
C355   C     0.53444   0.04275   0.65318   0.00000  Uiso   1.00
H356   H     0.49096   0.09223   0.69413   0.00000  Uiso   1.00
C357   C     0.55673   0.97381   0.67690   0.00000  Uiso   1.00
H358   H     0.52997   0.97353   0.73533   0.00000  Uiso   1.00
C359   C     0.61300   0.90688   0.62635   0.00000  Uiso   1.00
C360   C     0.64587   0.91297   0.55081   0.00000  Uiso   1.00
H361   H     0.68819   0.86473   0.50890   0.00000  Uiso   1.00
C362   C     0.62399   0.98185   0.52731   0.00000  Uiso   1.00
H363   H     0.65082   0.98358   0.46906   0.00000  Uiso   1.00
C364   C     0.63752   0.83189   0.65177   0.00000  Uiso   1.00
C365   C     0.70799   0.76657   0.60505   0.00000  Uiso   1.00
H366   H     0.74698   0.76893   0.55140   0.00000  Uiso   1.00
C367   C     0.73094   0.69716   0.62743   0.00000  Uiso   1.00
H368   H     0.78558   0.64909   0.58922   0.00000  Uiso   1.00
C369   C     0.68515   0.68982   0.69846   0.00000  Uiso   1.00
C370   C     0.61534   0.75464   0.74616   0.00000  Uiso   1.00
H371   H     0.57837   0.75167   0.80134   0.00000  Uiso   1.00
C372   C     0.59169   0.82402   0.72315   0.00000  Uiso   1.00
H373   H     0.53673   0.87126   0.76170   0.00000  Uiso   1.00
C374   C     0.71052   0.61525   0.72223   0.00000  Uiso   1.00
O375   O     0.90726   0.80843   0.30767   0.00000  Uiso   1.00
O376   O     0.79901   0.89334   0.37946   0.00000  Uiso   1.00
O377   O     0.60660   0.69613   0.19383   0.00000  Uiso   1.00
O378   O     0.71345   0.61900   0.11004   0.00000  Uiso   1.00
C379   C     0.84223   0.83837   0.33108   0.00000  Uiso   1.00
C380   C     0.81903   0.81290   0.30489   0.00000  Uiso   1.00
C381   C     0.87009   0.74804   0.25357   0.00000  Uiso   1.00
H382   H     0.92770   0.71493   0.23192   0.00000  Uiso   1.00
C383   C     0.84754   0.72371   0.23091   0.00000  Uiso   1.00
H384   H     0.88934   0.67195   0.19370   0.00000  Uiso   1.00
C385   C     0.77286   0.76422   0.25721   0.00000  Uiso   1.00
C386   C     0.72243   0.83036   0.30736   0.00000  Uiso   1.00
H387   H     0.66488   0.86565   0.32861   0.00000  Uiso   1.00
C388   C     0.74490   0.85341   0.33126   0.00000  Uiso   1.00
H389   H     0.70368   0.90371   0.37049   0.00000  Uiso   1.00
C390   C     0.74767   0.73829   0.23305   0.00000  Uiso   1.00
C391   C     0.79755   0.68493   0.16929   0.00000  Uiso   1.00
H392   H     0.85529   0.66132   0.13497   0.00000  Uiso   1.00
C393   C     0.77390   0.66168   0.14717   0.00000  Uiso   1.00
H394   H     0.81426   0.62070   0.09818   0.00000  Uiso   1.00
C395   C     0.69925   0.69149   0.18689   0.00000  Uiso   1.00
C396   C     0.64941   0.74465   0.24974   0.00000  Uiso   1.00
H397   H     0.59172   0.76907   0.28094   0.00000  Uiso   1.00
C398   C     0.67285   0.76688   0.27304   0.00000  Uiso   1.00
H399   H     0.63138   0.80635   0.32322   0.00000  Uiso   1.00
C400   C     0.67283   0.66832   0.16327   0.00000  Uiso   1.00
N401   N     0.04179   0.75733   0.12637   0.00000  Uiso   1.00
C402   C     0.08114   0.69641   0.15547   0.00000  Uiso   1.00
C403   C     0.08465   0.78431   0.07368   0.00000  Uiso   1.00
N404   N     0.76918   0.02200   0.20925   0.00000  Uiso   1.00
C405   C     0.71244   0.03044   0.28610   0.00000  Uiso   1.00
C406   C     0.83378  -0.05512   0.17953   0.00000  Uiso   1.00
O407   O     0.17970   0.49842   0.23192   0.00000  Uiso   1.00
O408   O     0.12778   0.57677   0.31311   0.00000  Uiso   1.00
O409   O     0.55127   0.76839   0.50402   0.00000  Uiso   1.00
O410   O     0.60158   0.68531   0.42903   0.00000  Uiso   1.00
C411   C     0.11843   0.54941   0.28393   0.00000  Uiso   1.00
C412   C     0.04469   0.57352   0.30812   0.00000  Uiso   1.00
C413   C     0.03887   0.54503   0.26761   0.00000  Uiso   1.00
H414   H     0.08789   0.50583   0.21727   0.00000  Uiso   1.00
C415   C     0.96990   0.56707   0.29087   0.00000  Uiso   1.00
H416   H     0.96891   0.54473   0.25640   0.00000  Uiso   1.00
C417   C     0.90360   0.61794   0.35631   0.00000  Uiso   1.00
C418   C     0.91025   0.64609   0.39656   0.00000  Uiso   1.00
H419   H     0.86247   0.68409   0.44760   0.00000  Uiso   1.00
C420   C     0.97908   0.62472   0.37270   0.00000  Uiso   1.00
H421   H     0.98117   0.64767   0.40554   0.00000  Uiso   1.00
C422   C     0.82860   0.64208   0.38172   0.00000  Uiso   1.00
C423   C     0.76248   0.71009   0.42824   0.00000  Uiso   1.00
H424   H     0.76413   0.74742   0.44459   0.00000  Uiso   1.00
C425   C     0.69314   0.73286   0.45218   0.00000  Uiso   1.00
H426   H     0.64446   0.78564   0.48761   0.00000  Uiso   1.00
C427   C     0.68659   0.68938   0.42940   0.00000  Uiso   1.00
C428   C     0.75218   0.62203   0.38201   0.00000  Uiso   1.00
H429   H     0.74991   0.58681   0.36300   0.00000  Uiso   1.00
C430   C     0.82154   0.59855   0.35920   0.00000  Uiso   1.00
H431   H     0.86952   0.54550   0.32433   0.00000  Uiso   1.00
C432   C     0.61211   0.71456   0.45455   0.00000  Uiso   1.00
O433   O     0.80735   0.91025   0.48580   0.00000  Uiso   1.00
O434   O     0.88948   0.80160   0.43725   0.00000  Uiso   1.00
O435   O     0.69134   0.60956   1.01231   0.00000  Uiso   1.00
O436   O     0.61757   0.71634   0.06555   0.00000  Uiso   1.00
C437   C     0.83578   0.84510   0.49740   0.00000  Uiso   1.00
C438   C     0.80980   0.82186   0.57217   0.00000  Uiso   1.00
C439   C     0.74408   0.87274   0.63714   0.00000  Uiso   1.00
H440   H     0.71066   0.93033   0.63424   0.00000  Uiso   1.00
C441   C     0.71945   0.84994   0.70653   0.00000  Uiso   1.00
H442   H     0.66726   0.89133   0.75385   0.00000  Uiso   1.00
C443   C     0.76038   0.77532   0.71423   0.00000  Uiso   1.00
C444   C     0.82694   0.72500   0.64860   0.00000  Uiso   1.00
H445   H     0.86208   0.66748   0.65002   0.00000  Uiso   1.00
C446   C     0.85044   0.74766   0.57933   0.00000  Uiso   1.00
H447   H     0.90120   0.70665   0.53099   0.00000  Uiso   1.00
C448   C     0.73453   0.75010   0.78929   0.00000  Uiso   1.00
C449   C     0.68480   0.79920   0.85611   0.00000  Uiso   1.00
H450   H     0.66407   0.85621   0.85574   0.00000  Uiso   1.00
C451   C     0.66190   0.77553   0.92509   0.00000  Uiso   1.00
H452   H     0.62382   0.81527   0.97445   0.00000  Uiso   1.00
C453   C     0.68838   0.70159   0.93047   0.00000  Uiso   1.00
C454   C     0.73774   0.65249   0.86454   0.00000  Uiso   1.00
H455   H     0.75919   0.59538   0.86669   0.00000  Uiso   1.00
C456   C     0.75983   0.67610   0.79558   0.00000  Uiso   1.00
H457   H     0.79648   0.63569   0.74733   0.00000  Uiso   1.00
C458   C     0.66531   0.67549   1.00389   0.00000  Uiso   1.00
N459   N     0.83027   0.02978   0.53297   0.00000  Uiso   1.00
C460   C     0.75167   0.06439   0.57514   0.00000  Uiso   1.00
C461   C     0.85223   0.06565   0.46969   0.00000  Uiso   1.00
N462   N     0.03911   0.70875   0.45907   0.00000  Uiso   1.00
C463   C     0.05585   0.64344   0.49436   0.00000  Uiso   1.00
C464   C    -0.00525   0.77410   0.51099   0.00000  Uiso   1.00
In465  In    0.48970   0.75722   0.49521   0.00000  Uiso   1.00
In466  In    0.75377   0.49264   0.76050   0.00000  Uiso   1.00
In467  In    0.50403   0.24223   0.51070   0.00000  Uiso   1.00
In468  In    0.23965   0.50753   0.24533   0.00000  Uiso   1.00
In469  In    0.62874   0.63245   0.12384   0.00000  Uiso   1.00
In470  In    0.11580   0.12112   0.63132   0.00000  Uiso   1.00
In471  In    0.36577   0.37140   0.88122   0.00000  Uiso   1.00
In472  In    0.87920   0.88153   0.37412   0.00000  Uiso   1.00
H473   H     0.84484   0.49483   1.03059   0.00000  Uiso   1.00
H474   H     0.88788   0.38730   0.97258   0.00000  Uiso   1.00
H475   H     0.93432   0.40891   0.88369   0.00000  Uiso   1.00
H476   H     0.83457   0.46753   0.94457   0.00000  Uiso   1.00
H477   H     0.92784   0.52117   0.87905   0.00000  Uiso   1.00
H478   H     0.88295   0.57186   0.96413   0.00000  Uiso   1.00
H479   H     0.82860   0.57633   0.94345   0.00000  Uiso   1.00
H480   H     0.66252   0.56209   0.28556   0.00000  Uiso   1.00
H481   H     0.69424   0.46112   0.35225   0.00000  Uiso   1.00
H482   H     0.63444   0.54922   0.40745   0.00000  Uiso   1.00
H483   H     0.73119   0.49150   0.36883   0.00000  Uiso   1.00
H484   H     0.78311   0.51955   0.17842   0.00000  Uiso   1.00
H485   H     0.78213   0.44337   0.21877   0.00000  Uiso   1.00
H486   H     0.81911   0.47537   0.23334   0.00000  Uiso   1.00
H487   H     0.50244   0.85481   0.11851   0.00000  Uiso   1.00
H488   H     0.46891   0.84097   0.24483   0.00000  Uiso   1.00
H489   H     0.39198   0.89759   0.23788   0.00000  Uiso   1.00
H490   H     0.41224   0.94046   0.26578   0.00000  Uiso   1.00
H491   H     0.58221   0.88722   0.07925   0.00000  Uiso   1.00
H492   H     0.58221   0.82933   0.14826   0.00000  Uiso   1.00
H493   H     0.52972   0.92750   0.17271   0.00000  Uiso   1.00
H494   H     0.56452   0.65674   0.98638   0.00000  Uiso   1.00
H495   H     0.54881   0.62228   0.91360   0.00000  Uiso   1.00
H496   H     0.49649   0.71668   0.90389   0.00000  Uiso   1.00
H497   H     0.46156   0.68957   0.99351   0.00000  Uiso   1.00
H498   H     0.45068   0.77822   1.04495   0.00000  Uiso   1.00
H499   H     0.48498   0.80841   0.95684   0.00000  Uiso   1.00
H500   H     0.52967   0.77626   1.00226   0.00000  Uiso   1.00
H501   H     0.98711   0.20648   0.83913   0.00000  Uiso   1.00
H502   H     0.85201   0.36280   0.89454   0.00000  Uiso   1.00
H503   H     0.89435   0.30221   0.81747   0.00000  Uiso   1.00
H504   H     0.94280   0.32981   0.81342   0.00000  Uiso   1.00
H505   H     0.91449   0.18130   0.95390   0.00000  Uiso   1.00
H506   H     0.87657   0.21571   0.90096   0.00000  Uiso   1.00
H507   H     0.83587   0.27568   0.97773   0.00000  Uiso   1.00
H508   H     0.28047   0.98893   0.66613   0.00000  Uiso   1.00
H509   H     0.40224   0.90964   0.63814   0.00000  Uiso   1.00
H510   H     0.36372   0.90961   0.73489   0.00000  Uiso   1.00
H511   H     0.34635   0.99354   0.69777   0.00000  Uiso   1.00
H512   H     0.22827   0.97294   0.82297   0.00000  Uiso   1.00
H513   H     0.17348   1.01800   0.78691   0.00000  Uiso   1.00
H514   H     0.21296   1.05632   0.78516   0.00000  Uiso   1.00
H515   H     0.21302   1.00449   0.44422   0.00000  Uiso   1.00
H516   H     0.33740   0.94233   0.40117   0.00000  Uiso   1.00
H517   H     0.35716   0.85549   0.38972   0.00000  Uiso   1.00
H518   H     0.29467   0.90881   0.48074   0.00000  Uiso   1.00
H519   H     0.25600   0.85704   0.41684   0.00000  Uiso   1.00
H520   H     0.16942   0.94455   0.44302   0.00000  Uiso   1.00
H521   H     0.19542   0.91210   0.50649   0.00000  Uiso   1.00
H522   H     0.98492   0.28614   0.56406   0.00000  Uiso   1.00
H523   H     0.90316   0.37098   0.49393   0.00000  Uiso   1.00
H524   H     0.98751   0.35362   0.46313   0.00000  Uiso   1.00
H525   H     0.90450   0.40841   0.55163   0.00000  Uiso   1.00
H526   H     0.96757   0.23534   0.47584   0.00000  Uiso   1.00
H527   H     1.01381   0.17964   0.52039   0.00000  Uiso   1.00
H528   H     1.05111   0.22015   0.44483   0.00000  Uiso   1.00
H529   H     0.05548   0.56221   0.03591   0.00000  Uiso   1.00
H530   H     0.11033   0.61410   0.02961   0.00000  Uiso   1.00
H531   H     0.16271   0.53308   0.05774   0.00000  Uiso   1.00
H532   H     0.06310   0.59402   0.11934   0.00000  Uiso   1.00
H533   H     0.16526   0.42640   0.05984   0.00000  Uiso   1.00
H534   H     0.10750   0.43423   0.04219   0.00000  Uiso   1.00
H535   H     0.06624   0.48357   0.12611   0.00000  Uiso   1.00
H536   H     0.29497   0.41146   0.70418   0.00000  Uiso   1.00
H537   H     0.29932   0.53967   0.65065   0.00000  Uiso   1.00
H538   H     0.26184   0.50908   0.63535   0.00000  Uiso   1.00
H539   H     0.35870   0.45124   0.59622   0.00000  Uiso   1.00
H540   H     0.21073   0.48241   0.82572   0.00000  Uiso   1.00
H541   H     0.17430   0.52627   0.77116   0.00000  Uiso   1.00
H542   H     0.21199   0.55819   0.78451   0.00000  Uiso   1.00
H543   H     0.59700   0.08296   0.78664   0.00000  Uiso   1.00
H544   H     0.51101   0.17746   0.72169   0.00000  Uiso   1.00
H545   H     0.59792   0.08628   0.68139   0.00000  Uiso   1.00
H546   H     0.59212   0.16308   0.69477   0.00000  Uiso   1.00
H547   H     0.48947   0.08812   0.88387   0.00000  Uiso   1.00
H548   H     0.53139   0.04459   0.79617   0.00000  Uiso   1.00
H549   H     0.44876   0.13905   0.83361   0.00000  Uiso   1.00
H550   H     0.40766   0.29787   0.08944   0.00000  Uiso   1.00
H551   H     0.53540   0.30341   0.00799   0.00000  Uiso   1.00
H552   H     0.50667   0.26478   0.09098   0.00000  Uiso   1.00
H553   H     0.44786   0.36184   0.09249   0.00000  Uiso   1.00
H554   H     0.47689   0.21508  -0.01919   0.00000  Uiso   1.00
H555   H     0.52282   0.17786   0.02587   0.00000  Uiso   1.00
H556   H     0.55263   0.21699  -0.05655   0.00000  Uiso   1.00
H557   H     0.03186   0.73939   0.10031   0.00000  Uiso   1.00
H558   H     0.13446   0.64949   0.11047   0.00000  Uiso   1.00
H559   H     0.04755   0.67708   0.19563   0.00000  Uiso   1.00
H560   H     0.09153   0.71440   0.18418   0.00000  Uiso   1.00
H561   H     0.05388   0.83031   0.05224   0.00000  Uiso   1.00
H562   H     0.13808   0.73993   0.02648   0.00000  Uiso   1.00
H563   H     0.09475   0.80499   0.10054   0.00000  Uiso   1.00
H564   H     0.78482   0.05364   0.20594   0.00000  Uiso   1.00
H565   H     0.73360   0.01141   0.32063   0.00000  Uiso   1.00
H566   H     0.69325  -0.00087   0.29071   0.00000  Uiso   1.00
H567   H     0.66438   0.08923   0.30774   0.00000  Uiso   1.00
H568   H     0.87603  -0.06028   0.12124   0.00000  Uiso   1.00
H569   H     0.81878  -0.08991   0.18161   0.00000  Uiso   1.00
H570   H     0.85839  -0.07575   0.21086   0.00000  Uiso   1.00
H571   H     0.84145   0.03401   0.56700   0.00000  Uiso   1.00
H572   H     0.73659   0.03534   0.62188   0.00000  Uiso   1.00
H573   H     0.73792   0.06142   0.54016   0.00000  Uiso   1.00
H574   H     0.71860   0.12286   0.59772   0.00000  Uiso   1.00
H575   H     0.84176   0.06127   0.43206   0.00000  Uiso   1.00
H576   H     0.91191   0.03868   0.43856   0.00000  Uiso   1.00
H577   H     0.82179   0.12457   0.48809   0.00000  Uiso   1.00
H578   H     0.08827   0.70068   0.41461   0.00000  Uiso   1.00
H579   H     0.08860   0.59472   0.45444   0.00000  Uiso   1.00
H580   H     0.00448   0.65060   0.54198   0.00000  Uiso   1.00
H581   H     0.08836   0.63248   0.51357   0.00000  Uiso   1.00
H582   H    -0.05779   0.78387   0.55921   0.00000  Uiso   1.00
H583   H    -0.01865   0.82319   0.48369   0.00000  Uiso   1.00
H584   H     0.02558   0.76780   0.53013   0.00000  Uiso   1.00
H585   H     0.43337   0.33547   0.01221   0.00000  Uiso   1.00
H586   H     0.74774   0.04053   0.17809   0.00000  Uiso   1.00
H587   H     0.86031  -0.02582   0.51460   0.00000  Uiso   1.00
H588   H     0.69812   0.58980   0.30051   0.00000  Uiso   1.00
H589   H     0.51958   0.17126   0.82417   0.00000  Uiso   1.00
H590   H     0.33127   0.43915   0.71792   0.00000  Uiso   1.00
H591   H     0.01025   0.71680   0.43976   0.00000  Uiso   1.00
H592   H    -0.00846   0.80043   0.16961   0.00000  Uiso   1.00
H593   H     0.45370   0.94715   0.14022   0.00000  Uiso   1.00
H594   H     0.90672   0.30139   0.59111   0.00000  Uiso   1.00
H595   H     0.94842   0.26341   0.91100   0.00000  Uiso   1.00
H596   H     0.93804   0.44311   0.96961   0.00000  Uiso   1.00
H597   H     0.14854   0.50878  -0.02637   0.00000  Uiso   1.00
H598   H     0.29595   0.91086   0.70251   0.00000  Uiso   1.00
H599   H     0.27124   0.95135   0.36066   0.00000  Uiso   1.00
loop_
_geom_bond_atom_site_label_1
_geom_bond_atom_site_label_2
_geom_bond_distance
_geom_bond_site_symmetry_2
_ccdc_geom_bond_type
O1     C5      1.254   .     A
O1     In465   2.029   .     S
O2     C5      1.258   .     A
O2     In465   2.038   .     S
O3     C26     1.256   .     A
O3     In468   2.038   .     S
O4     C26     1.256   .     A
O4     In468   2.038   .     S
C5     C6      1.516   .     S
C6     C7      1.410   .     A
C6     C14     1.406   .     A
C7     H8      1.082   .     S
C7     C9      1.416   .     A
C9     H10     1.081   .     S
C9     C11     1.416   .     A
C11    C12     1.418   .     A
C11    C16     1.535   .     S
C12    H13     1.081   .     S
C12    C14     1.415   .     A
C14    H15     1.080   .     S
C16    C17     1.413   .     A
C16    C24     1.417   .     A
C17    H18     1.079   .     S
C17    C19     1.413   .     A
C19    H20     1.083   .     S
C19    C21     1.408   .     A
C21    C22     1.410   .     A
C21    C26     1.515   .     S
C22    H23     1.081   .     S
C22    C24     1.417   .     A
C24    H25     1.081   .     S
O27    C31     1.257   .     A
O27    In469   2.043   .     S
O28    C31     1.255   .     A
O28    In469   2.033   .     S
O29    C52     1.258   .     A
O29    In472   2.028   1_545 A
O30    In472   2.040   .     S
O30    C52     1.258   1_565 S
C31    C32     1.518   .     S
C32    C33     1.409   .     A
C32    C40     1.408   .     A
C33    H34     1.083   .     S
C33    C35     1.418   .     A
C35    H36     1.080   .     S
C35    C37     1.420   .     A
C37    C38     1.418   .     A
C37    C42     1.542   .     S
C38    H39     1.080   .     S
C38    C40     1.414   .     A
C40    H41     1.081   .     S
C42    C43     1.420   .     A
C42    C50     1.419   .     A
C43    H44     1.080   .     S
C43    C45     1.418   .     A
C45    H46     1.083   .     S
C45    C47     1.409   .     A
C47    C48     1.404   .     A
C47    C52     1.516   .     S
C48    H49     1.079   .     S
C48    C50     1.414   .     A
C50    H51     1.079   .     S
C52    O30     1.258   1_545 S
N53    C54     1.464   .     S
N53    C55     1.464   .     S
N53    H473    1.046   .     S
N53    H596    1.047   .     S
C54    H474    1.111   .     S
C54    H475    1.112   .     S
C54    H476    1.112   .     S
C55    H477    1.111   .     S
C55    H478    1.111   .     S
C55    H479    1.111   .     S
N56    C57     1.465   .     S
N56    C58     1.465   .     S
N56    H480    1.045   .     S
N56    H588    1.046   .     S
C57    H481    1.112   .     S
C57    H482    1.111   .     S
C57    H483    1.112   .     S
C58    H484    1.110   .     S
C58    H485    1.112   .     S
C58    H486    1.112   .     S
O59    C63     1.253   .     A
O59    In466   2.028   .     S
O60    C63     1.258   .     A
O60    In466   2.038   .     S
O61    C84     1.256   .     A
O61    In467   2.035   .     S
O62    C84     1.256   .     A
O62    In467   2.039   .     S
C63    C64     1.514   .     S
C64    C65     1.409   .     A
C64    C72     1.404   1_556 S
C65    H66     1.083   .     S
C65    C67     1.417   1_556 A
C67    H68     1.080   .     S
C67    C69     1.418   .     A
C67    C65     1.417   1_554 A
C69    C70     1.420   .     A
C69    C74     1.541   .     S
C70    H71     1.079   .     S
C70    C72     1.414   .     A
C72    H73     1.080   .     S
C72    C64     1.404   1_554 S
C74    C75     1.415   .     A
C74    C82     1.419   .     A
C75    H76     1.070   .     S
C75    C77     1.411   .     A
C77    H78     1.083   .     S
C77    C79     1.406   .     A
C79    C80     1.410   .     A
C79    C84     1.516   .     S
C80    H81     1.081   .     S
C80    C82     1.418   .     A
C82    H83     1.080   .     S
O85    C89     1.257   .     A
O85    In469   2.043   .     S
O86    C89     1.254   .     A
O86    In469   2.029   .     S
O87    C110    1.258   .     A
O87    In472   2.031   1_455 S
O88    In472   2.036   .     S
O88    C110    1.257   1_655 S
C89    C90     1.515   .     S
C90    C91     1.409   .     A
C90    C98     1.408   .     A
C91    H92     1.083   .     S
C91    C93     1.417   .     A
C93    H94     1.080   .     S
C93    C95     1.419   .     A
C95    C96     1.417   .     A
C95    C100    1.538   .     S
C96    H97     1.080   .     S
C96    C98     1.414   .     A
C98    H99     1.082   .     S
C100   C101    1.418   .     A
C100   C108    1.418   .     A
C101   H102    1.081   .     S
C101   C103    1.417   .     A
C103   H104    1.082   .     S
C103   C105    1.409   .     A
C105   C106    1.405   .     A
C105   C110    1.516   .     S
C106   H107    1.078   .     S
C106   C108    1.414   .     A
C108   H109    1.080   .     S
C110   O88     1.257   1_455 S
N111   C112    1.464   .     S
N111   C113    1.465   .     S
N111   H487    1.046   .     S
N111   H593    1.047   .     S
C112   H488    1.112   .     S
C112   H489    1.111   .     S
C112   H490    1.112   .     S
C113   H491    1.111   .     S
C113   H492    1.111   .     S
C113   H493    1.111   .     S
N114   C115    1.464   .     S
N114   C116    1.464   .     S
N114   H494    1.046   .     S
C115   H495    1.110   .     S
C115   H496    1.111   .     S
C115   H497    1.112   .     S
C116   H498    1.112   .     S
C116   H499    1.111   .     S
C116   H500    1.109   .     S
O117   C121    1.254   .     A
O117   In465   2.030   .     S
O118   C121    1.258   .     A
O118   In465   2.038   .     S
O119   C142    1.255   .     A
O119   In468   2.038   .     S
O120   C142    1.256   .     A
O120   In468   2.040   .     S
C121   C122    1.515   .     S
C122   C123    1.410   .     A
C122   C130    1.406   1_565 A
C123   H124    1.082   .     S
C123   C125    1.417   1_565 S
C125   H126    1.080   .     S
C125   C127    1.416   .     A
C125   C123    1.417   1_545 S
C127   C128    1.418   .     A
C127   C132    1.537   .     S
C128   H129    1.078   .     S
C128   C130    1.414   .     A
C130   H131    1.081   .     S
C130   C122    1.406   1_545 A
C132   C133    1.414   .     A
C132   C140    1.417   .     A
C133   H134    1.076   .     S
C133   C135    1.414   .     A
C135   H136    1.083   .     S
C135   C137    1.408   .     A
C137   C138    1.410   .     A
C137   C142    1.517   .     S
C138   H139    1.082   .     S
C138   C140    1.418   .     A
C140   H141    1.081   .     S
O143   C147    1.257   .     A
O143   In470   2.040   .     S
O144   C147    1.255   .     A
O144   In470   2.033   .     S
O145   C168    1.258   .     A
O145   In471   2.030   .     S
O146   C168    1.256   .     A
O146   In471   2.037   .     S
C147   C148    1.516   .     S
C148   C149    1.409   .     A
C148   C156    1.407   .     A
C149   H150    1.082   .     S
C149   C151    1.418   .     A
C151   H152    1.080   .     S
C151   C153    1.420   .     A
C153   C154    1.418   .     A
C153   C158    1.540   .     S
C154   H155    1.080   .     S
C154   C156    1.413   .     A
C156   H157    1.081   .     S
C158   C159    1.419   .     A
C158   C166    1.418   .     A
C159   H160    1.080   .     S
C159   C161    1.418   .     A
C161   H162    1.082   .     S
C161   C163    1.409   .     A
C163   C164    1.404   .     A
C163   C168    1.515   .     S
C164   H165    1.078   .     S
C164   C166    1.414   .     A
C166   H167    1.080   .     S
N169   C170    1.465   .     S
N169   C171    1.464   .     S
N169   H501    1.046   .     S
N169   H595    1.046   .     S
C170   H502    1.112   .     S
C170   H503    1.109   .     S
C170   H504    1.110   .     S
C171   H505    1.111   .     S
C171   H506    1.112   .     S
C171   H507    1.111   .     S
N172   C173    1.465   .     S
N172   C174    1.464   .     S
N172   H508    1.046   .     S
N172   H598    1.046   .     S
C173   H509    1.111   .     S
C173   H510    1.112   .     S
C173   H511    1.112   .     S
C174   H512    1.112   .     S
C174   H513    1.110   .     S
C174   H514    1.112   .     S
O175   C179    1.254   .     A
O175   In466   2.030   .     S
O176   C179    1.258   .     A
O176   In466   2.039   .     S
O177   C200    1.256   .     A
O177   In467   2.040   .     S
O178   C200    1.257   .     A
O178   In467   2.038   .     S
C179   C180    1.515   .     S
C180   C181    1.410   .     A
C180   C188    1.406   1_655 A
C181   H182    1.083   .     S
C181   C183    1.417   1_655 A
C183   H184    1.080   .     S
C183   C185    1.417   .     A
C183   C181    1.417   1_455 A
C185   C186    1.418   .     A
C185   C190    1.537   .     S
C186   H187    1.078   .     S
C186   C188    1.414   .     A
C188   H189    1.081   .     S
C188   C180    1.406   1_455 A
C190   C191    1.414   .     A
C190   C198    1.417   .     A
C191   H192    1.076   .     S
C191   C193    1.414   .     A
C193   H194    1.083   .     S
C193   C195    1.408   .     A
C195   C196    1.410   .     A
C195   C200    1.517   .     S
C196   H197    1.081   .     S
C196   C198    1.418   .     A
C198   H199    1.081   .     S
O201   C205    1.257   .     A
O201   In470   2.038   .     S
O202   C205    1.255   .     A
O202   In470   2.034   .     S
O203   C226    1.258   .     A
O203   In471   2.029   1_554 A
O204   In471   2.038   .     S
O204   C226    1.257   1_556 S
C205   C206    1.517   .     S
C206   C207    1.409   .     A
C206   C214    1.408   .     A
C207   H208    1.082   .     S
C207   C209    1.418   .     A
C209   H210    1.080   .     S
C209   C211    1.419   .     A
C211   C212    1.418   .     A
C211   C216    1.540   .     S
C212   H213    1.080   .     S
C212   C214    1.414   .     A
C214   H215    1.081   .     S
C216   C217    1.419   .     A
C216   C224    1.418   .     A
C217   H218    1.080   .     S
C217   C219    1.418   .     A
C219   H220    1.083   .     S
C219   C221    1.409   .     A
C221   C222    1.405   .     A
C221   C226    1.515   .     S
C222   H223    1.080   .     S
C222   C224    1.414   .     A
C224   H225    1.080   .     S
C226   O204    1.257   1_554 S
N227   C228    1.465   .     S
N227   C229    1.463   .     S
N227   H515    1.045   .     S
N227   H599    1.046   .     S
C228   H516    1.110   .     S
C228   H517    1.112   .     S
C228   H518    1.110   .     S
C229   H519    1.110   .     S
C229   H520    1.111   .     S
C229   H521    1.112   .     S
N230   C231    1.465   .     S
N230   C232    1.464   .     S
N230   H522    1.046   .     S
N230   H594    1.046   .     S
C231   H523    1.112   .     S
C231   H524    1.112   .     S
C231   H525    1.111   .     S
C232   H526    1.112   .     S
C232   H527    1.110   .     S
C232   H528    1.112   .     S
O233   C237    1.253   .     A
O233   In467   2.030   .     S
O234   C237    1.257   .     A
O234   In467   2.039   .     S
O235   C258    1.257   .     A
O235   In466   2.037   .     S
O236   C258    1.257   .     A
O236   In466   2.036   .     S
C237   C238    1.515   .     S
C238   C239    1.410   .     A
C238   C246    1.406   .     A
C239   H240    1.083   .     S
C239   C241    1.416   .     A
C241   H242    1.081   .     S
C241   C243    1.416   .     A
C243   C244    1.417   .     A
C243   C248    1.536   .     S
C244   H245    1.078   .     S
C244   C246    1.414   .     A
C246   H247    1.081   .     S
C248   C249    1.414   .     A
C248   C256    1.417   .     A
C249   H250    1.076   .     S
C249   C251    1.414   .     A
C251   H252    1.083   .     S
C251   C253    1.408   .     A
C253   C254    1.410   .     A
C253   C258    1.517   .     S
C254   H255    1.082   .     S
C254   C256    1.417   .     A
C256   H257    1.081   .     S
O259   C263    1.257   .     A
O259   In471   2.040   .     S
O260   C263    1.255   .     A
O260   In471   2.032   .     S
O261   C284    1.258   .     A
O261   In470   2.028   1_565 A
O262   In470   2.038   .     S
O262   C284    1.258   1_545 S
C263   C264    1.516   .     S
C264   C265    1.408   .     A
C264   C272    1.408   .     A
C265   H266    1.083   .     S
C265   C267    1.418   .     A
C267   H268    1.080   .     S
C267   C269    1.419   .     A
C269   C270    1.417   .     A
C269   C274    1.538   .     S
C270   H271    1.080   .     S
C270   C272    1.413   .     A
C272   H273    1.080   .     S
C274   C275    1.419   .     A
C274   C282    1.417   .     A
C275   H276    1.081   .     S
C275   C277    1.418   .     A
C277   H278    1.083   .     S
C277   C279    1.409   .     A
C279   C280    1.404   .     A
C279   C284    1.516   .     S
C280   H281    1.078   .     S
C280   C282    1.414   .     A
C282   H283    1.080   .     S
C284   O262    1.258   1_565 S
N285   C286    1.464   .     S
N285   C287    1.464   .     S
N285   H529    1.047   .     S
N285   H597    1.046   .     S
C286   H530    1.111   .     S
C286   H531    1.112   .     S
C286   H532    1.112   .     S
C287   H533    1.111   .     S
C287   H534    1.111   .     S
C287   H535    1.111   .     S
N288   C289    1.465   .     S
N288   C290    1.465   .     S
N288   H536    1.046   .     S
N288   H590    1.046   .     S
C289   H537    1.112   .     S
C289   H538    1.111   .     S
C289   H539    1.111   .     S
C290   H540    1.110   .     S
C290   H541    1.112   .     S
C290   H542    1.112   .     S
O291   C295    1.255   .     A
O291   In468   2.030   .     S
O292   C295    1.258   .     A
O292   In468   2.036   .     S
O293   C316    1.256   .     A
O293   In465   2.038   .     S
O294   C316    1.257   .     A
O294   In465   2.037   .     S
C295   C296    1.515   .     S
C296   C297    1.409   .     A
C296   C304    1.406   1_554 S
C297   H298    1.082   .     S
C297   C299    1.416   1_554 A
C299   H300    1.081   .     S
C299   C301    1.417   .     A
C299   C297    1.416   1_556 A
C301   C302    1.418   .     A
C301   C306    1.538   .     S
C302   H303    1.078   .     S
C302   C304    1.414   .     A
C304   H305    1.081   .     S
C304   C296    1.406   1_556 S
C306   C307    1.414   .     A
C306   C314    1.418   .     A
C307   H308    1.076   .     S
C307   C309    1.413   .     A
C309   H310    1.083   .     S
C309   C311    1.408   .     A
C311   C312    1.410   .     A
C311   C316    1.516   .     S
C312   H313    1.082   .     S
C312   C314    1.417   .     A
C314   H315    1.080   .     S
O317   C321    1.257   .     A
O317   In471   2.040   .     S
O318   C321    1.255   .     A
O318   In471   2.034   .     S
O319   C342    1.258   .     A
O319   In470   2.029   1_655 S
O320   In470   2.040   .     S
O320   C342    1.258   1_455 A
C321   C322    1.516   .     S
C322   C323    1.409   .     A
C322   C330    1.407   .     A
C323   H324    1.082   .     S
C323   C325    1.418   .     A
C325   H326    1.081   .     S
C325   C327    1.418   .     A
C327   C328    1.418   .     A
C327   C332    1.537   .     S
C328   H329    1.081   .     S
C328   C330    1.414   .     A
C330   H331    1.081   .     S
C332   C333    1.419   .     A
C332   C340    1.416   .     A
C333   H334    1.081   .     S
C333   C335    1.419   .     A
C335   H336    1.083   .     S
C335   C337    1.410   .     A
C337   C338    1.404   .     A
C337   C342    1.517   .     S
C338   H339    1.077   .     S
C338   C340    1.413   .     A
C340   H341    1.080   .     S
C342   O320    1.258   1_655 A
N343   C344    1.465   .     S
N343   C345    1.464   .     S
N343   H543    1.046   .     S
N343   H589    1.045   .     S
C344   H544    1.110   .     S
C344   H545    1.112   .     S
C344   H546    1.109   .     S
C345   H547    1.111   .     S
C345   H548    1.111   .     S
C345   H549    1.113   .     S
N346   C347    1.465   .     S
N346   C348    1.465   .     S
N346   H550    1.046   .     S
N346   H585    1.046   .     S
C347   H551    1.112   .     S
C347   H552    1.112   .     S
C347   H553    1.111   .     S
C348   H554    1.110   .     S
C348   H555    1.112   .     S
C348   H556    1.112   .     S
O349   C353    1.254   .     A
O349   In467   2.029   .     S
O350   C353    1.258   .     A
O350   In467   2.036   .     S
O351   C374    1.255   .     A
O351   In466   2.036   .     S
O352   C374    1.257   .     A
O352   In466   2.039   .     S
C353   C354    1.514   .     S
C354   C355    1.409   .     A
C354   C362    1.405   1_545 A
C355   H356    1.082   .     S
C355   C357    1.416   1_545 S
C357   H358    1.080   .     S
C357   C359    1.417   .     A
C357   C355    1.416   1_565 S
C359   C360    1.418   .     A
C359   C364    1.537   .     S
C360   H361    1.078   .     S
C360   C362    1.413   .     A
C362   H363    1.081   .     S
C362   C354    1.405   1_565 A
C364   C365    1.414   .     A
C364   C372    1.418   .     A
C365   H366    1.077   .     S
C365   C367    1.413   .     A
C367   H368    1.083   .     S
C367   C369    1.408   .     A
C369   C370    1.409   .     A
C369   C374    1.515   .     S
C370   H371    1.082   .     S
C370   C372    1.417   .     A
C372   H373    1.080   .     S
O375   C379    1.257   .     A
O375   In472   2.038   .     S
O376   C379    1.255   .     A
O376   In472   2.034   .     S
O377   C400    1.258   .     A
O377   In469   2.029   .     S
O378   C400    1.256   .     A
O378   In469   2.035   .     S
C379   C380    1.515   .     S
C380   C381    1.408   .     A
C380   C388    1.407   .     A
C381   H382    1.082   .     S
C381   C383    1.417   .     A
C383   H384    1.080   .     S
C383   C385    1.420   .     A
C385   C386    1.418   .     A
C385   C390    1.541   .     S
C386   H387    1.079   .     S
C386   C388    1.413   .     A
C388   H389    1.080   .     S
C390   C391    1.420   .     A
C390   C398    1.419   .     A
C391   H392    1.080   .     S
C391   C393    1.417   .     A
C393   H394    1.082   .     S
C393   C395    1.408   .     A
C395   C396    1.403   .     A
C395   C400    1.514   .     S
C396   H397    1.079   .     S
C396   C398    1.413   .     A
C398   H399    1.079   .     S
N401   C402    1.465   .     S
N401   C403    1.463   .     S
N401   H557    1.046   .     S
N401   H592    1.045   .     S
C402   H558    1.112   .     S
C402   H559    1.110   .     S
C402   H560    1.110   .     S
C403   H561    1.111   .     S
C403   H562    1.110   .     S
C403   H563    1.113   .     S
N404   C405    1.465   .     S
N404   C406    1.465   .     S
N404   H564    1.046   .     S
N404   H586    1.047   .     S
C405   H565    1.111   .     S
C405   H566    1.111   .     S
C405   H567    1.109   .     S
C406   H568    1.111   .     S
C406   H569    1.112   .     S
C406   H570    1.110   .     S
O407   C411    1.255   .     A
O407   In468   2.030   .     S
O408   C411    1.257   .     A
O408   In468   2.037   .     S
O409   C432    1.256   .     A
O409   In465   2.038   .     S
O410   C432    1.256   .     A
O410   In465   2.039   .     S
C411   C412    1.515   .     S
C412   C413    1.410   .     A
C412   C420    1.406   1_455 A
C413   H414    1.083   .     S
C413   C415    1.416   1_455 S
C415   H416    1.080   .     S
C415   C417    1.417   .     A
C415   C413    1.416   1_655 S
C417   C418    1.418   .     A
C417   C422    1.538   .     S
C418   H419    1.078   .     S
C418   C420    1.414   .     A
C420   H421    1.081   .     S
C420   C412    1.406   1_655 A
C422   C423    1.415   .     A
C422   C430    1.417   .     A
C423   H424    1.076   .     S
C423   C425    1.414   .     A
C425   H426    1.083   .     S
C425   C427    1.409   .     A
C427   C428    1.410   .     A
C427   C432    1.517   .     S
C428   H429    1.082   .     S
C428   C430    1.417   .     A
C430   H431    1.081   .     S
O433   C437    1.257   .     A
O433   In472   2.040   .     S
O434   C437    1.255   .     A
O434   In472   2.031   .     S
O435   C458    1.258   .     A
O435   In469   2.031   1_556 A
O436   In469   2.034   .     S
O436   C458    1.256   1_554 S
C437   C438    1.515   .     S
C438   C439    1.409   .     A
C438   C446    1.408   .     A
C439   H440    1.083   .     S
C439   C441    1.417   .     A
C441   H442    1.081   .     S
C441   C443    1.419   .     A
C443   C444    1.417   .     A
C443   C448    1.537   .     S
C444   H445    1.081   .     S
C444   C446    1.413   .     A
C446   H447    1.081   .     S
C448   C449    1.418   .     A
C448   C456    1.418   .     A
C449   H450    1.081   .     S
C449   C451    1.416   .     A
C451   H452    1.082   .     S
C451   C453    1.409   .     A
C453   C454    1.405   .     A
C453   C458    1.514   .     S
C454   H455    1.080   .     S
C454   C456    1.415   .     A
C456   H457    1.080   .     S
C458   O436    1.256   1_556 S
N459   C460    1.464   .     S
N459   C461    1.465   .     S
N459   H571    1.046   .     S
N459   H587    1.046   .     S
C460   H572    1.111   .     S
C460   H573    1.112   .     S
C460   H574    1.112   .     S
C461   H575    1.111   .     S
C461   H576    1.110   .     S
C461   H577    1.111   .     S
N462   C463    1.465   .     S
N462   C464    1.464   .     S
N462   H578    1.046   .     S
N462   H591    1.046   .     S
C463   H579    1.111   .     S
C463   H580    1.111   .     S
C463   H581    1.112   .     S
C464   H582    1.112   .     S
C464   H583    1.110   .     S
C464   H584    1.112   .     S
In469  O435    2.031   1_554 A
In470  O261    2.028   1_545 A
In470  O319    2.029   1_455 S
In471  O203    2.029   1_556 A
In472  O29     2.028   1_565 A
In472  O87     2.031   1_655 S
