data_image0
_cell_length_a       34.6066
_cell_length_b       34.6066
_cell_length_c       34.6066
_cell_angle_alpha    60
_cell_angle_beta     60
_cell_angle_gamma    60

_symmetry_space_group_name_H-M    P 1
_symmetry_int_tables_number       1

loop_
  _symmetry_equiv_pos_as_xyz
  'x, y, z'

loop_
  _atom_site_label
  _atom_site_occupancy
  _atom_site_fract_x
  _atom_site_fract_y
  _atom_site_fract_z
  _atom_site_thermal_displace_type
  _atom_site_B_iso_or_equiv
  _atom_site_type_symbol
  Cd1      1.0000 0.20560  0.70560  0.19663  Biso   1.000  Cd
  Cd2      1.0000 0.20560  0.70560  0.89217  Biso   1.000  Cd
  Cd3      1.0000 0.69663  0.89217  0.70560  Biso   1.000  Cd
  Cd4      1.0000 0.39217  0.19663  0.70560  Biso   1.000  Cd
  Cd5      1.0000 0.20560  0.19663  0.89217  Biso   1.000  Cd
  Cd6      1.0000 0.20560  0.89217  0.19663  Biso   1.000  Cd
  Cd7      1.0000 0.69663  0.70560  0.70560  Biso   1.000  Cd
  Cd8      1.0000 0.39217  0.70560  0.70560  Biso   1.000  Cd
  Cd9      1.0000 0.20560  0.89217  0.70560  Biso   1.000  Cd
  Cd10     1.0000 0.20560  0.19663  0.70560  Biso   1.000  Cd
  Cd11     1.0000 0.69663  0.70560  0.89217  Biso   1.000  Cd
  Cd12     1.0000 0.39217  0.70560  0.19663  Biso   1.000  Cd
  Cd13     1.0000 0.79440  0.29440  0.80337  Biso   1.000  Cd
  Cd14     1.0000 0.79440  0.29440  0.10783  Biso   1.000  Cd
  Cd15     1.0000 0.60783  0.80337  0.29440  Biso   1.000  Cd
  Cd16     1.0000 0.30337  0.10783  0.29440  Biso   1.000  Cd
  Cd17     1.0000 0.30337  0.29440  0.10783  Biso   1.000  Cd
  Cd18     1.0000 0.60783  0.29440  0.80337  Biso   1.000  Cd
  Cd19     1.0000 0.79440  0.80337  0.29440  Biso   1.000  Cd
  Cd20     1.0000 0.79440  0.10783  0.29440  Biso   1.000  Cd
  Cd21     1.0000 0.60783  0.29440  0.29440  Biso   1.000  Cd
  Cd22     1.0000 0.30337  0.29440  0.29440  Biso   1.000  Cd
  Cd23     1.0000 0.79440  0.80337  0.10783  Biso   1.000  Cd
  Cd24     1.0000 0.79440  0.10783  0.80337  Biso   1.000  Cd
  Cd25     1.0000 0.00000  0.68964  0.31036  Biso   1.000  Cd
  Cd26     1.0000 0.18964  0.50000  0.00000  Biso   1.000  Cd
  Cd27     1.0000 0.81036  0.00000  0.50000  Biso   1.000  Cd
  Cd28     1.0000 0.50000  0.31036  0.68964  Biso   1.000  Cd
  Cd29     1.0000 0.00000  0.31036  0.00000  Biso   1.000  Cd
  Cd30     1.0000 0.18964  0.00000  0.31036  Biso   1.000  Cd
  Cd31     1.0000 0.81036  0.50000  0.68964  Biso   1.000  Cd
  Cd32     1.0000 0.50000  0.68964  0.50000  Biso   1.000  Cd
  Cd33     1.0000 0.00000  1.00000  0.68964  Biso   1.000  Cd
  Cd34     1.0000 0.18964  0.31036  0.50000  Biso   1.000  Cd
  Cd35     1.0000 0.81036  0.68964  0.00000  Biso   1.000  Cd
  Cd36     1.0000 0.50000  0.50000  0.31036  Biso   1.000  Cd
  Cd37     1.0000 0.00000  0.31036  0.68964  Biso   1.000  Cd
  Cd38     1.0000 0.81036  0.50000  0.00000  Biso   1.000  Cd
  Cd39     1.0000 0.18964  0.00000  0.50000  Biso   1.000  Cd
  Cd40     1.0000 0.50000  0.68964  0.31036  Biso   1.000  Cd
  Cd41     1.0000 0.00000  0.68964  0.00000  Biso   1.000  Cd
  Cd42     1.0000 0.81036  0.00000  0.68964  Biso   1.000  Cd
  Cd43     1.0000 0.18964  0.50000  0.31036  Biso   1.000  Cd
  Cd44     1.0000 0.50000  0.31036  0.50000  Biso   1.000  Cd
  Cd45     1.0000 0.00000  0.00000  0.31036  Biso   1.000  Cd
  Cd46     1.0000 0.81036  0.68964  0.50000  Biso   1.000  Cd
  Cd47     1.0000 0.18964  0.31036  0.00000  Biso   1.000  Cd
  Cd48     1.0000 0.50000  0.50000  0.68964  Biso   1.000  Cd
  H1       1.0000 0.29130  0.74570  0.10390  Biso   1.000  H
  H2       1.0000 0.14490  0.69050  0.15470  Biso   1.000  H
  H3       1.0000 0.09530  0.71150  0.22990  Biso   1.000  H
  H4       1.0000 0.10900  0.68120  0.27600  Biso   1.000  H
  H5       1.0000 0.06190  0.63370  0.22750  Biso   1.000  H
  H6       1.0000 0.07020  0.68260  0.20020  Biso   1.000  H
  H7       1.0000 0.24570  0.79130  0.85910  Biso   1.000  H
  H8       1.0000 0.19050  0.64490  0.00990  Biso   1.000  H
  H9       1.0000 0.21150  0.59530  0.96330  Biso   1.000  H
  H10      1.0000 0.18120  0.60900  0.93380  Biso   1.000  H
  H11      1.0000 0.13370  0.56190  0.07690  Biso   1.000  H
  H12      1.0000 0.18260  0.57020  0.04700  Biso   1.000  H
  H13      1.0000 0.60390  0.85910  0.79130  Biso   1.000  H
  H14      1.0000 0.65470  0.00990  0.64490  Biso   1.000  H
  H15      1.0000 0.72990  0.96330  0.59530  Biso   1.000  H
  H16      1.0000 0.77600  0.93380  0.60900  Biso   1.000  H
  H17      1.0000 0.72750  0.07690  0.56190  Biso   1.000  H
  H18      1.0000 0.70020  0.04700  0.57020  Biso   1.000  H
  H19      1.0000 0.35910  0.10390  0.74570  Biso   1.000  H
  H20      1.0000 0.50990  0.15470  0.69050  Biso   1.000  H
  H21      1.0000 0.46330  0.22990  0.71150  Biso   1.000  H
  H22      1.0000 0.43380  0.27600  0.68120  Biso   1.000  H
  H23      1.0000 0.57690  0.22750  0.63370  Biso   1.000  H
  H24      1.0000 0.54700  0.20020  0.68260  Biso   1.000  H
  H25      1.0000 0.29130  0.10390  0.85910  Biso   1.000  H
  H26      1.0000 0.14490  0.15470  0.00990  Biso   1.000  H
  H27      1.0000 0.09530  0.22990  0.96330  Biso   1.000  H
  H28      1.0000 0.10900  0.27600  0.93380  Biso   1.000  H
  H29      1.0000 0.06190  0.22750  0.07690  Biso   1.000  H
  H30      1.0000 0.07020  0.20020  0.04700  Biso   1.000  H
  H31      1.0000 0.24570  0.85910  0.10390  Biso   1.000  H
  H32      1.0000 0.19050  0.00990  0.15470  Biso   1.000  H
  H33      1.0000 0.21150  0.96330  0.22990  Biso   1.000  H
  H34      1.0000 0.18120  0.93380  0.27600  Biso   1.000  H
  H35      1.0000 0.13370  0.07690  0.22750  Biso   1.000  H
  H36      1.0000 0.18260  0.04700  0.20020  Biso   1.000  H
  H37      1.0000 0.60390  0.79130  0.74570  Biso   1.000  H
  H38      1.0000 0.65470  0.64490  0.69050  Biso   1.000  H
  H39      1.0000 0.72990  0.59530  0.71150  Biso   1.000  H
  H40      1.0000 0.77600  0.60900  0.68120  Biso   1.000  H
  H41      1.0000 0.72750  0.56190  0.63370  Biso   1.000  H
  H42      1.0000 0.70020  0.57020  0.68260  Biso   1.000  H
  H43      1.0000 0.35910  0.74570  0.79130  Biso   1.000  H
  H44      1.0000 0.50990  0.69050  0.64490  Biso   1.000  H
  H45      1.0000 0.46330  0.71150  0.59530  Biso   1.000  H
  H46      1.0000 0.43380  0.68120  0.60900  Biso   1.000  H
  H47      1.0000 0.57690  0.63370  0.56190  Biso   1.000  H
  H48      1.0000 0.54700  0.68260  0.57020  Biso   1.000  H
  H49      1.0000 0.29130  0.85910  0.74570  Biso   1.000  H
  H50      1.0000 0.14490  0.00990  0.69050  Biso   1.000  H
  H51      1.0000 0.09530  0.96330  0.71150  Biso   1.000  H
  H52      1.0000 0.10900  0.93380  0.68120  Biso   1.000  H
  H53      1.0000 0.06190  0.07690  0.63370  Biso   1.000  H
  H54      1.0000 0.07020  0.04700  0.68260  Biso   1.000  H
  H55      1.0000 0.24570  0.10390  0.79130  Biso   1.000  H
  H56      1.0000 0.19050  0.15470  0.64490  Biso   1.000  H
  H57      1.0000 0.21150  0.22990  0.59530  Biso   1.000  H
  H58      1.0000 0.18120  0.27600  0.60900  Biso   1.000  H
  H59      1.0000 0.13370  0.22750  0.56190  Biso   1.000  H
  H60      1.0000 0.18260  0.20020  0.57020  Biso   1.000  H
  H61      1.0000 0.60390  0.74570  0.85910  Biso   1.000  H
  H62      1.0000 0.65470  0.69050  0.00990  Biso   1.000  H
  H63      1.0000 0.72990  0.71150  0.96330  Biso   1.000  H
  H64      1.0000 0.77600  0.68120  0.93380  Biso   1.000  H
  H65      1.0000 0.72750  0.63370  0.07690  Biso   1.000  H
  H66      1.0000 0.70020  0.68260  0.04700  Biso   1.000  H
  H67      1.0000 0.35910  0.79130  0.10390  Biso   1.000  H
  H68      1.0000 0.50990  0.64490  0.15470  Biso   1.000  H
  H69      1.0000 0.46330  0.59530  0.22990  Biso   1.000  H
  H70      1.0000 0.43380  0.60900  0.27600  Biso   1.000  H
  H71      1.0000 0.57690  0.56190  0.22750  Biso   1.000  H
  H72      1.0000 0.54700  0.57020  0.20020  Biso   1.000  H
  H73      1.0000 0.75430  0.20870  0.89610  Biso   1.000  H
  H74      1.0000 0.80950  0.35510  0.84530  Biso   1.000  H
  H75      1.0000 0.78850  0.40470  0.77010  Biso   1.000  H
  H76      1.0000 0.81880  0.39100  0.72400  Biso   1.000  H
  H77      1.0000 0.86630  0.43810  0.77250  Biso   1.000  H
  H78      1.0000 0.81740  0.42980  0.79980  Biso   1.000  H
  H79      1.0000 0.70870  0.25430  0.14090  Biso   1.000  H
  H80      1.0000 0.85510  0.30950  0.99010  Biso   1.000  H
  H81      1.0000 0.90470  0.28850  0.03670  Biso   1.000  H
  H82      1.0000 0.89100  0.31880  0.06620  Biso   1.000  H
  H83      1.0000 0.93810  0.36630  0.92310  Biso   1.000  H
  H84      1.0000 0.92980  0.31740  0.95300  Biso   1.000  H
  H85      1.0000 0.64090  0.89610  0.20870  Biso   1.000  H
  H86      1.0000 0.49010  0.84530  0.35510  Biso   1.000  H
  H87      1.0000 0.53670  0.77010  0.40470  Biso   1.000  H
  H88      1.0000 0.56620  0.72400  0.39100  Biso   1.000  H
  H89      1.0000 0.42310  0.77250  0.43810  Biso   1.000  H
  H90      1.0000 0.45300  0.79980  0.42980  Biso   1.000  H
  H91      1.0000 0.39610  0.14090  0.25430  Biso   1.000  H
  H92      1.0000 0.34530  0.99010  0.30950  Biso   1.000  H
  H93      1.0000 0.27010  0.03670  0.28850  Biso   1.000  H
  H94      1.0000 0.22400  0.06620  0.31880  Biso   1.000  H
  H95      1.0000 0.27250  0.92310  0.36630  Biso   1.000  H
  H96      1.0000 0.29980  0.95300  0.31740  Biso   1.000  H
  H97      1.0000 0.39610  0.20870  0.14090  Biso   1.000  H
  H98      1.0000 0.34530  0.35510  0.99010  Biso   1.000  H
  H99      1.0000 0.27010  0.40470  0.03670  Biso   1.000  H
  H100     1.0000 0.22400  0.39100  0.06620  Biso   1.000  H
  H101     1.0000 0.27250  0.43810  0.92310  Biso   1.000  H
  H102     1.0000 0.29980  0.42980  0.95300  Biso   1.000  H
  H103     1.0000 0.64090  0.25430  0.89610  Biso   1.000  H
  H104     1.0000 0.49010  0.30950  0.84530  Biso   1.000  H
  H105     1.0000 0.53670  0.28850  0.77010  Biso   1.000  H
  H106     1.0000 0.56620  0.31880  0.72400  Biso   1.000  H
  H107     1.0000 0.42310  0.36630  0.77250  Biso   1.000  H
  H108     1.0000 0.45300  0.31740  0.79980  Biso   1.000  H
  H109     1.0000 0.70870  0.89610  0.25430  Biso   1.000  H
  H110     1.0000 0.85510  0.84530  0.30950  Biso   1.000  H
  H111     1.0000 0.90470  0.77010  0.28850  Biso   1.000  H
  H112     1.0000 0.89100  0.72400  0.31880  Biso   1.000  H
  H113     1.0000 0.93810  0.77250  0.36630  Biso   1.000  H
  H114     1.0000 0.92980  0.79980  0.31740  Biso   1.000  H
  H115     1.0000 0.75430  0.14090  0.20870  Biso   1.000  H
  H116     1.0000 0.80950  0.99010  0.35510  Biso   1.000  H
  H117     1.0000 0.78850  0.03670  0.40470  Biso   1.000  H
  H118     1.0000 0.81880  0.06620  0.39100  Biso   1.000  H
  H119     1.0000 0.86630  0.92310  0.43810  Biso   1.000  H
  H120     1.0000 0.81740  0.95300  0.42980  Biso   1.000  H
  H121     1.0000 0.64090  0.20870  0.25430  Biso   1.000  H
  H122     1.0000 0.49010  0.35510  0.30950  Biso   1.000  H
  H123     1.0000 0.53670  0.40470  0.28850  Biso   1.000  H
  H124     1.0000 0.56620  0.39100  0.31880  Biso   1.000  H
  H125     1.0000 0.42310  0.43810  0.36630  Biso   1.000  H
  H126     1.0000 0.45300  0.42980  0.31740  Biso   1.000  H
  H127     1.0000 0.39610  0.25430  0.20870  Biso   1.000  H
  H128     1.0000 0.34530  0.30950  0.35510  Biso   1.000  H
  H129     1.0000 0.27010  0.28850  0.40470  Biso   1.000  H
  H130     1.0000 0.22400  0.31880  0.39100  Biso   1.000  H
  H131     1.0000 0.27250  0.36630  0.43810  Biso   1.000  H
  H132     1.0000 0.29980  0.31740  0.42980  Biso   1.000  H
  H133     1.0000 0.75430  0.89610  0.14090  Biso   1.000  H
  H134     1.0000 0.80950  0.84530  0.99010  Biso   1.000  H
  H135     1.0000 0.78850  0.77010  0.03670  Biso   1.000  H
  H136     1.0000 0.81880  0.72400  0.06620  Biso   1.000  H
  H137     1.0000 0.86630  0.77250  0.92310  Biso   1.000  H
  H138     1.0000 0.81740  0.79980  0.95300  Biso   1.000  H
  H139     1.0000 0.70870  0.14090  0.89610  Biso   1.000  H
  H140     1.0000 0.85510  0.99010  0.84530  Biso   1.000  H
  H141     1.0000 0.90470  0.03670  0.77010  Biso   1.000  H
  H142     1.0000 0.89100  0.06620  0.72400  Biso   1.000  H
  H143     1.0000 0.93810  0.92310  0.77250  Biso   1.000  H
  H144     1.0000 0.92980  0.95300  0.79980  Biso   1.000  H
  H145     1.0000 0.70870  0.25430  0.89610  Biso   1.000  H
  H146     1.0000 0.85510  0.30950  0.84530  Biso   1.000  H
  H147     1.0000 0.90470  0.28850  0.77010  Biso   1.000  H
  H148     1.0000 0.89100  0.31880  0.72400  Biso   1.000  H
  H149     1.0000 0.93810  0.36630  0.77250  Biso   1.000  H
  H150     1.0000 0.92980  0.31740  0.79980  Biso   1.000  H
  H151     1.0000 0.75430  0.20870  0.14090  Biso   1.000  H
  H152     1.0000 0.80950  0.35510  0.99010  Biso   1.000  H
  H153     1.0000 0.78850  0.40470  0.03670  Biso   1.000  H
  H154     1.0000 0.81880  0.39100  0.06620  Biso   1.000  H
  H155     1.0000 0.86630  0.43810  0.92310  Biso   1.000  H
  H156     1.0000 0.81740  0.42980  0.95300  Biso   1.000  H
  H157     1.0000 0.39610  0.14090  0.20870  Biso   1.000  H
  H158     1.0000 0.34530  0.99010  0.35510  Biso   1.000  H
  H159     1.0000 0.27010  0.03670  0.40470  Biso   1.000  H
  H160     1.0000 0.22400  0.06620  0.39100  Biso   1.000  H
  H161     1.0000 0.27250  0.92310  0.43810  Biso   1.000  H
  H162     1.0000 0.29980  0.95300  0.42980  Biso   1.000  H
  H163     1.0000 0.64090  0.89610  0.25430  Biso   1.000  H
  H164     1.0000 0.49010  0.84530  0.30950  Biso   1.000  H
  H165     1.0000 0.53670  0.77010  0.28850  Biso   1.000  H
  H166     1.0000 0.56620  0.72400  0.31880  Biso   1.000  H
  H167     1.0000 0.42310  0.77250  0.36630  Biso   1.000  H
  H168     1.0000 0.45300  0.79980  0.31740  Biso   1.000  H
  H169     1.0000 0.70870  0.89610  0.14090  Biso   1.000  H
  H170     1.0000 0.85510  0.84530  0.99010  Biso   1.000  H
  H171     1.0000 0.90470  0.77010  0.03670  Biso   1.000  H
  H172     1.0000 0.89100  0.72400  0.06620  Biso   1.000  H
  H173     1.0000 0.93810  0.77250  0.92310  Biso   1.000  H
  H174     1.0000 0.92980  0.79980  0.95300  Biso   1.000  H
  H175     1.0000 0.75430  0.14090  0.89610  Biso   1.000  H
  H176     1.0000 0.80950  0.99010  0.84530  Biso   1.000  H
  H177     1.0000 0.78850  0.03670  0.77010  Biso   1.000  H
  H178     1.0000 0.81880  0.06620  0.72400  Biso   1.000  H
  H179     1.0000 0.86630  0.92310  0.77250  Biso   1.000  H
  H180     1.0000 0.81740  0.95300  0.79980  Biso   1.000  H
  H181     1.0000 0.39610  0.20870  0.25430  Biso   1.000  H
  H182     1.0000 0.34530  0.35510  0.30950  Biso   1.000  H
  H183     1.0000 0.27010  0.40470  0.28850  Biso   1.000  H
  H184     1.0000 0.22400  0.39100  0.31880  Biso   1.000  H
  H185     1.0000 0.27250  0.43810  0.36630  Biso   1.000  H
  H186     1.0000 0.29980  0.42980  0.31740  Biso   1.000  H
  H187     1.0000 0.64090  0.25430  0.20870  Biso   1.000  H
  H188     1.0000 0.49010  0.30950  0.35510  Biso   1.000  H
  H189     1.0000 0.53670  0.28850  0.40470  Biso   1.000  H
  H190     1.0000 0.56620  0.31880  0.39100  Biso   1.000  H
  H191     1.0000 0.42310  0.36630  0.43810  Biso   1.000  H
  H192     1.0000 0.45300  0.31740  0.42980  Biso   1.000  H
  H193     1.0000 0.70870  0.14090  0.25430  Biso   1.000  H
  H194     1.0000 0.85510  0.99010  0.30950  Biso   1.000  H
  H195     1.0000 0.90470  0.03670  0.28850  Biso   1.000  H
  H196     1.0000 0.89100  0.06620  0.31880  Biso   1.000  H
  H197     1.0000 0.93810  0.92310  0.36630  Biso   1.000  H
  H198     1.0000 0.92980  0.95300  0.31740  Biso   1.000  H
  H199     1.0000 0.75430  0.89610  0.20870  Biso   1.000  H
  H200     1.0000 0.80950  0.84530  0.35510  Biso   1.000  H
  H201     1.0000 0.78850  0.77010  0.40470  Biso   1.000  H
  H202     1.0000 0.81880  0.72400  0.39100  Biso   1.000  H
  H203     1.0000 0.86630  0.77250  0.43810  Biso   1.000  H
  H204     1.0000 0.81740  0.79980  0.42980  Biso   1.000  H
  H205     1.0000 0.39610  0.25430  0.14090  Biso   1.000  H
  H206     1.0000 0.34530  0.30950  0.99010  Biso   1.000  H
  H207     1.0000 0.27010  0.28850  0.03670  Biso   1.000  H
  H208     1.0000 0.22400  0.31880  0.06620  Biso   1.000  H
  H209     1.0000 0.27250  0.36630  0.92310  Biso   1.000  H
  H210     1.0000 0.29980  0.31740  0.95300  Biso   1.000  H
  H211     1.0000 0.64090  0.20870  0.89610  Biso   1.000  H
  H212     1.0000 0.49010  0.35510  0.84530  Biso   1.000  H
  H213     1.0000 0.53670  0.40470  0.77010  Biso   1.000  H
  H214     1.0000 0.56620  0.39100  0.72400  Biso   1.000  H
  H215     1.0000 0.42310  0.43810  0.77250  Biso   1.000  H
  H216     1.0000 0.45300  0.42980  0.79980  Biso   1.000  H
  H217     1.0000 0.24570  0.79130  0.10390  Biso   1.000  H
  H218     1.0000 0.19050  0.64490  0.15470  Biso   1.000  H
  H219     1.0000 0.21150  0.59530  0.22990  Biso   1.000  H
  H220     1.0000 0.18120  0.60900  0.27600  Biso   1.000  H
  H221     1.0000 0.13370  0.56190  0.22750  Biso   1.000  H
  H222     1.0000 0.18260  0.57020  0.20020  Biso   1.000  H
  H223     1.0000 0.29130  0.74570  0.85910  Biso   1.000  H
  H224     1.0000 0.14490  0.69050  0.00990  Biso   1.000  H
  H225     1.0000 0.09530  0.71150  0.96330  Biso   1.000  H
  H226     1.0000 0.10900  0.68120  0.93380  Biso   1.000  H
  H227     1.0000 0.06190  0.63370  0.07690  Biso   1.000  H
  H228     1.0000 0.07020  0.68260  0.04700  Biso   1.000  H
  H229     1.0000 0.35910  0.10390  0.79130  Biso   1.000  H
  H230     1.0000 0.50990  0.15470  0.64490  Biso   1.000  H
  H231     1.0000 0.46330  0.22990  0.59530  Biso   1.000  H
  H232     1.0000 0.43380  0.27600  0.60900  Biso   1.000  H
  H233     1.0000 0.57690  0.22750  0.56190  Biso   1.000  H
  H234     1.0000 0.54700  0.20020  0.57020  Biso   1.000  H
  H235     1.0000 0.60390  0.85910  0.74570  Biso   1.000  H
  H236     1.0000 0.65470  0.00990  0.69050  Biso   1.000  H
  H237     1.0000 0.72990  0.96330  0.71150  Biso   1.000  H
  H238     1.0000 0.77600  0.93380  0.68120  Biso   1.000  H
  H239     1.0000 0.72750  0.07690  0.63370  Biso   1.000  H
  H240     1.0000 0.70020  0.04700  0.68260  Biso   1.000  H
  H241     1.0000 0.60390  0.79130  0.85910  Biso   1.000  H
  H242     1.0000 0.65470  0.64490  0.00990  Biso   1.000  H
  H243     1.0000 0.72990  0.59530  0.96330  Biso   1.000  H
  H244     1.0000 0.77600  0.60900  0.93380  Biso   1.000  H
  H245     1.0000 0.72750  0.56190  0.07690  Biso   1.000  H
  H246     1.0000 0.70020  0.57020  0.04700  Biso   1.000  H
  H247     1.0000 0.35910  0.74570  0.10390  Biso   1.000  H
  H248     1.0000 0.50990  0.69050  0.15470  Biso   1.000  H
  H249     1.0000 0.46330  0.71150  0.22990  Biso   1.000  H
  H250     1.0000 0.43380  0.68120  0.27600  Biso   1.000  H
  H251     1.0000 0.57690  0.63370  0.22750  Biso   1.000  H
  H252     1.0000 0.54700  0.68260  0.20020  Biso   1.000  H
  H253     1.0000 0.29130  0.10390  0.74570  Biso   1.000  H
  H254     1.0000 0.14490  0.15470  0.69050  Biso   1.000  H
  H255     1.0000 0.09530  0.22990  0.71150  Biso   1.000  H
  H256     1.0000 0.10900  0.27600  0.68120  Biso   1.000  H
  H257     1.0000 0.06190  0.22750  0.63370  Biso   1.000  H
  H258     1.0000 0.07020  0.20020  0.68260  Biso   1.000  H
  H259     1.0000 0.24570  0.85910  0.79130  Biso   1.000  H
  H260     1.0000 0.19050  0.00990  0.64490  Biso   1.000  H
  H261     1.0000 0.21150  0.96330  0.59530  Biso   1.000  H
  H262     1.0000 0.18120  0.93380  0.60900  Biso   1.000  H
  H263     1.0000 0.13370  0.07690  0.56190  Biso   1.000  H
  H264     1.0000 0.18260  0.04700  0.57020  Biso   1.000  H
  H265     1.0000 0.35910  0.79130  0.74570  Biso   1.000  H
  H266     1.0000 0.50990  0.64490  0.69050  Biso   1.000  H
  H267     1.0000 0.46330  0.59530  0.71150  Biso   1.000  H
  H268     1.0000 0.43380  0.60900  0.68120  Biso   1.000  H
  H269     1.0000 0.57690  0.56190  0.63370  Biso   1.000  H
  H270     1.0000 0.54700  0.57020  0.68260  Biso   1.000  H
  H271     1.0000 0.60390  0.74570  0.79130  Biso   1.000  H
  H272     1.0000 0.65470  0.69050  0.64490  Biso   1.000  H
  H273     1.0000 0.72990  0.71150  0.59530  Biso   1.000  H
  H274     1.0000 0.77600  0.68120  0.60900  Biso   1.000  H
  H275     1.0000 0.72750  0.63370  0.56190  Biso   1.000  H
  H276     1.0000 0.70020  0.68260  0.57020  Biso   1.000  H
  H277     1.0000 0.24570  0.10390  0.85910  Biso   1.000  H
  H278     1.0000 0.19050  0.15470  0.00990  Biso   1.000  H
  H279     1.0000 0.21150  0.22990  0.96330  Biso   1.000  H
  H280     1.0000 0.18120  0.27600  0.93380  Biso   1.000  H
  H281     1.0000 0.13370  0.22750  0.07690  Biso   1.000  H
  H282     1.0000 0.18260  0.20020  0.04700  Biso   1.000  H
  H283     1.0000 0.29130  0.85910  0.10390  Biso   1.000  H
  H284     1.0000 0.14490  0.00990  0.15470  Biso   1.000  H
  H285     1.0000 0.09530  0.96330  0.22990  Biso   1.000  H
  H286     1.0000 0.10900  0.93380  0.27600  Biso   1.000  H
  H287     1.0000 0.06190  0.07690  0.22750  Biso   1.000  H
  H288     1.0000 0.07020  0.04700  0.20020  Biso   1.000  H
  H289     1.0000 0.08230  0.58230  0.30610  Biso   1.000  H
  H290     1.0000 0.10260  0.60260  0.32080  Biso   1.000  H
  H291     1.0000 0.08230  0.58230  0.02930  Biso   1.000  H
  H292     1.0000 0.10260  0.60260  0.97400  Biso   1.000  H
  H293     1.0000 0.80610  0.02930  0.58230  Biso   1.000  H
  H294     1.0000 0.82080  0.97400  0.60260  Biso   1.000  H
  H295     1.0000 0.52930  0.30610  0.58230  Biso   1.000  H
  H296     1.0000 0.47400  0.32080  0.60260  Biso   1.000  H
  H297     1.0000 0.08230  0.30610  0.02930  Biso   1.000  H
  H298     1.0000 0.10260  0.32080  0.97400  Biso   1.000  H
  H299     1.0000 0.08230  0.02930  0.30610  Biso   1.000  H
  H300     1.0000 0.10260  0.97400  0.32080  Biso   1.000  H
  H301     1.0000 0.80610  0.58230  0.58230  Biso   1.000  H
  H302     1.0000 0.82080  0.60260  0.60260  Biso   1.000  H
  H303     1.0000 0.52930  0.58230  0.58230  Biso   1.000  H
  H304     1.0000 0.47400  0.60260  0.60260  Biso   1.000  H
  H305     1.0000 0.08230  0.02930  0.58230  Biso   1.000  H
  H306     1.0000 0.10260  0.97400  0.60260  Biso   1.000  H
  H307     1.0000 0.08230  0.30610  0.58230  Biso   1.000  H
  H308     1.0000 0.10260  0.32080  0.60260  Biso   1.000  H
  H309     1.0000 0.80610  0.58230  0.02930  Biso   1.000  H
  H310     1.0000 0.82080  0.60260  0.97400  Biso   1.000  H
  H311     1.0000 0.52930  0.58230  0.30610  Biso   1.000  H
  H312     1.0000 0.47400  0.60260  0.32080  Biso   1.000  H
  H313     1.0000 0.91770  0.41770  0.69390  Biso   1.000  H
  H314     1.0000 0.89740  0.39740  0.67920  Biso   1.000  H
  H315     1.0000 0.91770  0.41770  0.97070  Biso   1.000  H
  H316     1.0000 0.89740  0.39740  0.02600  Biso   1.000  H
  H317     1.0000 0.47070  0.69390  0.41770  Biso   1.000  H
  H318     1.0000 0.52600  0.67920  0.39740  Biso   1.000  H
  H319     1.0000 0.19390  0.97070  0.41770  Biso   1.000  H
  H320     1.0000 0.17920  0.02600  0.39740  Biso   1.000  H
  H321     1.0000 0.19390  0.41770  0.97070  Biso   1.000  H
  H322     1.0000 0.17920  0.39740  0.02600  Biso   1.000  H
  H323     1.0000 0.47070  0.41770  0.69390  Biso   1.000  H
  H324     1.0000 0.52600  0.39740  0.67920  Biso   1.000  H
  H325     1.0000 0.91770  0.69390  0.41770  Biso   1.000  H
  H326     1.0000 0.89740  0.67920  0.39740  Biso   1.000  H
  H327     1.0000 0.91770  0.97070  0.41770  Biso   1.000  H
  H328     1.0000 0.89740  0.02600  0.39740  Biso   1.000  H
  H329     1.0000 0.47070  0.41770  0.41770  Biso   1.000  H
  H330     1.0000 0.52600  0.39740  0.39740  Biso   1.000  H
  H331     1.0000 0.19390  0.41770  0.41770  Biso   1.000  H
  H332     1.0000 0.17920  0.39740  0.39740  Biso   1.000  H
  H333     1.0000 0.91770  0.69390  0.97070  Biso   1.000  H
  H334     1.0000 0.89740  0.67920  0.02600  Biso   1.000  H
  H335     1.0000 0.91770  0.97070  0.69390  Biso   1.000  H
  H336     1.0000 0.89740  0.02600  0.67920  Biso   1.000  H
  H337     1.0000 0.31410  0.69470  0.17710  Biso   1.000  H
  H338     1.0000 0.28350  0.71070  0.22230  Biso   1.000  H
  H339     1.0000 0.19470  0.81410  0.81410  Biso   1.000  H
  H340     1.0000 0.21070  0.78350  0.78350  Biso   1.000  H
  H341     1.0000 0.67710  0.81410  0.81410  Biso   1.000  H
  H342     1.0000 0.72230  0.78350  0.78350  Biso   1.000  H
  H343     1.0000 0.31410  0.17710  0.69470  Biso   1.000  H
  H344     1.0000 0.28350  0.22230  0.71070  Biso   1.000  H
  H345     1.0000 0.31410  0.17710  0.81410  Biso   1.000  H
  H346     1.0000 0.28350  0.22230  0.78350  Biso   1.000  H
  H347     1.0000 0.19470  0.81410  0.17710  Biso   1.000  H
  H348     1.0000 0.21070  0.78350  0.22230  Biso   1.000  H
  H349     1.0000 0.67710  0.81410  0.69470  Biso   1.000  H
  H350     1.0000 0.72230  0.78350  0.71070  Biso   1.000  H
  H351     1.0000 0.31410  0.69470  0.81410  Biso   1.000  H
  H352     1.0000 0.28350  0.71070  0.78350  Biso   1.000  H
  H353     1.0000 0.31410  0.81410  0.69470  Biso   1.000  H
  H354     1.0000 0.28350  0.78350  0.71070  Biso   1.000  H
  H355     1.0000 0.19470  0.17710  0.81410  Biso   1.000  H
  H356     1.0000 0.21070  0.22230  0.78350  Biso   1.000  H
  H357     1.0000 0.67710  0.69470  0.81410  Biso   1.000  H
  H358     1.0000 0.72230  0.71070  0.78350  Biso   1.000  H
  H359     1.0000 0.31410  0.81410  0.17710  Biso   1.000  H
  H360     1.0000 0.28350  0.78350  0.22230  Biso   1.000  H
  H361     1.0000 0.80530  0.18590  0.82290  Biso   1.000  H
  H362     1.0000 0.78930  0.21650  0.77770  Biso   1.000  H
  H363     1.0000 0.68590  0.30530  0.18590  Biso   1.000  H
  H364     1.0000 0.71650  0.28930  0.21650  Biso   1.000  H
  H365     1.0000 0.68590  0.82290  0.18590  Biso   1.000  H
  H366     1.0000 0.71650  0.77770  0.21650  Biso   1.000  H
  H367     1.0000 0.32290  0.18590  0.30530  Biso   1.000  H
  H368     1.0000 0.27770  0.21650  0.28930  Biso   1.000  H
  H369     1.0000 0.32290  0.18590  0.18590  Biso   1.000  H
  H370     1.0000 0.27770  0.21650  0.21650  Biso   1.000  H
  H371     1.0000 0.68590  0.30530  0.82290  Biso   1.000  H
  H372     1.0000 0.71650  0.28930  0.77770  Biso   1.000  H
  H373     1.0000 0.68590  0.82290  0.30530  Biso   1.000  H
  H374     1.0000 0.71650  0.77770  0.28930  Biso   1.000  H
  H375     1.0000 0.80530  0.18590  0.18590  Biso   1.000  H
  H376     1.0000 0.78930  0.21650  0.21650  Biso   1.000  H
  H377     1.0000 0.68590  0.18590  0.30530  Biso   1.000  H
  H378     1.0000 0.71650  0.21650  0.28930  Biso   1.000  H
  H379     1.0000 0.32290  0.30530  0.18590  Biso   1.000  H
  H380     1.0000 0.27770  0.28930  0.21650  Biso   1.000  H
  H381     1.0000 0.80530  0.82290  0.18590  Biso   1.000  H
  H382     1.0000 0.78930  0.77770  0.21650  Biso   1.000  H
  H383     1.0000 0.68590  0.18590  0.82290  Biso   1.000  H
  H384     1.0000 0.71650  0.21650  0.77770  Biso   1.000  H
  C1       1.0000 0.10928  0.67960  0.24872  Biso   1.000  C
  C2       1.0000 0.08192  0.65028  0.21972  Biso   1.000  C
  C3       1.0000 0.17960  0.60928  0.96240  Biso   1.000  C
  C4       1.0000 0.15028  0.58192  0.04808  Biso   1.000  C
  C5       1.0000 0.74872  0.96240  0.60928  Biso   1.000  C
  C6       1.0000 0.71972  0.04808  0.58192  Biso   1.000  C
  C7       1.0000 0.46240  0.24872  0.67960  Biso   1.000  C
  C8       1.0000 0.54808  0.21972  0.65028  Biso   1.000  C
  C9       1.0000 0.10928  0.24872  0.96240  Biso   1.000  C
  C10      1.0000 0.08192  0.21972  0.04808  Biso   1.000  C
  C11      1.0000 0.17960  0.96240  0.24872  Biso   1.000  C
  C12      1.0000 0.15028  0.04808  0.21972  Biso   1.000  C
  C13      1.0000 0.74872  0.60928  0.67960  Biso   1.000  C
  C14      1.0000 0.71972  0.58192  0.65028  Biso   1.000  C
  C15      1.0000 0.46240  0.67960  0.60928  Biso   1.000  C
  C16      1.0000 0.54808  0.65028  0.58192  Biso   1.000  C
  C17      1.0000 0.10928  0.96240  0.67960  Biso   1.000  C
  C18      1.0000 0.08192  0.04808  0.65028  Biso   1.000  C
  C19      1.0000 0.17960  0.24872  0.60928  Biso   1.000  C
  C20      1.0000 0.15028  0.21972  0.58192  Biso   1.000  C
  C21      1.0000 0.74872  0.67960  0.96240  Biso   1.000  C
  C22      1.0000 0.71972  0.65028  0.04808  Biso   1.000  C
  C23      1.0000 0.46240  0.60928  0.24872  Biso   1.000  C
  C24      1.0000 0.54808  0.58192  0.21972  Biso   1.000  C
  C25      1.0000 0.82040  0.39072  0.75128  Biso   1.000  C
  C26      1.0000 0.84972  0.41808  0.78028  Biso   1.000  C
  C27      1.0000 0.89072  0.32040  0.03760  Biso   1.000  C
  C28      1.0000 0.91808  0.34972  0.95192  Biso   1.000  C
  C29      1.0000 0.53760  0.75128  0.39072  Biso   1.000  C
  C30      1.0000 0.45192  0.78028  0.41808  Biso   1.000  C
  C31      1.0000 0.25128  0.03760  0.32040  Biso   1.000  C
  C32      1.0000 0.28028  0.95192  0.34972  Biso   1.000  C
  C33      1.0000 0.25128  0.39072  0.03760  Biso   1.000  C
  C34      1.0000 0.28028  0.41808  0.95192  Biso   1.000  C
  C35      1.0000 0.53760  0.32040  0.75128  Biso   1.000  C
  C36      1.0000 0.45192  0.34972  0.78028  Biso   1.000  C
  C37      1.0000 0.89072  0.75128  0.32040  Biso   1.000  C
  C38      1.0000 0.91808  0.78028  0.34972  Biso   1.000  C
  C39      1.0000 0.82040  0.03760  0.39072  Biso   1.000  C
  C40      1.0000 0.84972  0.95192  0.41808  Biso   1.000  C
  C41      1.0000 0.53760  0.39072  0.32040  Biso   1.000  C
  C42      1.0000 0.45192  0.41808  0.34972  Biso   1.000  C
  C43      1.0000 0.25128  0.32040  0.39072  Biso   1.000  C
  C44      1.0000 0.28028  0.34972  0.41808  Biso   1.000  C
  C45      1.0000 0.82040  0.75128  0.03760  Biso   1.000  C
  C46      1.0000 0.84972  0.78028  0.95192  Biso   1.000  C
  C47      1.0000 0.89072  0.03760  0.75128  Biso   1.000  C
  C48      1.0000 0.91808  0.95192  0.78028  Biso   1.000  C
  C49      1.0000 0.89072  0.32040  0.75128  Biso   1.000  C
  C50      1.0000 0.91808  0.34972  0.78028  Biso   1.000  C
  C51      1.0000 0.82040  0.39072  0.03760  Biso   1.000  C
  C52      1.0000 0.84972  0.41808  0.95192  Biso   1.000  C
  C53      1.0000 0.25128  0.03760  0.39072  Biso   1.000  C
  C54      1.0000 0.28028  0.95192  0.41808  Biso   1.000  C
  C55      1.0000 0.53760  0.75128  0.32040  Biso   1.000  C
  C56      1.0000 0.45192  0.78028  0.34972  Biso   1.000  C
  C57      1.0000 0.89072  0.75128  0.03760  Biso   1.000  C
  C58      1.0000 0.91808  0.78028  0.95192  Biso   1.000  C
  C59      1.0000 0.82040  0.03760  0.75128  Biso   1.000  C
  C60      1.0000 0.84972  0.95192  0.78028  Biso   1.000  C
  C61      1.0000 0.25128  0.39072  0.32040  Biso   1.000  C
  C62      1.0000 0.28028  0.41808  0.34972  Biso   1.000  C
  C63      1.0000 0.53760  0.32040  0.39072  Biso   1.000  C
  C64      1.0000 0.45192  0.34972  0.41808  Biso   1.000  C
  C65      1.0000 0.89072  0.03760  0.32040  Biso   1.000  C
  C66      1.0000 0.91808  0.95192  0.34972  Biso   1.000  C
  C67      1.0000 0.82040  0.75128  0.39072  Biso   1.000  C
  C68      1.0000 0.84972  0.78028  0.41808  Biso   1.000  C
  C69      1.0000 0.25128  0.32040  0.03760  Biso   1.000  C
  C70      1.0000 0.28028  0.34972  0.95192  Biso   1.000  C
  C71      1.0000 0.53760  0.39072  0.75128  Biso   1.000  C
  C72      1.0000 0.45192  0.41808  0.78028  Biso   1.000  C
  C73      1.0000 0.17960  0.60928  0.24872  Biso   1.000  C
  C74      1.0000 0.15028  0.58192  0.21972  Biso   1.000  C
  C75      1.0000 0.10928  0.67960  0.96240  Biso   1.000  C
  C76      1.0000 0.08192  0.65028  0.04808  Biso   1.000  C
  C77      1.0000 0.46240  0.24872  0.60928  Biso   1.000  C
  C78      1.0000 0.54808  0.21972  0.58192  Biso   1.000  C
  C79      1.0000 0.74872  0.96240  0.67960  Biso   1.000  C
  C80      1.0000 0.71972  0.04808  0.65028  Biso   1.000  C
  C81      1.0000 0.74872  0.60928  0.96240  Biso   1.000  C
  C82      1.0000 0.71972  0.58192  0.04808  Biso   1.000  C
  C83      1.0000 0.46240  0.67960  0.24872  Biso   1.000  C
  C84      1.0000 0.54808  0.65028  0.21972  Biso   1.000  C
  C85      1.0000 0.10928  0.24872  0.67960  Biso   1.000  C
  C86      1.0000 0.08192  0.21972  0.65028  Biso   1.000  C
  C87      1.0000 0.17960  0.96240  0.60928  Biso   1.000  C
  C88      1.0000 0.15028  0.04808  0.58192  Biso   1.000  C
  C89      1.0000 0.46240  0.60928  0.67960  Biso   1.000  C
  C90      1.0000 0.54808  0.58192  0.65028  Biso   1.000  C
  C91      1.0000 0.74872  0.67960  0.60928  Biso   1.000  C
  C92      1.0000 0.71972  0.65028  0.58192  Biso   1.000  C
  C93      1.0000 0.17960  0.24872  0.96240  Biso   1.000  C
  C94      1.0000 0.15028  0.21972  0.04808  Biso   1.000  C
  C95      1.0000 0.10928  0.96240  0.24872  Biso   1.000  C
  C96      1.0000 0.08192  0.04808  0.21972  Biso   1.000  C
  C97      1.0000 0.27190  0.77190  0.11610  Biso   1.000  C
  C98      1.0000 0.15870  0.65870  0.17390  Biso   1.000  C
  C99      1.0000 0.10143  0.60143  0.29405  Biso   1.000  C
  C100     1.0000 0.27190  0.77190  0.84010  Biso   1.000  C
  C101     1.0000 0.15870  0.65870  0.00870  Biso   1.000  C
  C102     1.0000 0.10143  0.60143  0.00309  Biso   1.000  C
  C103     1.0000 0.61610  0.84010  0.77190  Biso   1.000  C
  C104     1.0000 0.67390  0.00870  0.65870  Biso   1.000  C
  C105     1.0000 0.79405  0.00309  0.60143  Biso   1.000  C
  C106     1.0000 0.34010  0.11610  0.77190  Biso   1.000  C
  C107     1.0000 0.50870  0.17390  0.65870  Biso   1.000  C
  C108     1.0000 0.50309  0.29405  0.60143  Biso   1.000  C
  C109     1.0000 0.27190  0.11610  0.84010  Biso   1.000  C
  C110     1.0000 0.15870  0.17390  0.00870  Biso   1.000  C
  C111     1.0000 0.10143  0.29405  0.00309  Biso   1.000  C
  C112     1.0000 0.27190  0.84010  0.11610  Biso   1.000  C
  C113     1.0000 0.15870  0.00870  0.17390  Biso   1.000  C
  C114     1.0000 0.10143  0.00309  0.29405  Biso   1.000  C
  C115     1.0000 0.61610  0.77190  0.77190  Biso   1.000  C
  C116     1.0000 0.67390  0.65870  0.65870  Biso   1.000  C
  C117     1.0000 0.79405  0.60143  0.60143  Biso   1.000  C
  C118     1.0000 0.34010  0.77190  0.77190  Biso   1.000  C
  C119     1.0000 0.50870  0.65870  0.65870  Biso   1.000  C
  C120     1.0000 0.50309  0.60143  0.60143  Biso   1.000  C
  C121     1.0000 0.27190  0.84010  0.77190  Biso   1.000  C
  C122     1.0000 0.15870  0.00870  0.65870  Biso   1.000  C
  C123     1.0000 0.10143  0.00309  0.60143  Biso   1.000  C
  C124     1.0000 0.27190  0.11610  0.77190  Biso   1.000  C
  C125     1.0000 0.15870  0.17390  0.65870  Biso   1.000  C
  C126     1.0000 0.10143  0.29405  0.60143  Biso   1.000  C
  C127     1.0000 0.61610  0.77190  0.84010  Biso   1.000  C
  C128     1.0000 0.67390  0.65870  0.00870  Biso   1.000  C
  C129     1.0000 0.79405  0.60143  0.00309  Biso   1.000  C
  C130     1.0000 0.34010  0.77190  0.11610  Biso   1.000  C
  C131     1.0000 0.50870  0.65870  0.17390  Biso   1.000  C
  C132     1.0000 0.50309  0.60143  0.29405  Biso   1.000  C
  C133     1.0000 0.72810  0.22810  0.88390  Biso   1.000  C
  C134     1.0000 0.84130  0.34130  0.82610  Biso   1.000  C
  C135     1.0000 0.89857  0.39857  0.70595  Biso   1.000  C
  C136     1.0000 0.72810  0.22810  0.15990  Biso   1.000  C
  C137     1.0000 0.84130  0.34130  0.99130  Biso   1.000  C
  C138     1.0000 0.89857  0.39857  0.99691  Biso   1.000  C
  C139     1.0000 0.65990  0.88390  0.22810  Biso   1.000  C
  C140     1.0000 0.49130  0.82610  0.34130  Biso   1.000  C
  C141     1.0000 0.49691  0.70595  0.39857  Biso   1.000  C
  C142     1.0000 0.38390  0.15990  0.22810  Biso   1.000  C
  C143     1.0000 0.32610  0.99130  0.34130  Biso   1.000  C
  C144     1.0000 0.20595  0.99691  0.39857  Biso   1.000  C
  C145     1.0000 0.38390  0.22810  0.15990  Biso   1.000  C
  C146     1.0000 0.32610  0.34130  0.99130  Biso   1.000  C
  C147     1.0000 0.20595  0.39857  0.99691  Biso   1.000  C
  C148     1.0000 0.65990  0.22810  0.88390  Biso   1.000  C
  C149     1.0000 0.49130  0.34130  0.82610  Biso   1.000  C
  C150     1.0000 0.49691  0.39857  0.70595  Biso   1.000  C
  C151     1.0000 0.72810  0.88390  0.22810  Biso   1.000  C
  C152     1.0000 0.84130  0.82610  0.34130  Biso   1.000  C
  C153     1.0000 0.89857  0.70595  0.39857  Biso   1.000  C
  C154     1.0000 0.72810  0.15990  0.22810  Biso   1.000  C
  C155     1.0000 0.84130  0.99130  0.34130  Biso   1.000  C
  C156     1.0000 0.89857  0.99691  0.39857  Biso   1.000  C
  C157     1.0000 0.65990  0.22810  0.22810  Biso   1.000  C
  C158     1.0000 0.49130  0.34130  0.34130  Biso   1.000  C
  C159     1.0000 0.49691  0.39857  0.39857  Biso   1.000  C
  C160     1.0000 0.38390  0.22810  0.22810  Biso   1.000  C
  C161     1.0000 0.32610  0.34130  0.34130  Biso   1.000  C
  C162     1.0000 0.20595  0.39857  0.39857  Biso   1.000  C
  C163     1.0000 0.72810  0.88390  0.15990  Biso   1.000  C
  C164     1.0000 0.84130  0.82610  0.99130  Biso   1.000  C
  C165     1.0000 0.89857  0.70595  0.99691  Biso   1.000  C
  C166     1.0000 0.72810  0.15990  0.88390  Biso   1.000  C
  C167     1.0000 0.84130  0.99130  0.82610  Biso   1.000  C
  C168     1.0000 0.89857  0.99691  0.70595  Biso   1.000  C
  C169     1.0000 0.29510  0.72188  0.18792  Biso   1.000  C
  C170     1.0000 0.22188  0.79510  0.79510  Biso   1.000  C
  C171     1.0000 0.68792  0.79510  0.79510  Biso   1.000  C
  C172     1.0000 0.29510  0.18792  0.72188  Biso   1.000  C
  C173     1.0000 0.29510  0.18792  0.79510  Biso   1.000  C
  C174     1.0000 0.22188  0.79510  0.18792  Biso   1.000  C
  C175     1.0000 0.68792  0.79510  0.72188  Biso   1.000  C
  C176     1.0000 0.29510  0.72188  0.79510  Biso   1.000  C
  C177     1.0000 0.29510  0.79510  0.72188  Biso   1.000  C
  C178     1.0000 0.22188  0.18792  0.79510  Biso   1.000  C
  C179     1.0000 0.68792  0.72188  0.79510  Biso   1.000  C
  C180     1.0000 0.29510  0.79510  0.18792  Biso   1.000  C
  C181     1.0000 0.77812  0.20490  0.81208  Biso   1.000  C
  C182     1.0000 0.70490  0.27812  0.20490  Biso   1.000  C
  C183     1.0000 0.70490  0.81208  0.20490  Biso   1.000  C
  C184     1.0000 0.31208  0.20490  0.27812  Biso   1.000  C
  C185     1.0000 0.31208  0.20490  0.20490  Biso   1.000  C
  C186     1.0000 0.70490  0.27812  0.81208  Biso   1.000  C
  C187     1.0000 0.70490  0.81208  0.27812  Biso   1.000  C
  C188     1.0000 0.77812  0.20490  0.20490  Biso   1.000  C
  C189     1.0000 0.70490  0.20490  0.27812  Biso   1.000  C
  C190     1.0000 0.31208  0.27812  0.20490  Biso   1.000  C
  C191     1.0000 0.77812  0.81208  0.20490  Biso   1.000  C
  C192     1.0000 0.70490  0.20490  0.81208  Biso   1.000  C
  N1       1.0000 0.07946  0.64990  0.26548  Biso   1.000  N
  N2       1.0000 0.14990  0.57946  0.00516  Biso   1.000  N
  N3       1.0000 0.76548  0.00516  0.57946  Biso   1.000  N
  N4       1.0000 0.50516  0.26548  0.64990  Biso   1.000  N
  N5       1.0000 0.07946  0.26548  0.00516  Biso   1.000  N
  N6       1.0000 0.14990  0.00516  0.26548  Biso   1.000  N
  N7       1.0000 0.76548  0.57946  0.64990  Biso   1.000  N
  N8       1.0000 0.50516  0.64990  0.57946  Biso   1.000  N
  N9       1.0000 0.07946  0.00516  0.64990  Biso   1.000  N
  N10      1.0000 0.14990  0.26548  0.57946  Biso   1.000  N
  N11      1.0000 0.76548  0.64990  0.00516  Biso   1.000  N
  N12      1.0000 0.50516  0.57946  0.26548  Biso   1.000  N
  N13      1.0000 0.85010  0.42054  0.73452  Biso   1.000  N
  N14      1.0000 0.92054  0.35010  0.99484  Biso   1.000  N
  N15      1.0000 0.49484  0.73452  0.42054  Biso   1.000  N
  N16      1.0000 0.23452  0.99484  0.35010  Biso   1.000  N
  N17      1.0000 0.23452  0.42054  0.99484  Biso   1.000  N
  N18      1.0000 0.49484  0.35010  0.73452  Biso   1.000  N
  N19      1.0000 0.92054  0.73452  0.35010  Biso   1.000  N
  N20      1.0000 0.85010  0.99484  0.42054  Biso   1.000  N
  N21      1.0000 0.49484  0.42054  0.35010  Biso   1.000  N
  N22      1.0000 0.23452  0.35010  0.42054  Biso   1.000  N
  N23      1.0000 0.85010  0.73452  0.99484  Biso   1.000  N
  N24      1.0000 0.92054  0.99484  0.73452  Biso   1.000  N
  N25      1.0000 0.92054  0.35010  0.73452  Biso   1.000  N
  N26      1.0000 0.85010  0.42054  0.99484  Biso   1.000  N
  N27      1.0000 0.23452  0.99484  0.42054  Biso   1.000  N
  N28      1.0000 0.49484  0.73452  0.35010  Biso   1.000  N
  N29      1.0000 0.92054  0.73452  0.99484  Biso   1.000  N
  N30      1.0000 0.85010  0.99484  0.73452  Biso   1.000  N
  N31      1.0000 0.23452  0.42054  0.35010  Biso   1.000  N
  N32      1.0000 0.49484  0.35010  0.42054  Biso   1.000  N
  N33      1.0000 0.92054  0.99484  0.35010  Biso   1.000  N
  N34      1.0000 0.85010  0.73452  0.42054  Biso   1.000  N
  N35      1.0000 0.23452  0.35010  0.99484  Biso   1.000  N
  N36      1.0000 0.49484  0.42054  0.73452  Biso   1.000  N
  N37      1.0000 0.14990  0.57946  0.26548  Biso   1.000  N
  N38      1.0000 0.07946  0.64990  0.00516  Biso   1.000  N
  N39      1.0000 0.50516  0.26548  0.57946  Biso   1.000  N
  N40      1.0000 0.76548  0.00516  0.64990  Biso   1.000  N
  N41      1.0000 0.76548  0.57946  0.00516  Biso   1.000  N
  N42      1.0000 0.50516  0.64990  0.26548  Biso   1.000  N
  N43      1.0000 0.07946  0.26548  0.64990  Biso   1.000  N
  N44      1.0000 0.14990  0.00516  0.57946  Biso   1.000  N
  N45      1.0000 0.50516  0.57946  0.64990  Biso   1.000  N
  N46      1.0000 0.76548  0.64990  0.57946  Biso   1.000  N
  N47      1.0000 0.14990  0.26548  0.00516  Biso   1.000  N
  N48      1.0000 0.07946  0.00516  0.26548  Biso   1.000  N
  N49      1.0000 0.25355  0.75355  0.16853  Biso   1.000  N
  N50      1.0000 0.15949  0.65949  0.21977  Biso   1.000  N
  N51      1.0000 0.12862  0.62862  0.19386  Biso   1.000  N
  N52      1.0000 0.25355  0.75355  0.82437  Biso   1.000  N
  N53      1.0000 0.15949  0.65949  0.96125  Biso   1.000  N
  N54      1.0000 0.12862  0.62862  0.04890  Biso   1.000  N
  N55      1.0000 0.66853  0.82437  0.75355  Biso   1.000  N
  N56      1.0000 0.71977  0.96125  0.65949  Biso   1.000  N
  N57      1.0000 0.69386  0.04890  0.62862  Biso   1.000  N
  N58      1.0000 0.32437  0.16853  0.75355  Biso   1.000  N
  N59      1.0000 0.46125  0.21977  0.65949  Biso   1.000  N
  N60      1.0000 0.54890  0.19386  0.62862  Biso   1.000  N
  N61      1.0000 0.25355  0.16853  0.82437  Biso   1.000  N
  N62      1.0000 0.15949  0.21977  0.96125  Biso   1.000  N
  N63      1.0000 0.12862  0.19386  0.04890  Biso   1.000  N
  N64      1.0000 0.25355  0.82437  0.16853  Biso   1.000  N
  N65      1.0000 0.15949  0.96125  0.21977  Biso   1.000  N
  N66      1.0000 0.12862  0.04890  0.19386  Biso   1.000  N
  N67      1.0000 0.66853  0.75355  0.75355  Biso   1.000  N
  N68      1.0000 0.71977  0.65949  0.65949  Biso   1.000  N
  N69      1.0000 0.69386  0.62862  0.62862  Biso   1.000  N
  N70      1.0000 0.32437  0.75355  0.75355  Biso   1.000  N
  N71      1.0000 0.46125  0.65949  0.65949  Biso   1.000  N
  N72      1.0000 0.54890  0.62862  0.62862  Biso   1.000  N
  N73      1.0000 0.25355  0.82437  0.75355  Biso   1.000  N
  N74      1.0000 0.15949  0.96125  0.65949  Biso   1.000  N
  N75      1.0000 0.12862  0.04890  0.62862  Biso   1.000  N
  N76      1.0000 0.25355  0.16853  0.75355  Biso   1.000  N
  N77      1.0000 0.15949  0.21977  0.65949  Biso   1.000  N
  N78      1.0000 0.12862  0.19386  0.62862  Biso   1.000  N
  N79      1.0000 0.66853  0.75355  0.82437  Biso   1.000  N
  N80      1.0000 0.71977  0.65949  0.96125  Biso   1.000  N
  N81      1.0000 0.69386  0.62862  0.04890  Biso   1.000  N
  N82      1.0000 0.32437  0.75355  0.16853  Biso   1.000  N
  N83      1.0000 0.46125  0.65949  0.21977  Biso   1.000  N
  N84      1.0000 0.54890  0.62862  0.19386  Biso   1.000  N
  N85      1.0000 0.74645  0.24645  0.83147  Biso   1.000  N
  N86      1.0000 0.84051  0.34051  0.78023  Biso   1.000  N
  N87      1.0000 0.87138  0.37138  0.80614  Biso   1.000  N
  N88      1.0000 0.74645  0.24645  0.17563  Biso   1.000  N
  N89      1.0000 0.84051  0.34051  0.03875  Biso   1.000  N
  N90      1.0000 0.87138  0.37138  0.95110  Biso   1.000  N
  N91      1.0000 0.67563  0.83147  0.24645  Biso   1.000  N
  N92      1.0000 0.53875  0.78023  0.34051  Biso   1.000  N
  N93      1.0000 0.45110  0.80614  0.37138  Biso   1.000  N
  N94      1.0000 0.33147  0.17563  0.24645  Biso   1.000  N
  N95      1.0000 0.28023  0.03875  0.34051  Biso   1.000  N
  N96      1.0000 0.30614  0.95110  0.37138  Biso   1.000  N
  N97      1.0000 0.33147  0.24645  0.17563  Biso   1.000  N
  N98      1.0000 0.28023  0.34051  0.03875  Biso   1.000  N
  N99      1.0000 0.30614  0.37138  0.95110  Biso   1.000  N
  N100     1.0000 0.67563  0.24645  0.83147  Biso   1.000  N
  N101     1.0000 0.53875  0.34051  0.78023  Biso   1.000  N
  N102     1.0000 0.45110  0.37138  0.80614  Biso   1.000  N
  N103     1.0000 0.74645  0.83147  0.24645  Biso   1.000  N
  N104     1.0000 0.84051  0.78023  0.34051  Biso   1.000  N
  N105     1.0000 0.87138  0.80614  0.37138  Biso   1.000  N
  N106     1.0000 0.74645  0.17563  0.24645  Biso   1.000  N
  N107     1.0000 0.84051  0.03875  0.34051  Biso   1.000  N
  N108     1.0000 0.87138  0.95110  0.37138  Biso   1.000  N
  N109     1.0000 0.67563  0.24645  0.24645  Biso   1.000  N
  N110     1.0000 0.53875  0.34051  0.34051  Biso   1.000  N
  N111     1.0000 0.45110  0.37138  0.37138  Biso   1.000  N
  N112     1.0000 0.33147  0.24645  0.24645  Biso   1.000  N
  N113     1.0000 0.28023  0.34051  0.34051  Biso   1.000  N
  N114     1.0000 0.30614  0.37138  0.37138  Biso   1.000  N
  N115     1.0000 0.74645  0.83147  0.17563  Biso   1.000  N
  N116     1.0000 0.84051  0.78023  0.03875  Biso   1.000  N
  N117     1.0000 0.87138  0.80614  0.95110  Biso   1.000  N
  N118     1.0000 0.74645  0.17563  0.83147  Biso   1.000  N
  N119     1.0000 0.84051  0.03875  0.78023  Biso   1.000  N
  N120     1.0000 0.87138  0.95110  0.80614  Biso   1.000  N
  N121     1.0000 0.29960  0.79960  0.10120  Biso   1.000  N
  N122     1.0000 0.29960  0.79960  0.79960  Biso   1.000  N
  N123     1.0000 0.60120  0.79960  0.79960  Biso   1.000  N
  N124     1.0000 0.29960  0.10120  0.79960  Biso   1.000  N
  N125     1.0000 0.70040  0.20040  0.89880  Biso   1.000  N
  N126     1.0000 0.70040  0.20040  0.20040  Biso   1.000  N
  N127     1.0000 0.70040  0.89880  0.20040  Biso   1.000  N
  N128     1.0000 0.39880  0.20040  0.20040  Biso   1.000  N
