data_image0
_cell_length_a       26.4529
_cell_length_b       26.4529
_cell_length_c       26.4529
_cell_angle_alpha    90
_cell_angle_beta     90
_cell_angle_gamma    90

_symmetry_space_group_name_H-M    P 1
_symmetry_int_tables_number       1

loop_
  _symmetry_equiv_pos_as_xyz
  'x, y, z'

loop_
  _atom_site_label
  _atom_site_occupancy
  _atom_site_fract_x
  _atom_site_fract_y
  _atom_site_fract_z
  _atom_site_thermal_displace_type
  _atom_site_B_iso_or_equiv
  _atom_site_type_symbol
  Co1      1.0000 0.83851  0.86800  0.77524  Biso   1.000  Co
  Co2      1.0000 0.82465  0.76018  0.73207  Biso   1.000  Co
  Co3      1.0000 0.78948  0.85631  0.66836  Biso   1.000  Co
  Co4      1.0000 0.66149  0.13200  0.27524  Biso   1.000  Co
  Co5      1.0000 0.67535  0.23982  0.23207  Biso   1.000  Co
  Co6      1.0000 0.71052  0.14369  0.16836  Biso   1.000  Co
  Co7      1.0000 0.16149  0.36800  0.72476  Biso   1.000  Co
  Co8      1.0000 0.17535  0.26018  0.76793  Biso   1.000  Co
  Co9      1.0000 0.21052  0.35631  0.83164  Biso   1.000  Co
  Co10     1.0000 0.33851  0.63200  0.22476  Biso   1.000  Co
  Co11     1.0000 0.32465  0.73982  0.26793  Biso   1.000  Co
  Co12     1.0000 0.28948  0.64369  0.33164  Biso   1.000  Co
  Co13     1.0000 0.77524  0.83851  0.86800  Biso   1.000  Co
  Co14     1.0000 0.73207  0.82465  0.76018  Biso   1.000  Co
  Co15     1.0000 0.66836  0.78948  0.85631  Biso   1.000  Co
  Co16     1.0000 0.27524  0.66149  0.13200  Biso   1.000  Co
  Co17     1.0000 0.23207  0.67535  0.23982  Biso   1.000  Co
  Co18     1.0000 0.16836  0.71052  0.14369  Biso   1.000  Co
  Co19     1.0000 0.72476  0.16149  0.36800  Biso   1.000  Co
  Co20     1.0000 0.76793  0.17535  0.26018  Biso   1.000  Co
  Co21     1.0000 0.83164  0.21052  0.35631  Biso   1.000  Co
  Co22     1.0000 0.22476  0.33851  0.63200  Biso   1.000  Co
  Co23     1.0000 0.26793  0.32465  0.73982  Biso   1.000  Co
  Co24     1.0000 0.33164  0.28948  0.64369  Biso   1.000  Co
  Co25     1.0000 0.86800  0.77524  0.83851  Biso   1.000  Co
  Co26     1.0000 0.76018  0.73207  0.82465  Biso   1.000  Co
  Co27     1.0000 0.85631  0.66836  0.78948  Biso   1.000  Co
  Co28     1.0000 0.13200  0.27524  0.66149  Biso   1.000  Co
  Co29     1.0000 0.23982  0.23207  0.67535  Biso   1.000  Co
  Co30     1.0000 0.14369  0.16836  0.71052  Biso   1.000  Co
  Co31     1.0000 0.36800  0.72476  0.16149  Biso   1.000  Co
  Co32     1.0000 0.26018  0.76793  0.17535  Biso   1.000  Co
  Co33     1.0000 0.35631  0.83164  0.21052  Biso   1.000  Co
  Co34     1.0000 0.63200  0.22476  0.33851  Biso   1.000  Co
  Co35     1.0000 0.73982  0.26793  0.32465  Biso   1.000  Co
  Co36     1.0000 0.64369  0.33164  0.28948  Biso   1.000  Co
  Co37     1.0000 0.16149  0.13200  0.22476  Biso   1.000  Co
  Co38     1.0000 0.17535  0.23982  0.26793  Biso   1.000  Co
  Co39     1.0000 0.21052  0.14369  0.33164  Biso   1.000  Co
  Co40     1.0000 0.33851  0.86800  0.72476  Biso   1.000  Co
  Co41     1.0000 0.32465  0.76018  0.76793  Biso   1.000  Co
  Co42     1.0000 0.28948  0.85631  0.83164  Biso   1.000  Co
  Co43     1.0000 0.83851  0.63200  0.27524  Biso   1.000  Co
  Co44     1.0000 0.82465  0.73982  0.23207  Biso   1.000  Co
  Co45     1.0000 0.78948  0.64369  0.16836  Biso   1.000  Co
  Co46     1.0000 0.66149  0.36800  0.77524  Biso   1.000  Co
  Co47     1.0000 0.67535  0.26018  0.73207  Biso   1.000  Co
  Co48     1.0000 0.71052  0.35631  0.66836  Biso   1.000  Co
  Co49     1.0000 0.22476  0.16149  0.13200  Biso   1.000  Co
  Co50     1.0000 0.26793  0.17535  0.23982  Biso   1.000  Co
  Co51     1.0000 0.33164  0.21052  0.14369  Biso   1.000  Co
  Co52     1.0000 0.72476  0.33851  0.86800  Biso   1.000  Co
  Co53     1.0000 0.76793  0.32465  0.76018  Biso   1.000  Co
  Co54     1.0000 0.83164  0.28948  0.85631  Biso   1.000  Co
  Co55     1.0000 0.27524  0.83851  0.63200  Biso   1.000  Co
  Co56     1.0000 0.23207  0.82465  0.73982  Biso   1.000  Co
  Co57     1.0000 0.16836  0.78948  0.64369  Biso   1.000  Co
  Co58     1.0000 0.77524  0.66149  0.36800  Biso   1.000  Co
  Co59     1.0000 0.73207  0.67535  0.26018  Biso   1.000  Co
  Co60     1.0000 0.66836  0.71052  0.35631  Biso   1.000  Co
  Co61     1.0000 0.13200  0.22476  0.16149  Biso   1.000  Co
  Co62     1.0000 0.23982  0.26793  0.17535  Biso   1.000  Co
  Co63     1.0000 0.14369  0.33164  0.21052  Biso   1.000  Co
  Co64     1.0000 0.86800  0.72476  0.33851  Biso   1.000  Co
  Co65     1.0000 0.76018  0.76793  0.32465  Biso   1.000  Co
  Co66     1.0000 0.85631  0.83164  0.28948  Biso   1.000  Co
  Co67     1.0000 0.63200  0.27524  0.83851  Biso   1.000  Co
  Co68     1.0000 0.73982  0.23207  0.82465  Biso   1.000  Co
  Co69     1.0000 0.64369  0.16836  0.78948  Biso   1.000  Co
  Co70     1.0000 0.36800  0.77524  0.66149  Biso   1.000  Co
  Co71     1.0000 0.26018  0.73207  0.67535  Biso   1.000  Co
  Co72     1.0000 0.35631  0.66836  0.71052  Biso   1.000  Co
  Co73     1.0000 0.88223  0.88223  0.88223  Biso   1.000  Co
  Co74     1.0000 0.61777  0.11777  0.38223  Biso   1.000  Co
  Co75     1.0000 0.11777  0.38223  0.61777  Biso   1.000  Co
  Co76     1.0000 0.38223  0.61777  0.11777  Biso   1.000  Co
  Co77     1.0000 0.11777  0.11777  0.11777  Biso   1.000  Co
  Co78     1.0000 0.38223  0.88223  0.61777  Biso   1.000  Co
  Co79     1.0000 0.88223  0.61777  0.38223  Biso   1.000  Co
  Co80     1.0000 0.61777  0.38223  0.88223  Biso   1.000  Co
  H1       1.0000 0.06040  0.76110  0.62090  Biso   1.000  H
  H2       1.0000 0.98120  0.76310  0.65450  Biso   1.000  H
  H3       1.0000 0.11170  0.84680  0.72640  Biso   1.000  H
  H4       1.0000 0.03360  0.85270  0.76330  Biso   1.000  H
  H5       1.0000 0.96040  0.73960  0.77670  Biso   1.000  H
  H6       1.0000 0.93840  0.72940  0.72270  Biso   1.000  H
  H7       1.0000 0.91140  0.80710  0.66640  Biso   1.000  H
  H8       1.0000 0.91790  0.86170  0.68830  Biso   1.000  H
  H9       1.0000 0.95370  0.87450  0.77670  Biso   1.000  H
  H10      1.0000 0.97110  0.82810  0.80900  Biso   1.000  H
  H11      1.0000 0.70220  0.76870  0.65830  Biso   1.000  H
  H12      1.0000 0.74940  0.73500  0.64680  Biso   1.000  H
  H13      1.0000 0.68940  0.70820  0.60780  Biso   1.000  H
  H14      1.0000 0.63900  0.65710  0.55720  Biso   1.000  H
  H15      1.0000 0.59840  0.58110  0.67910  Biso   1.000  H
  H16      1.0000 0.64970  0.62860  0.73250  Biso   1.000  H
  H17      1.0000 0.88380  0.65890  0.60060  Biso   1.000  H
  H18      1.0000 0.88140  0.60780  0.63050  Biso   1.000  H
  H19      1.0000 0.83140  0.63670  0.61710  Biso   1.000  H
  H20      1.0000 0.84110  0.93670  0.62790  Biso   1.000  H
  H21      1.0000 0.84000  0.93100  0.67950  Biso   1.000  H
  H22      1.0000 0.43960  0.23890  0.12090  Biso   1.000  H
  H23      1.0000 0.51880  0.23690  0.15450  Biso   1.000  H
  H24      1.0000 0.38830  0.15320  0.22640  Biso   1.000  H
  H25      1.0000 0.46640  0.14730  0.26330  Biso   1.000  H
  H26      1.0000 0.53960  0.26040  0.27670  Biso   1.000  H
  H27      1.0000 0.56160  0.27060  0.22270  Biso   1.000  H
  H28      1.0000 0.58860  0.19290  0.16640  Biso   1.000  H
  H29      1.0000 0.58210  0.13830  0.18830  Biso   1.000  H
  H30      1.0000 0.54630  0.12550  0.27670  Biso   1.000  H
  H31      1.0000 0.52890  0.17190  0.30900  Biso   1.000  H
  H32      1.0000 0.79780  0.23130  0.15830  Biso   1.000  H
  H33      1.0000 0.75060  0.26500  0.14680  Biso   1.000  H
  H34      1.0000 0.81060  0.29180  0.10780  Biso   1.000  H
  H35      1.0000 0.86100  0.34290  0.05720  Biso   1.000  H
  H36      1.0000 0.90160  0.41890  0.17910  Biso   1.000  H
  H37      1.0000 0.85030  0.37140  0.23250  Biso   1.000  H
  H38      1.0000 0.61620  0.34110  0.10060  Biso   1.000  H
  H39      1.0000 0.61860  0.39220  0.13050  Biso   1.000  H
  H40      1.0000 0.66860  0.36330  0.11710  Biso   1.000  H
  H41      1.0000 0.65890  0.06330  0.12790  Biso   1.000  H
  H42      1.0000 0.66000  0.06900  0.17950  Biso   1.000  H
  H43      1.0000 0.93960  0.26110  0.87910  Biso   1.000  H
  H44      1.0000 0.01880  0.26310  0.84550  Biso   1.000  H
  H45      1.0000 0.88830  0.34680  0.77360  Biso   1.000  H
  H46      1.0000 0.96640  0.35270  0.73670  Biso   1.000  H
  H47      1.0000 0.03960  0.23960  0.72330  Biso   1.000  H
  H48      1.0000 0.06160  0.22940  0.77730  Biso   1.000  H
  H49      1.0000 0.08860  0.30710  0.83360  Biso   1.000  H
  H50      1.0000 0.08210  0.36170  0.81170  Biso   1.000  H
  H51      1.0000 0.04630  0.37450  0.72330  Biso   1.000  H
  H52      1.0000 0.02890  0.32810  0.69100  Biso   1.000  H
  H53      1.0000 0.29780  0.26870  0.84170  Biso   1.000  H
  H54      1.0000 0.25060  0.23500  0.85320  Biso   1.000  H
  H55      1.0000 0.31060  0.20820  0.89220  Biso   1.000  H
  H56      1.0000 0.36100  0.15710  0.94280  Biso   1.000  H
  H57      1.0000 0.40160  0.08110  0.82090  Biso   1.000  H
  H58      1.0000 0.35030  0.12860  0.76750  Biso   1.000  H
  H59      1.0000 0.11620  0.15890  0.89940  Biso   1.000  H
  H60      1.0000 0.11860  0.10780  0.86950  Biso   1.000  H
  H61      1.0000 0.16860  0.13670  0.88290  Biso   1.000  H
  H62      1.0000 0.15890  0.43670  0.87210  Biso   1.000  H
  H63      1.0000 0.16000  0.43100  0.82050  Biso   1.000  H
  H64      1.0000 0.56040  0.73890  0.37910  Biso   1.000  H
  H65      1.0000 0.48120  0.73690  0.34550  Biso   1.000  H
  H66      1.0000 0.61170  0.65320  0.27360  Biso   1.000  H
  H67      1.0000 0.53360  0.64730  0.23670  Biso   1.000  H
  H68      1.0000 0.46040  0.76040  0.22330  Biso   1.000  H
  H69      1.0000 0.43840  0.77060  0.27730  Biso   1.000  H
  H70      1.0000 0.41140  0.69290  0.33360  Biso   1.000  H
  H71      1.0000 0.41790  0.63830  0.31170  Biso   1.000  H
  H72      1.0000 0.45370  0.62550  0.22330  Biso   1.000  H
  H73      1.0000 0.47110  0.67190  0.19100  Biso   1.000  H
  H74      1.0000 0.20220  0.73130  0.34170  Biso   1.000  H
  H75      1.0000 0.24940  0.76500  0.35320  Biso   1.000  H
  H76      1.0000 0.18940  0.79180  0.39220  Biso   1.000  H
  H77      1.0000 0.13900  0.84290  0.44280  Biso   1.000  H
  H78      1.0000 0.09840  0.91890  0.32090  Biso   1.000  H
  H79      1.0000 0.14970  0.87140  0.26750  Biso   1.000  H
  H80      1.0000 0.38380  0.84110  0.39940  Biso   1.000  H
  H81      1.0000 0.38140  0.89220  0.36950  Biso   1.000  H
  H82      1.0000 0.33140  0.86330  0.38290  Biso   1.000  H
  H83      1.0000 0.34110  0.56330  0.37210  Biso   1.000  H
  H84      1.0000 0.34000  0.56900  0.32050  Biso   1.000  H
  H85      1.0000 0.62090  0.06040  0.76110  Biso   1.000  H
  H86      1.0000 0.65450  0.98120  0.76310  Biso   1.000  H
  H87      1.0000 0.72640  0.11170  0.84680  Biso   1.000  H
  H88      1.0000 0.76330  0.03360  0.85270  Biso   1.000  H
  H89      1.0000 0.77670  0.96040  0.73960  Biso   1.000  H
  H90      1.0000 0.72270  0.93840  0.72940  Biso   1.000  H
  H91      1.0000 0.66640  0.91140  0.80710  Biso   1.000  H
  H92      1.0000 0.68830  0.91790  0.86170  Biso   1.000  H
  H93      1.0000 0.77670  0.95370  0.87450  Biso   1.000  H
  H94      1.0000 0.80900  0.97110  0.82810  Biso   1.000  H
  H95      1.0000 0.65830  0.70220  0.76870  Biso   1.000  H
  H96      1.0000 0.64680  0.74940  0.73500  Biso   1.000  H
  H97      1.0000 0.60780  0.68940  0.70820  Biso   1.000  H
  H98      1.0000 0.55720  0.63900  0.65710  Biso   1.000  H
  H99      1.0000 0.67910  0.59840  0.58110  Biso   1.000  H
  H100     1.0000 0.73250  0.64970  0.62860  Biso   1.000  H
  H101     1.0000 0.60060  0.88380  0.65890  Biso   1.000  H
  H102     1.0000 0.63050  0.88140  0.60780  Biso   1.000  H
  H103     1.0000 0.61710  0.83140  0.63670  Biso   1.000  H
  H104     1.0000 0.62790  0.84110  0.93670  Biso   1.000  H
  H105     1.0000 0.67950  0.84000  0.93100  Biso   1.000  H
  H106     1.0000 0.12090  0.43960  0.23890  Biso   1.000  H
  H107     1.0000 0.15450  0.51880  0.23690  Biso   1.000  H
  H108     1.0000 0.22640  0.38830  0.15320  Biso   1.000  H
  H109     1.0000 0.26330  0.46640  0.14730  Biso   1.000  H
  H110     1.0000 0.27670  0.53960  0.26040  Biso   1.000  H
  H111     1.0000 0.22270  0.56160  0.27060  Biso   1.000  H
  H112     1.0000 0.16640  0.58860  0.19290  Biso   1.000  H
  H113     1.0000 0.18830  0.58210  0.13830  Biso   1.000  H
  H114     1.0000 0.27670  0.54630  0.12550  Biso   1.000  H
  H115     1.0000 0.30900  0.52890  0.17190  Biso   1.000  H
  H116     1.0000 0.15830  0.79780  0.23130  Biso   1.000  H
  H117     1.0000 0.14680  0.75060  0.26500  Biso   1.000  H
  H118     1.0000 0.10780  0.81060  0.29180  Biso   1.000  H
  H119     1.0000 0.05720  0.86100  0.34290  Biso   1.000  H
  H120     1.0000 0.17910  0.90160  0.41890  Biso   1.000  H
  H121     1.0000 0.23250  0.85030  0.37140  Biso   1.000  H
  H122     1.0000 0.10060  0.61620  0.34110  Biso   1.000  H
  H123     1.0000 0.13050  0.61860  0.39220  Biso   1.000  H
  H124     1.0000 0.11710  0.66860  0.36330  Biso   1.000  H
  H125     1.0000 0.12790  0.65890  0.06330  Biso   1.000  H
  H126     1.0000 0.17950  0.66000  0.06900  Biso   1.000  H
  H127     1.0000 0.87910  0.93960  0.26110  Biso   1.000  H
  H128     1.0000 0.84550  0.01880  0.26310  Biso   1.000  H
  H129     1.0000 0.77360  0.88830  0.34680  Biso   1.000  H
  H130     1.0000 0.73670  0.96640  0.35270  Biso   1.000  H
  H131     1.0000 0.72330  0.03960  0.23960  Biso   1.000  H
  H132     1.0000 0.77730  0.06160  0.22940  Biso   1.000  H
  H133     1.0000 0.83360  0.08860  0.30710  Biso   1.000  H
  H134     1.0000 0.81170  0.08210  0.36170  Biso   1.000  H
  H135     1.0000 0.72330  0.04630  0.37450  Biso   1.000  H
  H136     1.0000 0.69100  0.02890  0.32810  Biso   1.000  H
  H137     1.0000 0.84170  0.29780  0.26870  Biso   1.000  H
  H138     1.0000 0.85320  0.25060  0.23500  Biso   1.000  H
  H139     1.0000 0.89220  0.31060  0.20820  Biso   1.000  H
  H140     1.0000 0.94280  0.36100  0.15710  Biso   1.000  H
  H141     1.0000 0.82090  0.40160  0.08110  Biso   1.000  H
  H142     1.0000 0.76750  0.35030  0.12860  Biso   1.000  H
  H143     1.0000 0.89940  0.11620  0.15890  Biso   1.000  H
  H144     1.0000 0.86950  0.11860  0.10780  Biso   1.000  H
  H145     1.0000 0.88290  0.16860  0.13670  Biso   1.000  H
  H146     1.0000 0.87210  0.15890  0.43670  Biso   1.000  H
  H147     1.0000 0.82050  0.16000  0.43100  Biso   1.000  H
  H148     1.0000 0.37910  0.56040  0.73890  Biso   1.000  H
  H149     1.0000 0.34550  0.48120  0.73690  Biso   1.000  H
  H150     1.0000 0.27360  0.61170  0.65320  Biso   1.000  H
  H151     1.0000 0.23670  0.53360  0.64730  Biso   1.000  H
  H152     1.0000 0.22330  0.46040  0.76040  Biso   1.000  H
  H153     1.0000 0.27730  0.43840  0.77060  Biso   1.000  H
  H154     1.0000 0.33360  0.41140  0.69290  Biso   1.000  H
  H155     1.0000 0.31170  0.41790  0.63830  Biso   1.000  H
  H156     1.0000 0.22330  0.45370  0.62550  Biso   1.000  H
  H157     1.0000 0.19100  0.47110  0.67190  Biso   1.000  H
  H158     1.0000 0.34170  0.20220  0.73130  Biso   1.000  H
  H159     1.0000 0.35320  0.24940  0.76500  Biso   1.000  H
  H160     1.0000 0.39220  0.18940  0.79180  Biso   1.000  H
  H161     1.0000 0.44280  0.13900  0.84290  Biso   1.000  H
  H162     1.0000 0.32090  0.09840  0.91890  Biso   1.000  H
  H163     1.0000 0.26750  0.14970  0.87140  Biso   1.000  H
  H164     1.0000 0.39940  0.38380  0.84110  Biso   1.000  H
  H165     1.0000 0.36950  0.38140  0.89220  Biso   1.000  H
  H166     1.0000 0.38290  0.33140  0.86330  Biso   1.000  H
  H167     1.0000 0.37210  0.34110  0.56330  Biso   1.000  H
  H168     1.0000 0.32050  0.34000  0.56900  Biso   1.000  H
  H169     1.0000 0.76110  0.62090  0.06040  Biso   1.000  H
  H170     1.0000 0.76310  0.65450  0.98120  Biso   1.000  H
  H171     1.0000 0.84680  0.72640  0.11170  Biso   1.000  H
  H172     1.0000 0.85270  0.76330  0.03360  Biso   1.000  H
  H173     1.0000 0.73960  0.77670  0.96040  Biso   1.000  H
  H174     1.0000 0.72940  0.72270  0.93840  Biso   1.000  H
  H175     1.0000 0.80710  0.66640  0.91140  Biso   1.000  H
  H176     1.0000 0.86170  0.68830  0.91790  Biso   1.000  H
  H177     1.0000 0.87450  0.77670  0.95370  Biso   1.000  H
  H178     1.0000 0.82810  0.80900  0.97110  Biso   1.000  H
  H179     1.0000 0.76870  0.65830  0.70220  Biso   1.000  H
  H180     1.0000 0.73500  0.64680  0.74940  Biso   1.000  H
  H181     1.0000 0.70820  0.60780  0.68940  Biso   1.000  H
  H182     1.0000 0.65710  0.55720  0.63900  Biso   1.000  H
  H183     1.0000 0.58110  0.67910  0.59840  Biso   1.000  H
  H184     1.0000 0.62860  0.73250  0.64970  Biso   1.000  H
  H185     1.0000 0.65890  0.60060  0.88380  Biso   1.000  H
  H186     1.0000 0.60780  0.63050  0.88140  Biso   1.000  H
  H187     1.0000 0.63670  0.61710  0.83140  Biso   1.000  H
  H188     1.0000 0.93670  0.62790  0.84110  Biso   1.000  H
  H189     1.0000 0.93100  0.67950  0.84000  Biso   1.000  H
  H190     1.0000 0.23890  0.12090  0.43960  Biso   1.000  H
  H191     1.0000 0.23690  0.15450  0.51880  Biso   1.000  H
  H192     1.0000 0.15320  0.22640  0.38830  Biso   1.000  H
  H193     1.0000 0.14730  0.26330  0.46640  Biso   1.000  H
  H194     1.0000 0.26040  0.27670  0.53960  Biso   1.000  H
  H195     1.0000 0.27060  0.22270  0.56160  Biso   1.000  H
  H196     1.0000 0.19290  0.16640  0.58860  Biso   1.000  H
  H197     1.0000 0.13830  0.18830  0.58210  Biso   1.000  H
  H198     1.0000 0.12550  0.27670  0.54630  Biso   1.000  H
  H199     1.0000 0.17190  0.30900  0.52890  Biso   1.000  H
  H200     1.0000 0.23130  0.15830  0.79780  Biso   1.000  H
  H201     1.0000 0.26500  0.14680  0.75060  Biso   1.000  H
  H202     1.0000 0.29180  0.10780  0.81060  Biso   1.000  H
  H203     1.0000 0.34290  0.05720  0.86100  Biso   1.000  H
  H204     1.0000 0.41890  0.17910  0.90160  Biso   1.000  H
  H205     1.0000 0.37140  0.23250  0.85030  Biso   1.000  H
  H206     1.0000 0.34110  0.10060  0.61620  Biso   1.000  H
  H207     1.0000 0.39220  0.13050  0.61860  Biso   1.000  H
  H208     1.0000 0.36330  0.11710  0.66860  Biso   1.000  H
  H209     1.0000 0.06330  0.12790  0.65890  Biso   1.000  H
  H210     1.0000 0.06900  0.17950  0.66000  Biso   1.000  H
  H211     1.0000 0.26110  0.87910  0.93960  Biso   1.000  H
  H212     1.0000 0.26310  0.84550  0.01880  Biso   1.000  H
  H213     1.0000 0.34680  0.77360  0.88830  Biso   1.000  H
  H214     1.0000 0.35270  0.73670  0.96640  Biso   1.000  H
  H215     1.0000 0.23960  0.72330  0.03960  Biso   1.000  H
  H216     1.0000 0.22940  0.77730  0.06160  Biso   1.000  H
  H217     1.0000 0.30710  0.83360  0.08860  Biso   1.000  H
  H218     1.0000 0.36170  0.81170  0.08210  Biso   1.000  H
  H219     1.0000 0.37450  0.72330  0.04630  Biso   1.000  H
  H220     1.0000 0.32810  0.69100  0.02890  Biso   1.000  H
  H221     1.0000 0.26870  0.84170  0.29780  Biso   1.000  H
  H222     1.0000 0.23500  0.85320  0.25060  Biso   1.000  H
  H223     1.0000 0.20820  0.89220  0.31060  Biso   1.000  H
  H224     1.0000 0.15710  0.94280  0.36100  Biso   1.000  H
  H225     1.0000 0.08110  0.82090  0.40160  Biso   1.000  H
  H226     1.0000 0.12860  0.76750  0.35030  Biso   1.000  H
  H227     1.0000 0.15890  0.89940  0.11620  Biso   1.000  H
  H228     1.0000 0.10780  0.86950  0.11860  Biso   1.000  H
  H229     1.0000 0.13670  0.88290  0.16860  Biso   1.000  H
  H230     1.0000 0.43670  0.87210  0.15890  Biso   1.000  H
  H231     1.0000 0.43100  0.82050  0.16000  Biso   1.000  H
  H232     1.0000 0.73890  0.37910  0.56040  Biso   1.000  H
  H233     1.0000 0.73690  0.34550  0.48120  Biso   1.000  H
  H234     1.0000 0.65320  0.27360  0.61170  Biso   1.000  H
  H235     1.0000 0.64730  0.23670  0.53360  Biso   1.000  H
  H236     1.0000 0.76040  0.22330  0.46040  Biso   1.000  H
  H237     1.0000 0.77060  0.27730  0.43840  Biso   1.000  H
  H238     1.0000 0.69290  0.33360  0.41140  Biso   1.000  H
  H239     1.0000 0.63830  0.31170  0.41790  Biso   1.000  H
  H240     1.0000 0.62550  0.22330  0.45370  Biso   1.000  H
  H241     1.0000 0.67190  0.19100  0.47110  Biso   1.000  H
  H242     1.0000 0.73130  0.34170  0.20220  Biso   1.000  H
  H243     1.0000 0.76500  0.35320  0.24940  Biso   1.000  H
  H244     1.0000 0.79180  0.39220  0.18940  Biso   1.000  H
  H245     1.0000 0.84290  0.44280  0.13900  Biso   1.000  H
  H246     1.0000 0.91890  0.32090  0.09840  Biso   1.000  H
  H247     1.0000 0.87140  0.26750  0.14970  Biso   1.000  H
  H248     1.0000 0.84110  0.39940  0.38380  Biso   1.000  H
  H249     1.0000 0.89220  0.36950  0.38140  Biso   1.000  H
  H250     1.0000 0.86330  0.38290  0.33140  Biso   1.000  H
  H251     1.0000 0.56330  0.37210  0.34110  Biso   1.000  H
  H252     1.0000 0.56900  0.32050  0.34000  Biso   1.000  H
  H253     1.0000 0.93960  0.23890  0.37910  Biso   1.000  H
  H254     1.0000 0.01880  0.23690  0.34550  Biso   1.000  H
  H255     1.0000 0.88830  0.15320  0.27360  Biso   1.000  H
  H256     1.0000 0.96640  0.14730  0.23670  Biso   1.000  H
  H257     1.0000 0.03960  0.26040  0.22330  Biso   1.000  H
  H258     1.0000 0.06160  0.27060  0.27730  Biso   1.000  H
  H259     1.0000 0.08860  0.19290  0.33360  Biso   1.000  H
  H260     1.0000 0.08210  0.13830  0.31170  Biso   1.000  H
  H261     1.0000 0.04630  0.12550  0.22330  Biso   1.000  H
  H262     1.0000 0.02890  0.17190  0.19100  Biso   1.000  H
  H263     1.0000 0.29780  0.23130  0.34170  Biso   1.000  H
  H264     1.0000 0.25060  0.26500  0.35320  Biso   1.000  H
  H265     1.0000 0.31060  0.29180  0.39220  Biso   1.000  H
  H266     1.0000 0.36100  0.34290  0.44280  Biso   1.000  H
  H267     1.0000 0.40160  0.41890  0.32090  Biso   1.000  H
  H268     1.0000 0.35030  0.37140  0.26750  Biso   1.000  H
  H269     1.0000 0.11620  0.34110  0.39940  Biso   1.000  H
  H270     1.0000 0.11860  0.39220  0.36950  Biso   1.000  H
  H271     1.0000 0.16860  0.36330  0.38290  Biso   1.000  H
  H272     1.0000 0.15890  0.06330  0.37210  Biso   1.000  H
  H273     1.0000 0.16000  0.06900  0.32050  Biso   1.000  H
  H274     1.0000 0.56040  0.76110  0.87910  Biso   1.000  H
  H275     1.0000 0.48120  0.76310  0.84550  Biso   1.000  H
  H276     1.0000 0.61170  0.84680  0.77360  Biso   1.000  H
  H277     1.0000 0.53360  0.85270  0.73670  Biso   1.000  H
  H278     1.0000 0.46040  0.73960  0.72330  Biso   1.000  H
  H279     1.0000 0.43840  0.72940  0.77730  Biso   1.000  H
  H280     1.0000 0.41140  0.80710  0.83360  Biso   1.000  H
  H281     1.0000 0.41790  0.86170  0.81170  Biso   1.000  H
  H282     1.0000 0.45370  0.87450  0.72330  Biso   1.000  H
  H283     1.0000 0.47110  0.82810  0.69100  Biso   1.000  H
  H284     1.0000 0.20220  0.76870  0.84170  Biso   1.000  H
  H285     1.0000 0.24940  0.73500  0.85320  Biso   1.000  H
  H286     1.0000 0.18940  0.70820  0.89220  Biso   1.000  H
  H287     1.0000 0.13900  0.65710  0.94280  Biso   1.000  H
  H288     1.0000 0.09840  0.58110  0.82090  Biso   1.000  H
  H289     1.0000 0.14970  0.62860  0.76750  Biso   1.000  H
  H290     1.0000 0.38380  0.65890  0.89940  Biso   1.000  H
  H291     1.0000 0.38140  0.60780  0.86950  Biso   1.000  H
  H292     1.0000 0.33140  0.63670  0.88290  Biso   1.000  H
  H293     1.0000 0.34110  0.93670  0.87210  Biso   1.000  H
  H294     1.0000 0.34000  0.93100  0.82050  Biso   1.000  H
  H295     1.0000 0.06040  0.73890  0.12090  Biso   1.000  H
  H296     1.0000 0.98120  0.73690  0.15450  Biso   1.000  H
  H297     1.0000 0.11170  0.65320  0.22640  Biso   1.000  H
  H298     1.0000 0.03360  0.64730  0.26330  Biso   1.000  H
  H299     1.0000 0.96040  0.76040  0.27670  Biso   1.000  H
  H300     1.0000 0.93840  0.77060  0.22270  Biso   1.000  H
  H301     1.0000 0.91140  0.69290  0.16640  Biso   1.000  H
  H302     1.0000 0.91790  0.63830  0.18830  Biso   1.000  H
  H303     1.0000 0.95370  0.62550  0.27670  Biso   1.000  H
  H304     1.0000 0.97110  0.67190  0.30900  Biso   1.000  H
  H305     1.0000 0.70220  0.73130  0.15830  Biso   1.000  H
  H306     1.0000 0.74940  0.76500  0.14680  Biso   1.000  H
  H307     1.0000 0.68940  0.79180  0.10780  Biso   1.000  H
  H308     1.0000 0.63900  0.84290  0.05720  Biso   1.000  H
  H309     1.0000 0.59840  0.91890  0.17910  Biso   1.000  H
  H310     1.0000 0.64970  0.87140  0.23250  Biso   1.000  H
  H311     1.0000 0.88380  0.84110  0.10060  Biso   1.000  H
  H312     1.0000 0.88140  0.89220  0.13050  Biso   1.000  H
  H313     1.0000 0.83140  0.86330  0.11710  Biso   1.000  H
  H314     1.0000 0.84110  0.56330  0.12790  Biso   1.000  H
  H315     1.0000 0.84000  0.56900  0.17950  Biso   1.000  H
  H316     1.0000 0.43960  0.26110  0.62090  Biso   1.000  H
  H317     1.0000 0.51880  0.26310  0.65450  Biso   1.000  H
  H318     1.0000 0.38830  0.34680  0.72640  Biso   1.000  H
  H319     1.0000 0.46640  0.35270  0.76330  Biso   1.000  H
  H320     1.0000 0.53960  0.23960  0.77670  Biso   1.000  H
  H321     1.0000 0.56160  0.22940  0.72270  Biso   1.000  H
  H322     1.0000 0.58860  0.30710  0.66640  Biso   1.000  H
  H323     1.0000 0.58210  0.36170  0.68830  Biso   1.000  H
  H324     1.0000 0.54630  0.37450  0.77670  Biso   1.000  H
  H325     1.0000 0.52890  0.32810  0.80900  Biso   1.000  H
  H326     1.0000 0.79780  0.26870  0.65830  Biso   1.000  H
  H327     1.0000 0.75060  0.23500  0.64680  Biso   1.000  H
  H328     1.0000 0.81060  0.20820  0.60780  Biso   1.000  H
  H329     1.0000 0.86100  0.15710  0.55720  Biso   1.000  H
  H330     1.0000 0.90160  0.08110  0.67910  Biso   1.000  H
  H331     1.0000 0.85030  0.12860  0.73250  Biso   1.000  H
  H332     1.0000 0.61620  0.15890  0.60060  Biso   1.000  H
  H333     1.0000 0.61860  0.10780  0.63050  Biso   1.000  H
  H334     1.0000 0.66860  0.13670  0.61710  Biso   1.000  H
  H335     1.0000 0.65890  0.43670  0.62790  Biso   1.000  H
  H336     1.0000 0.66000  0.43100  0.67950  Biso   1.000  H
  H337     1.0000 0.37910  0.93960  0.23890  Biso   1.000  H
  H338     1.0000 0.34550  0.01880  0.23690  Biso   1.000  H
  H339     1.0000 0.27360  0.88830  0.15320  Biso   1.000  H
  H340     1.0000 0.23670  0.96640  0.14730  Biso   1.000  H
  H341     1.0000 0.22330  0.03960  0.26040  Biso   1.000  H
  H342     1.0000 0.27730  0.06160  0.27060  Biso   1.000  H
  H343     1.0000 0.33360  0.08860  0.19290  Biso   1.000  H
  H344     1.0000 0.31170  0.08210  0.13830  Biso   1.000  H
  H345     1.0000 0.22330  0.04630  0.12550  Biso   1.000  H
  H346     1.0000 0.19100  0.02890  0.17190  Biso   1.000  H
  H347     1.0000 0.34170  0.29780  0.23130  Biso   1.000  H
  H348     1.0000 0.35320  0.25060  0.26500  Biso   1.000  H
  H349     1.0000 0.39220  0.31060  0.29180  Biso   1.000  H
  H350     1.0000 0.44280  0.36100  0.34290  Biso   1.000  H
  H351     1.0000 0.32090  0.40160  0.41890  Biso   1.000  H
  H352     1.0000 0.26750  0.35030  0.37140  Biso   1.000  H
  H353     1.0000 0.39940  0.11620  0.34110  Biso   1.000  H
  H354     1.0000 0.36950  0.11860  0.39220  Biso   1.000  H
  H355     1.0000 0.38290  0.16860  0.36330  Biso   1.000  H
  H356     1.0000 0.37210  0.15890  0.06330  Biso   1.000  H
  H357     1.0000 0.32050  0.16000  0.06900  Biso   1.000  H
  H358     1.0000 0.87910  0.56040  0.76110  Biso   1.000  H
  H359     1.0000 0.84550  0.48120  0.76310  Biso   1.000  H
  H360     1.0000 0.77360  0.61170  0.84680  Biso   1.000  H
  H361     1.0000 0.73670  0.53360  0.85270  Biso   1.000  H
  H362     1.0000 0.72330  0.46040  0.73960  Biso   1.000  H
  H363     1.0000 0.77730  0.43840  0.72940  Biso   1.000  H
  H364     1.0000 0.83360  0.41140  0.80710  Biso   1.000  H
  H365     1.0000 0.81170  0.41790  0.86170  Biso   1.000  H
  H366     1.0000 0.72330  0.45370  0.87450  Biso   1.000  H
  H367     1.0000 0.69100  0.47110  0.82810  Biso   1.000  H
  H368     1.0000 0.84170  0.20220  0.76870  Biso   1.000  H
  H369     1.0000 0.85320  0.24940  0.73500  Biso   1.000  H
  H370     1.0000 0.89220  0.18940  0.70820  Biso   1.000  H
  H371     1.0000 0.94280  0.13900  0.65710  Biso   1.000  H
  H372     1.0000 0.82090  0.09840  0.58110  Biso   1.000  H
  H373     1.0000 0.76750  0.14970  0.62860  Biso   1.000  H
  H374     1.0000 0.89940  0.38380  0.65890  Biso   1.000  H
  H375     1.0000 0.86950  0.38140  0.60780  Biso   1.000  H
  H376     1.0000 0.88290  0.33140  0.63670  Biso   1.000  H
  H377     1.0000 0.87210  0.34110  0.93670  Biso   1.000  H
  H378     1.0000 0.82050  0.34000  0.93100  Biso   1.000  H
  H379     1.0000 0.12090  0.06040  0.73890  Biso   1.000  H
  H380     1.0000 0.15450  0.98120  0.73690  Biso   1.000  H
  H381     1.0000 0.22640  0.11170  0.65320  Biso   1.000  H
  H382     1.0000 0.26330  0.03360  0.64730  Biso   1.000  H
  H383     1.0000 0.27670  0.96040  0.76040  Biso   1.000  H
  H384     1.0000 0.22270  0.93840  0.77060  Biso   1.000  H
  H385     1.0000 0.16640  0.91140  0.69290  Biso   1.000  H
  H386     1.0000 0.18830  0.91790  0.63830  Biso   1.000  H
  H387     1.0000 0.27670  0.95370  0.62550  Biso   1.000  H
  H388     1.0000 0.30900  0.97110  0.67190  Biso   1.000  H
  H389     1.0000 0.15830  0.70220  0.73130  Biso   1.000  H
  H390     1.0000 0.14680  0.74940  0.76500  Biso   1.000  H
  H391     1.0000 0.10780  0.68940  0.79180  Biso   1.000  H
  H392     1.0000 0.05720  0.63900  0.84290  Biso   1.000  H
  H393     1.0000 0.17910  0.59840  0.91890  Biso   1.000  H
  H394     1.0000 0.23250  0.64970  0.87140  Biso   1.000  H
  H395     1.0000 0.10060  0.88380  0.84110  Biso   1.000  H
  H396     1.0000 0.13050  0.88140  0.89220  Biso   1.000  H
  H397     1.0000 0.11710  0.83140  0.86330  Biso   1.000  H
  H398     1.0000 0.12790  0.84110  0.56330  Biso   1.000  H
  H399     1.0000 0.17950  0.84000  0.56900  Biso   1.000  H
  H400     1.0000 0.62090  0.43960  0.26110  Biso   1.000  H
  H401     1.0000 0.65450  0.51880  0.26310  Biso   1.000  H
  H402     1.0000 0.72640  0.38830  0.34680  Biso   1.000  H
  H403     1.0000 0.76330  0.46640  0.35270  Biso   1.000  H
  H404     1.0000 0.77670  0.53960  0.23960  Biso   1.000  H
  H405     1.0000 0.72270  0.56160  0.22940  Biso   1.000  H
  H406     1.0000 0.66640  0.58860  0.30710  Biso   1.000  H
  H407     1.0000 0.68830  0.58210  0.36170  Biso   1.000  H
  H408     1.0000 0.77670  0.54630  0.37450  Biso   1.000  H
  H409     1.0000 0.80900  0.52890  0.32810  Biso   1.000  H
  H410     1.0000 0.65830  0.79780  0.26870  Biso   1.000  H
  H411     1.0000 0.64680  0.75060  0.23500  Biso   1.000  H
  H412     1.0000 0.60780  0.81060  0.20820  Biso   1.000  H
  H413     1.0000 0.55720  0.86100  0.15710  Biso   1.000  H
  H414     1.0000 0.67910  0.90160  0.08110  Biso   1.000  H
  H415     1.0000 0.73250  0.85030  0.12860  Biso   1.000  H
  H416     1.0000 0.60060  0.61620  0.15890  Biso   1.000  H
  H417     1.0000 0.63050  0.61860  0.10780  Biso   1.000  H
  H418     1.0000 0.61710  0.66860  0.13670  Biso   1.000  H
  H419     1.0000 0.62790  0.65890  0.43670  Biso   1.000  H
  H420     1.0000 0.67950  0.66000  0.43100  Biso   1.000  H
  H421     1.0000 0.23890  0.37910  0.93960  Biso   1.000  H
  H422     1.0000 0.23690  0.34550  0.01880  Biso   1.000  H
  H423     1.0000 0.15320  0.27360  0.88830  Biso   1.000  H
  H424     1.0000 0.14730  0.23670  0.96640  Biso   1.000  H
  H425     1.0000 0.26040  0.22330  0.03960  Biso   1.000  H
  H426     1.0000 0.27060  0.27730  0.06160  Biso   1.000  H
  H427     1.0000 0.19290  0.33360  0.08860  Biso   1.000  H
  H428     1.0000 0.13830  0.31170  0.08210  Biso   1.000  H
  H429     1.0000 0.12550  0.22330  0.04630  Biso   1.000  H
  H430     1.0000 0.17190  0.19100  0.02890  Biso   1.000  H
  H431     1.0000 0.23130  0.34170  0.29780  Biso   1.000  H
  H432     1.0000 0.26500  0.35320  0.25060  Biso   1.000  H
  H433     1.0000 0.29180  0.39220  0.31060  Biso   1.000  H
  H434     1.0000 0.34290  0.44280  0.36100  Biso   1.000  H
  H435     1.0000 0.41890  0.32090  0.40160  Biso   1.000  H
  H436     1.0000 0.37140  0.26750  0.35030  Biso   1.000  H
  H437     1.0000 0.34110  0.39940  0.11620  Biso   1.000  H
  H438     1.0000 0.39220  0.36950  0.11860  Biso   1.000  H
  H439     1.0000 0.36330  0.38290  0.16860  Biso   1.000  H
  H440     1.0000 0.06330  0.37210  0.15890  Biso   1.000  H
  H441     1.0000 0.06900  0.32050  0.16000  Biso   1.000  H
  H442     1.0000 0.76110  0.87910  0.56040  Biso   1.000  H
  H443     1.0000 0.76310  0.84550  0.48120  Biso   1.000  H
  H444     1.0000 0.84680  0.77360  0.61170  Biso   1.000  H
  H445     1.0000 0.85270  0.73670  0.53360  Biso   1.000  H
  H446     1.0000 0.73960  0.72330  0.46040  Biso   1.000  H
  H447     1.0000 0.72940  0.77730  0.43840  Biso   1.000  H
  H448     1.0000 0.80710  0.83360  0.41140  Biso   1.000  H
  H449     1.0000 0.86170  0.81170  0.41790  Biso   1.000  H
  H450     1.0000 0.87450  0.72330  0.45370  Biso   1.000  H
  H451     1.0000 0.82810  0.69100  0.47110  Biso   1.000  H
  H452     1.0000 0.76870  0.84170  0.20220  Biso   1.000  H
  H453     1.0000 0.73500  0.85320  0.24940  Biso   1.000  H
  H454     1.0000 0.70820  0.89220  0.18940  Biso   1.000  H
  H455     1.0000 0.65710  0.94280  0.13900  Biso   1.000  H
  H456     1.0000 0.58110  0.82090  0.09840  Biso   1.000  H
  H457     1.0000 0.62860  0.76750  0.14970  Biso   1.000  H
  H458     1.0000 0.65890  0.89940  0.38380  Biso   1.000  H
  H459     1.0000 0.60780  0.86950  0.38140  Biso   1.000  H
  H460     1.0000 0.63670  0.88290  0.33140  Biso   1.000  H
  H461     1.0000 0.93670  0.87210  0.34110  Biso   1.000  H
  H462     1.0000 0.93100  0.82050  0.34000  Biso   1.000  H
  H463     1.0000 0.73890  0.12090  0.06040  Biso   1.000  H
  H464     1.0000 0.73690  0.15450  0.98120  Biso   1.000  H
  H465     1.0000 0.65320  0.22640  0.11170  Biso   1.000  H
  H466     1.0000 0.64730  0.26330  0.03360  Biso   1.000  H
  H467     1.0000 0.76040  0.27670  0.96040  Biso   1.000  H
  H468     1.0000 0.77060  0.22270  0.93840  Biso   1.000  H
  H469     1.0000 0.69290  0.16640  0.91140  Biso   1.000  H
  H470     1.0000 0.63830  0.18830  0.91790  Biso   1.000  H
  H471     1.0000 0.62550  0.27670  0.95370  Biso   1.000  H
  H472     1.0000 0.67190  0.30900  0.97110  Biso   1.000  H
  H473     1.0000 0.73130  0.15830  0.70220  Biso   1.000  H
  H474     1.0000 0.76500  0.14680  0.74940  Biso   1.000  H
  H475     1.0000 0.79180  0.10780  0.68940  Biso   1.000  H
  H476     1.0000 0.84290  0.05720  0.63900  Biso   1.000  H
  H477     1.0000 0.91890  0.17910  0.59840  Biso   1.000  H
  H478     1.0000 0.87140  0.23250  0.64970  Biso   1.000  H
  H479     1.0000 0.84110  0.10060  0.88380  Biso   1.000  H
  H480     1.0000 0.89220  0.13050  0.88140  Biso   1.000  H
  H481     1.0000 0.86330  0.11710  0.83140  Biso   1.000  H
  H482     1.0000 0.56330  0.12790  0.84110  Biso   1.000  H
  H483     1.0000 0.56900  0.17950  0.84000  Biso   1.000  H
  H484     1.0000 0.26110  0.62090  0.43960  Biso   1.000  H
  H485     1.0000 0.26310  0.65450  0.51880  Biso   1.000  H
  H486     1.0000 0.34680  0.72640  0.38830  Biso   1.000  H
  H487     1.0000 0.35270  0.76330  0.46640  Biso   1.000  H
  H488     1.0000 0.23960  0.77670  0.53960  Biso   1.000  H
  H489     1.0000 0.22940  0.72270  0.56160  Biso   1.000  H
  H490     1.0000 0.30710  0.66640  0.58860  Biso   1.000  H
  H491     1.0000 0.36170  0.68830  0.58210  Biso   1.000  H
  H492     1.0000 0.37450  0.77670  0.54630  Biso   1.000  H
  H493     1.0000 0.32810  0.80900  0.52890  Biso   1.000  H
  H494     1.0000 0.26870  0.65830  0.79780  Biso   1.000  H
  H495     1.0000 0.23500  0.64680  0.75060  Biso   1.000  H
  H496     1.0000 0.20820  0.60780  0.81060  Biso   1.000  H
  H497     1.0000 0.15710  0.55720  0.86100  Biso   1.000  H
  H498     1.0000 0.08110  0.67910  0.90160  Biso   1.000  H
  H499     1.0000 0.12860  0.73250  0.85030  Biso   1.000  H
  H500     1.0000 0.15890  0.60060  0.61620  Biso   1.000  H
  H501     1.0000 0.10780  0.63050  0.61860  Biso   1.000  H
  H502     1.0000 0.13670  0.61710  0.66860  Biso   1.000  H
  H503     1.0000 0.43670  0.62790  0.65890  Biso   1.000  H
  H504     1.0000 0.43100  0.67950  0.66000  Biso   1.000  H
  C1       1.0000 0.05530  0.77910  0.65070  Biso   1.000  C
  C2       1.0000 0.00720  0.78030  0.67070  Biso   1.000  C
  C3       1.0000 0.08510  0.82900  0.71190  Biso   1.000  C
  C4       1.0000 0.03780  0.83270  0.73470  Biso   1.000  C
  C5       1.0000 0.99700  0.80680  0.71480  Biso   1.000  C
  C6       1.0000 0.94360  0.80640  0.73840  Biso   1.000  C
  C7       1.0000 0.93470  0.75000  0.75270  Biso   1.000  C
  C8       1.0000 0.90750  0.82750  0.69660  Biso   1.000  C
  C9       1.0000 0.94480  0.84030  0.78660  Biso   1.000  C
  C10      1.0000 0.73040  0.75100  0.67370  Biso   1.000  C
  C11      1.0000 0.67060  0.68140  0.62340  Biso   1.000  C
  C12      1.0000 0.64040  0.65140  0.59300  Biso   1.000  C
  C13      1.0000 0.61810  0.60780  0.66430  Biso   1.000  C
  C14      1.0000 0.64760  0.63610  0.69700  Biso   1.000  C
  C15      1.0000 0.86970  0.67000  0.67720  Biso   1.000  C
  C16      1.0000 0.86600  0.64050  0.62650  Biso   1.000  C
  C17      1.0000 0.89850  0.97220  0.76410  Biso   1.000  C
  C18      1.0000 0.44470  0.22090  0.15070  Biso   1.000  C
  C19      1.0000 0.49280  0.21970  0.17070  Biso   1.000  C
  C20      1.0000 0.41490  0.17100  0.21190  Biso   1.000  C
  C21      1.0000 0.46220  0.16730  0.23470  Biso   1.000  C
  C22      1.0000 0.50300  0.19320  0.21480  Biso   1.000  C
  C23      1.0000 0.55640  0.19360  0.23840  Biso   1.000  C
  C24      1.0000 0.56530  0.25000  0.25270  Biso   1.000  C
  C25      1.0000 0.59250  0.17250  0.19660  Biso   1.000  C
  C26      1.0000 0.55520  0.15970  0.28660  Biso   1.000  C
  C27      1.0000 0.76960  0.24900  0.17370  Biso   1.000  C
  C28      1.0000 0.82940  0.31860  0.12340  Biso   1.000  C
  C29      1.0000 0.85960  0.34860  0.09300  Biso   1.000  C
  C30      1.0000 0.88190  0.39220  0.16430  Biso   1.000  C
  C31      1.0000 0.85240  0.36390  0.19700  Biso   1.000  C
  C32      1.0000 0.63030  0.33000  0.17720  Biso   1.000  C
  C33      1.0000 0.63400  0.35950  0.12650  Biso   1.000  C
  C34      1.0000 0.60150  0.02780  0.26410  Biso   1.000  C
  C35      1.0000 0.94470  0.27910  0.84930  Biso   1.000  C
  C36      1.0000 0.99280  0.28030  0.82930  Biso   1.000  C
  C37      1.0000 0.91490  0.32900  0.78810  Biso   1.000  C
  C38      1.0000 0.96220  0.33270  0.76530  Biso   1.000  C
  C39      1.0000 0.00300  0.30680  0.78520  Biso   1.000  C
  C40      1.0000 0.05640  0.30640  0.76160  Biso   1.000  C
  C41      1.0000 0.06530  0.25000  0.74730  Biso   1.000  C
  C42      1.0000 0.09250  0.32750  0.80340  Biso   1.000  C
  C43      1.0000 0.05520  0.34030  0.71340  Biso   1.000  C
  C44      1.0000 0.26960  0.25100  0.82630  Biso   1.000  C
  C45      1.0000 0.32940  0.18140  0.87660  Biso   1.000  C
  C46      1.0000 0.35960  0.15140  0.90700  Biso   1.000  C
  C47      1.0000 0.38190  0.10780  0.83570  Biso   1.000  C
  C48      1.0000 0.35240  0.13610  0.80300  Biso   1.000  C
  C49      1.0000 0.13030  0.17000  0.82280  Biso   1.000  C
  C50      1.0000 0.13400  0.14050  0.87350  Biso   1.000  C
  C51      1.0000 0.10150  0.47220  0.73590  Biso   1.000  C
  C52      1.0000 0.55530  0.72090  0.34930  Biso   1.000  C
  C53      1.0000 0.50720  0.71970  0.32930  Biso   1.000  C
  C54      1.0000 0.58510  0.67100  0.28810  Biso   1.000  C
  C55      1.0000 0.53780  0.66730  0.26530  Biso   1.000  C
  C56      1.0000 0.49700  0.69320  0.28520  Biso   1.000  C
  C57      1.0000 0.44360  0.69360  0.26160  Biso   1.000  C
  C58      1.0000 0.43470  0.75000  0.24730  Biso   1.000  C
  C59      1.0000 0.40750  0.67250  0.30340  Biso   1.000  C
  C60      1.0000 0.44480  0.65970  0.21340  Biso   1.000  C
  C61      1.0000 0.23040  0.74900  0.32630  Biso   1.000  C
  C62      1.0000 0.17060  0.81860  0.37660  Biso   1.000  C
  C63      1.0000 0.14040  0.84860  0.40700  Biso   1.000  C
  C64      1.0000 0.11810  0.89220  0.33570  Biso   1.000  C
  C65      1.0000 0.14760  0.86390  0.30300  Biso   1.000  C
  C66      1.0000 0.36970  0.83000  0.32280  Biso   1.000  C
  C67      1.0000 0.36600  0.85950  0.37350  Biso   1.000  C
  C68      1.0000 0.39850  0.52780  0.23590  Biso   1.000  C
  C69      1.0000 0.65070  0.05530  0.77910  Biso   1.000  C
  C70      1.0000 0.67070  0.00720  0.78030  Biso   1.000  C
  C71      1.0000 0.71190  0.08510  0.82900  Biso   1.000  C
  C72      1.0000 0.73470  0.03780  0.83270  Biso   1.000  C
  C73      1.0000 0.71480  0.99700  0.80680  Biso   1.000  C
  C74      1.0000 0.73840  0.94360  0.80640  Biso   1.000  C
  C75      1.0000 0.75270  0.93470  0.75000  Biso   1.000  C
  C76      1.0000 0.69660  0.90750  0.82750  Biso   1.000  C
  C77      1.0000 0.78660  0.94480  0.84030  Biso   1.000  C
  C78      1.0000 0.67370  0.73040  0.75100  Biso   1.000  C
  C79      1.0000 0.62340  0.67060  0.68140  Biso   1.000  C
  C80      1.0000 0.59300  0.64040  0.65140  Biso   1.000  C
  C81      1.0000 0.66430  0.61810  0.60780  Biso   1.000  C
  C82      1.0000 0.69700  0.64760  0.63610  Biso   1.000  C
  C83      1.0000 0.67720  0.86970  0.67000  Biso   1.000  C
  C84      1.0000 0.62650  0.86600  0.64050  Biso   1.000  C
  C85      1.0000 0.76410  0.89850  0.97220  Biso   1.000  C
  C86      1.0000 0.15070  0.44470  0.22090  Biso   1.000  C
  C87      1.0000 0.17070  0.49280  0.21970  Biso   1.000  C
  C88      1.0000 0.21190  0.41490  0.17100  Biso   1.000  C
  C89      1.0000 0.23470  0.46220  0.16730  Biso   1.000  C
  C90      1.0000 0.21480  0.50300  0.19320  Biso   1.000  C
  C91      1.0000 0.23840  0.55640  0.19360  Biso   1.000  C
  C92      1.0000 0.25270  0.56530  0.25000  Biso   1.000  C
  C93      1.0000 0.19660  0.59250  0.17250  Biso   1.000  C
  C94      1.0000 0.28660  0.55520  0.15970  Biso   1.000  C
  C95      1.0000 0.17370  0.76960  0.24900  Biso   1.000  C
  C96      1.0000 0.12340  0.82940  0.31860  Biso   1.000  C
  C97      1.0000 0.09300  0.85960  0.34860  Biso   1.000  C
  C98      1.0000 0.16430  0.88190  0.39220  Biso   1.000  C
  C99      1.0000 0.19700  0.85240  0.36390  Biso   1.000  C
  C100     1.0000 0.17720  0.63030  0.33000  Biso   1.000  C
  C101     1.0000 0.12650  0.63400  0.35950  Biso   1.000  C
  C102     1.0000 0.26410  0.60150  0.02780  Biso   1.000  C
  C103     1.0000 0.84930  0.94470  0.27910  Biso   1.000  C
  C104     1.0000 0.82930  0.99280  0.28030  Biso   1.000  C
  C105     1.0000 0.78810  0.91490  0.32900  Biso   1.000  C
  C106     1.0000 0.76530  0.96220  0.33270  Biso   1.000  C
  C107     1.0000 0.78520  0.00300  0.30680  Biso   1.000  C
  C108     1.0000 0.76160  0.05640  0.30640  Biso   1.000  C
  C109     1.0000 0.74730  0.06530  0.25000  Biso   1.000  C
  C110     1.0000 0.80340  0.09250  0.32750  Biso   1.000  C
  C111     1.0000 0.71340  0.05520  0.34030  Biso   1.000  C
  C112     1.0000 0.82630  0.26960  0.25100  Biso   1.000  C
  C113     1.0000 0.87660  0.32940  0.18140  Biso   1.000  C
  C114     1.0000 0.90700  0.35960  0.15140  Biso   1.000  C
  C115     1.0000 0.83570  0.38190  0.10780  Biso   1.000  C
  C116     1.0000 0.80300  0.35240  0.13610  Biso   1.000  C
  C117     1.0000 0.82280  0.13030  0.17000  Biso   1.000  C
  C118     1.0000 0.87350  0.13400  0.14050  Biso   1.000  C
  C119     1.0000 0.73590  0.10150  0.47220  Biso   1.000  C
  C120     1.0000 0.34930  0.55530  0.72090  Biso   1.000  C
  C121     1.0000 0.32930  0.50720  0.71970  Biso   1.000  C
  C122     1.0000 0.28810  0.58510  0.67100  Biso   1.000  C
  C123     1.0000 0.26530  0.53780  0.66730  Biso   1.000  C
  C124     1.0000 0.28520  0.49700  0.69320  Biso   1.000  C
  C125     1.0000 0.26160  0.44360  0.69360  Biso   1.000  C
  C126     1.0000 0.24730  0.43470  0.75000  Biso   1.000  C
  C127     1.0000 0.30340  0.40750  0.67250  Biso   1.000  C
  C128     1.0000 0.21340  0.44480  0.65970  Biso   1.000  C
  C129     1.0000 0.32630  0.23040  0.74900  Biso   1.000  C
  C130     1.0000 0.37660  0.17060  0.81860  Biso   1.000  C
  C131     1.0000 0.40700  0.14040  0.84860  Biso   1.000  C
  C132     1.0000 0.33570  0.11810  0.89220  Biso   1.000  C
  C133     1.0000 0.30300  0.14760  0.86390  Biso   1.000  C
  C134     1.0000 0.32280  0.36970  0.83000  Biso   1.000  C
  C135     1.0000 0.37350  0.36600  0.85950  Biso   1.000  C
  C136     1.0000 0.23590  0.39850  0.52780  Biso   1.000  C
  C137     1.0000 0.77910  0.65070  0.05530  Biso   1.000  C
  C138     1.0000 0.78030  0.67070  0.00720  Biso   1.000  C
  C139     1.0000 0.82900  0.71190  0.08510  Biso   1.000  C
  C140     1.0000 0.83270  0.73470  0.03780  Biso   1.000  C
  C141     1.0000 0.80680  0.71480  0.99700  Biso   1.000  C
  C142     1.0000 0.80640  0.73840  0.94360  Biso   1.000  C
  C143     1.0000 0.75000  0.75270  0.93470  Biso   1.000  C
  C144     1.0000 0.82750  0.69660  0.90750  Biso   1.000  C
  C145     1.0000 0.84030  0.78660  0.94480  Biso   1.000  C
  C146     1.0000 0.75100  0.67370  0.73040  Biso   1.000  C
  C147     1.0000 0.68140  0.62340  0.67060  Biso   1.000  C
  C148     1.0000 0.65140  0.59300  0.64040  Biso   1.000  C
  C149     1.0000 0.60780  0.66430  0.61810  Biso   1.000  C
  C150     1.0000 0.63610  0.69700  0.64760  Biso   1.000  C
  C151     1.0000 0.67000  0.67720  0.86970  Biso   1.000  C
  C152     1.0000 0.64050  0.62650  0.86600  Biso   1.000  C
  C153     1.0000 0.97220  0.76410  0.89850  Biso   1.000  C
  C154     1.0000 0.22090  0.15070  0.44470  Biso   1.000  C
  C155     1.0000 0.21970  0.17070  0.49280  Biso   1.000  C
  C156     1.0000 0.17100  0.21190  0.41490  Biso   1.000  C
  C157     1.0000 0.16730  0.23470  0.46220  Biso   1.000  C
  C158     1.0000 0.19320  0.21480  0.50300  Biso   1.000  C
  C159     1.0000 0.19360  0.23840  0.55640  Biso   1.000  C
  C160     1.0000 0.25000  0.25270  0.56530  Biso   1.000  C
  C161     1.0000 0.17250  0.19660  0.59250  Biso   1.000  C
  C162     1.0000 0.15970  0.28660  0.55520  Biso   1.000  C
  C163     1.0000 0.24900  0.17370  0.76960  Biso   1.000  C
  C164     1.0000 0.31860  0.12340  0.82940  Biso   1.000  C
  C165     1.0000 0.34860  0.09300  0.85960  Biso   1.000  C
  C166     1.0000 0.39220  0.16430  0.88190  Biso   1.000  C
  C167     1.0000 0.36390  0.19700  0.85240  Biso   1.000  C
  C168     1.0000 0.33000  0.17720  0.63030  Biso   1.000  C
  C169     1.0000 0.35950  0.12650  0.63400  Biso   1.000  C
  C170     1.0000 0.02780  0.26410  0.60150  Biso   1.000  C
  C171     1.0000 0.27910  0.84930  0.94470  Biso   1.000  C
  C172     1.0000 0.28030  0.82930  0.99280  Biso   1.000  C
  C173     1.0000 0.32900  0.78810  0.91490  Biso   1.000  C
  C174     1.0000 0.33270  0.76530  0.96220  Biso   1.000  C
  C175     1.0000 0.30680  0.78520  0.00300  Biso   1.000  C
  C176     1.0000 0.30640  0.76160  0.05640  Biso   1.000  C
  C177     1.0000 0.25000  0.74730  0.06530  Biso   1.000  C
  C178     1.0000 0.32750  0.80340  0.09250  Biso   1.000  C
  C179     1.0000 0.34030  0.71340  0.05520  Biso   1.000  C
  C180     1.0000 0.25100  0.82630  0.26960  Biso   1.000  C
  C181     1.0000 0.18140  0.87660  0.32940  Biso   1.000  C
  C182     1.0000 0.15140  0.90700  0.35960  Biso   1.000  C
  C183     1.0000 0.10780  0.83570  0.38190  Biso   1.000  C
  C184     1.0000 0.13610  0.80300  0.35240  Biso   1.000  C
  C185     1.0000 0.17000  0.82280  0.13030  Biso   1.000  C
  C186     1.0000 0.14050  0.87350  0.13400  Biso   1.000  C
  C187     1.0000 0.47220  0.73590  0.10150  Biso   1.000  C
  C188     1.0000 0.72090  0.34930  0.55530  Biso   1.000  C
  C189     1.0000 0.71970  0.32930  0.50720  Biso   1.000  C
  C190     1.0000 0.67100  0.28810  0.58510  Biso   1.000  C
  C191     1.0000 0.66730  0.26530  0.53780  Biso   1.000  C
  C192     1.0000 0.69320  0.28520  0.49700  Biso   1.000  C
  C193     1.0000 0.69360  0.26160  0.44360  Biso   1.000  C
  C194     1.0000 0.75000  0.24730  0.43470  Biso   1.000  C
  C195     1.0000 0.67250  0.30340  0.40750  Biso   1.000  C
  C196     1.0000 0.65970  0.21340  0.44480  Biso   1.000  C
  C197     1.0000 0.74900  0.32630  0.23040  Biso   1.000  C
  C198     1.0000 0.81860  0.37660  0.17060  Biso   1.000  C
  C199     1.0000 0.84860  0.40700  0.14040  Biso   1.000  C
  C200     1.0000 0.89220  0.33570  0.11810  Biso   1.000  C
  C201     1.0000 0.86390  0.30300  0.14760  Biso   1.000  C
  C202     1.0000 0.83000  0.32280  0.36970  Biso   1.000  C
  C203     1.0000 0.85950  0.37350  0.36600  Biso   1.000  C
  C204     1.0000 0.52780  0.23590  0.39850  Biso   1.000  C
  C205     1.0000 0.94470  0.22090  0.34930  Biso   1.000  C
  C206     1.0000 0.99280  0.21970  0.32930  Biso   1.000  C
  C207     1.0000 0.91490  0.17100  0.28810  Biso   1.000  C
  C208     1.0000 0.96220  0.16730  0.26530  Biso   1.000  C
  C209     1.0000 0.00300  0.19320  0.28520  Biso   1.000  C
  C210     1.0000 0.05640  0.19360  0.26160  Biso   1.000  C
  C211     1.0000 0.06530  0.25000  0.24730  Biso   1.000  C
  C212     1.0000 0.09250  0.17250  0.30340  Biso   1.000  C
  C213     1.0000 0.05520  0.15970  0.21340  Biso   1.000  C
  C214     1.0000 0.26960  0.24900  0.32630  Biso   1.000  C
  C215     1.0000 0.32940  0.31860  0.37660  Biso   1.000  C
  C216     1.0000 0.35960  0.34860  0.40700  Biso   1.000  C
  C217     1.0000 0.38190  0.39220  0.33570  Biso   1.000  C
  C218     1.0000 0.35240  0.36390  0.30300  Biso   1.000  C
  C219     1.0000 0.13030  0.33000  0.32280  Biso   1.000  C
  C220     1.0000 0.13400  0.35950  0.37350  Biso   1.000  C
  C221     1.0000 0.10150  0.02780  0.23590  Biso   1.000  C
  C222     1.0000 0.55530  0.77910  0.84930  Biso   1.000  C
  C223     1.0000 0.50720  0.78030  0.82930  Biso   1.000  C
  C224     1.0000 0.58510  0.82900  0.78810  Biso   1.000  C
  C225     1.0000 0.53780  0.83270  0.76530  Biso   1.000  C
  C226     1.0000 0.49700  0.80680  0.78520  Biso   1.000  C
  C227     1.0000 0.44360  0.80640  0.76160  Biso   1.000  C
  C228     1.0000 0.43470  0.75000  0.74730  Biso   1.000  C
  C229     1.0000 0.40750  0.82750  0.80340  Biso   1.000  C
  C230     1.0000 0.44480  0.84030  0.71340  Biso   1.000  C
  C231     1.0000 0.23040  0.75100  0.82630  Biso   1.000  C
  C232     1.0000 0.17060  0.68140  0.87660  Biso   1.000  C
  C233     1.0000 0.14040  0.65140  0.90700  Biso   1.000  C
  C234     1.0000 0.11810  0.60780  0.83570  Biso   1.000  C
  C235     1.0000 0.14760  0.63610  0.80300  Biso   1.000  C
  C236     1.0000 0.36970  0.67000  0.82280  Biso   1.000  C
  C237     1.0000 0.36600  0.64050  0.87350  Biso   1.000  C
  C238     1.0000 0.39850  0.97220  0.73590  Biso   1.000  C
  C239     1.0000 0.05530  0.72090  0.15070  Biso   1.000  C
  C240     1.0000 0.00720  0.71970  0.17070  Biso   1.000  C
  C241     1.0000 0.08510  0.67100  0.21190  Biso   1.000  C
  C242     1.0000 0.03780  0.66730  0.23470  Biso   1.000  C
  C243     1.0000 0.99700  0.69320  0.21480  Biso   1.000  C
  C244     1.0000 0.94360  0.69360  0.23840  Biso   1.000  C
  C245     1.0000 0.93470  0.75000  0.25270  Biso   1.000  C
  C246     1.0000 0.90750  0.67250  0.19660  Biso   1.000  C
  C247     1.0000 0.94480  0.65970  0.28660  Biso   1.000  C
  C248     1.0000 0.73040  0.74900  0.17370  Biso   1.000  C
  C249     1.0000 0.67060  0.81860  0.12340  Biso   1.000  C
  C250     1.0000 0.64040  0.84860  0.09300  Biso   1.000  C
  C251     1.0000 0.61810  0.89220  0.16430  Biso   1.000  C
  C252     1.0000 0.64760  0.86390  0.19700  Biso   1.000  C
  C253     1.0000 0.86970  0.83000  0.17720  Biso   1.000  C
  C254     1.0000 0.86600  0.85950  0.12650  Biso   1.000  C
  C255     1.0000 0.89850  0.52780  0.26410  Biso   1.000  C
  C256     1.0000 0.44470  0.27910  0.65070  Biso   1.000  C
  C257     1.0000 0.49280  0.28030  0.67070  Biso   1.000  C
  C258     1.0000 0.41490  0.32900  0.71190  Biso   1.000  C
  C259     1.0000 0.46220  0.33270  0.73470  Biso   1.000  C
  C260     1.0000 0.50300  0.30680  0.71480  Biso   1.000  C
  C261     1.0000 0.55640  0.30640  0.73840  Biso   1.000  C
  C262     1.0000 0.56530  0.25000  0.75270  Biso   1.000  C
  C263     1.0000 0.59250  0.32750  0.69660  Biso   1.000  C
  C264     1.0000 0.55520  0.34030  0.78660  Biso   1.000  C
  C265     1.0000 0.76960  0.25100  0.67370  Biso   1.000  C
  C266     1.0000 0.82940  0.18140  0.62340  Biso   1.000  C
  C267     1.0000 0.85960  0.15140  0.59300  Biso   1.000  C
  C268     1.0000 0.88190  0.10780  0.66430  Biso   1.000  C
  C269     1.0000 0.85240  0.13610  0.69700  Biso   1.000  C
  C270     1.0000 0.63030  0.17000  0.67720  Biso   1.000  C
  C271     1.0000 0.63400  0.14050  0.62650  Biso   1.000  C
  C272     1.0000 0.60150  0.47220  0.76410  Biso   1.000  C
  C273     1.0000 0.34930  0.94470  0.22090  Biso   1.000  C
  C274     1.0000 0.32930  0.99280  0.21970  Biso   1.000  C
  C275     1.0000 0.28810  0.91490  0.17100  Biso   1.000  C
  C276     1.0000 0.26530  0.96220  0.16730  Biso   1.000  C
  C277     1.0000 0.28520  0.00300  0.19320  Biso   1.000  C
  C278     1.0000 0.26160  0.05640  0.19360  Biso   1.000  C
  C279     1.0000 0.24730  0.06530  0.25000  Biso   1.000  C
  C280     1.0000 0.30340  0.09250  0.17250  Biso   1.000  C
  C281     1.0000 0.21340  0.05520  0.15970  Biso   1.000  C
  C282     1.0000 0.32630  0.26960  0.24900  Biso   1.000  C
  C283     1.0000 0.37660  0.32940  0.31860  Biso   1.000  C
  C284     1.0000 0.40700  0.35960  0.34860  Biso   1.000  C
  C285     1.0000 0.33570  0.38190  0.39220  Biso   1.000  C
  C286     1.0000 0.30300  0.35240  0.36390  Biso   1.000  C
  C287     1.0000 0.32280  0.13030  0.33000  Biso   1.000  C
  C288     1.0000 0.37350  0.13400  0.35950  Biso   1.000  C
  C289     1.0000 0.23590  0.10150  0.02780  Biso   1.000  C
  C290     1.0000 0.84930  0.55530  0.77910  Biso   1.000  C
  C291     1.0000 0.82930  0.50720  0.78030  Biso   1.000  C
  C292     1.0000 0.78810  0.58510  0.82900  Biso   1.000  C
  C293     1.0000 0.76530  0.53780  0.83270  Biso   1.000  C
  C294     1.0000 0.78520  0.49700  0.80680  Biso   1.000  C
  C295     1.0000 0.76160  0.44360  0.80640  Biso   1.000  C
  C296     1.0000 0.74730  0.43470  0.75000  Biso   1.000  C
  C297     1.0000 0.80340  0.40750  0.82750  Biso   1.000  C
  C298     1.0000 0.71340  0.44480  0.84030  Biso   1.000  C
  C299     1.0000 0.82630  0.23040  0.75100  Biso   1.000  C
  C300     1.0000 0.87660  0.17060  0.68140  Biso   1.000  C
  C301     1.0000 0.90700  0.14040  0.65140  Biso   1.000  C
  C302     1.0000 0.83570  0.11810  0.60780  Biso   1.000  C
  C303     1.0000 0.80300  0.14760  0.63610  Biso   1.000  C
  C304     1.0000 0.82280  0.36970  0.67000  Biso   1.000  C
  C305     1.0000 0.87350  0.36600  0.64050  Biso   1.000  C
  C306     1.0000 0.73590  0.39850  0.97220  Biso   1.000  C
  C307     1.0000 0.15070  0.05530  0.72090  Biso   1.000  C
  C308     1.0000 0.17070  0.00720  0.71970  Biso   1.000  C
  C309     1.0000 0.21190  0.08510  0.67100  Biso   1.000  C
  C310     1.0000 0.23470  0.03780  0.66730  Biso   1.000  C
  C311     1.0000 0.21480  0.99700  0.69320  Biso   1.000  C
  C312     1.0000 0.23840  0.94360  0.69360  Biso   1.000  C
  C313     1.0000 0.25270  0.93470  0.75000  Biso   1.000  C
  C314     1.0000 0.19660  0.90750  0.67250  Biso   1.000  C
  C315     1.0000 0.28660  0.94480  0.65970  Biso   1.000  C
  C316     1.0000 0.17370  0.73040  0.74900  Biso   1.000  C
  C317     1.0000 0.12340  0.67060  0.81860  Biso   1.000  C
  C318     1.0000 0.09300  0.64040  0.84860  Biso   1.000  C
  C319     1.0000 0.16430  0.61810  0.89220  Biso   1.000  C
  C320     1.0000 0.19700  0.64760  0.86390  Biso   1.000  C
  C321     1.0000 0.17720  0.86970  0.83000  Biso   1.000  C
  C322     1.0000 0.12650  0.86600  0.85950  Biso   1.000  C
  C323     1.0000 0.26410  0.89850  0.52780  Biso   1.000  C
  C324     1.0000 0.65070  0.44470  0.27910  Biso   1.000  C
  C325     1.0000 0.67070  0.49280  0.28030  Biso   1.000  C
  C326     1.0000 0.71190  0.41490  0.32900  Biso   1.000  C
  C327     1.0000 0.73470  0.46220  0.33270  Biso   1.000  C
  C328     1.0000 0.71480  0.50300  0.30680  Biso   1.000  C
  C329     1.0000 0.73840  0.55640  0.30640  Biso   1.000  C
  C330     1.0000 0.75270  0.56530  0.25000  Biso   1.000  C
  C331     1.0000 0.69660  0.59250  0.32750  Biso   1.000  C
  C332     1.0000 0.78660  0.55520  0.34030  Biso   1.000  C
  C333     1.0000 0.67370  0.76960  0.25100  Biso   1.000  C
  C334     1.0000 0.62340  0.82940  0.18140  Biso   1.000  C
  C335     1.0000 0.59300  0.85960  0.15140  Biso   1.000  C
  C336     1.0000 0.66430  0.88190  0.10780  Biso   1.000  C
  C337     1.0000 0.69700  0.85240  0.13610  Biso   1.000  C
  C338     1.0000 0.67720  0.63030  0.17000  Biso   1.000  C
  C339     1.0000 0.62650  0.63400  0.14050  Biso   1.000  C
  C340     1.0000 0.76410  0.60150  0.47220  Biso   1.000  C
  C341     1.0000 0.22090  0.34930  0.94470  Biso   1.000  C
  C342     1.0000 0.21970  0.32930  0.99280  Biso   1.000  C
  C343     1.0000 0.17100  0.28810  0.91490  Biso   1.000  C
  C344     1.0000 0.16730  0.26530  0.96220  Biso   1.000  C
  C345     1.0000 0.19320  0.28520  0.00300  Biso   1.000  C
  C346     1.0000 0.19360  0.26160  0.05640  Biso   1.000  C
  C347     1.0000 0.25000  0.24730  0.06530  Biso   1.000  C
  C348     1.0000 0.17250  0.30340  0.09250  Biso   1.000  C
  C349     1.0000 0.15970  0.21340  0.05520  Biso   1.000  C
  C350     1.0000 0.24900  0.32630  0.26960  Biso   1.000  C
  C351     1.0000 0.31860  0.37660  0.32940  Biso   1.000  C
  C352     1.0000 0.34860  0.40700  0.35960  Biso   1.000  C
  C353     1.0000 0.39220  0.33570  0.38190  Biso   1.000  C
  C354     1.0000 0.36390  0.30300  0.35240  Biso   1.000  C
  C355     1.0000 0.33000  0.32280  0.13030  Biso   1.000  C
  C356     1.0000 0.35950  0.37350  0.13400  Biso   1.000  C
  C357     1.0000 0.02780  0.23590  0.10150  Biso   1.000  C
  C358     1.0000 0.77910  0.84930  0.55530  Biso   1.000  C
  C359     1.0000 0.78030  0.82930  0.50720  Biso   1.000  C
  C360     1.0000 0.82900  0.78810  0.58510  Biso   1.000  C
  C361     1.0000 0.83270  0.76530  0.53780  Biso   1.000  C
  C362     1.0000 0.80680  0.78520  0.49700  Biso   1.000  C
  C363     1.0000 0.80640  0.76160  0.44360  Biso   1.000  C
  C364     1.0000 0.75000  0.74730  0.43470  Biso   1.000  C
  C365     1.0000 0.82750  0.80340  0.40750  Biso   1.000  C
  C366     1.0000 0.84030  0.71340  0.44480  Biso   1.000  C
  C367     1.0000 0.75100  0.82630  0.23040  Biso   1.000  C
  C368     1.0000 0.68140  0.87660  0.17060  Biso   1.000  C
  C369     1.0000 0.65140  0.90700  0.14040  Biso   1.000  C
  C370     1.0000 0.60780  0.83570  0.11810  Biso   1.000  C
  C371     1.0000 0.63610  0.80300  0.14760  Biso   1.000  C
  C372     1.0000 0.67000  0.82280  0.36970  Biso   1.000  C
  C373     1.0000 0.64050  0.87350  0.36600  Biso   1.000  C
  C374     1.0000 0.97220  0.73590  0.39850  Biso   1.000  C
  C375     1.0000 0.72090  0.15070  0.05530  Biso   1.000  C
  C376     1.0000 0.71970  0.17070  0.00720  Biso   1.000  C
  C377     1.0000 0.67100  0.21190  0.08510  Biso   1.000  C
  C378     1.0000 0.66730  0.23470  0.03780  Biso   1.000  C
  C379     1.0000 0.69320  0.21480  0.99700  Biso   1.000  C
  C380     1.0000 0.69360  0.23840  0.94360  Biso   1.000  C
  C381     1.0000 0.75000  0.25270  0.93470  Biso   1.000  C
  C382     1.0000 0.67250  0.19660  0.90750  Biso   1.000  C
  C383     1.0000 0.65970  0.28660  0.94480  Biso   1.000  C
  C384     1.0000 0.74900  0.17370  0.73040  Biso   1.000  C
  C385     1.0000 0.81860  0.12340  0.67060  Biso   1.000  C
  C386     1.0000 0.84860  0.09300  0.64040  Biso   1.000  C
  C387     1.0000 0.89220  0.16430  0.61810  Biso   1.000  C
  C388     1.0000 0.86390  0.19700  0.64760  Biso   1.000  C
  C389     1.0000 0.83000  0.17720  0.86970  Biso   1.000  C
  C390     1.0000 0.85950  0.12650  0.86600  Biso   1.000  C
  C391     1.0000 0.52780  0.26410  0.89850  Biso   1.000  C
  C392     1.0000 0.27910  0.65070  0.44470  Biso   1.000  C
  C393     1.0000 0.28030  0.67070  0.49280  Biso   1.000  C
  C394     1.0000 0.32900  0.71190  0.41490  Biso   1.000  C
  C395     1.0000 0.33270  0.73470  0.46220  Biso   1.000  C
  C396     1.0000 0.30680  0.71480  0.50300  Biso   1.000  C
  C397     1.0000 0.30640  0.73840  0.55640  Biso   1.000  C
  C398     1.0000 0.25000  0.75270  0.56530  Biso   1.000  C
  C399     1.0000 0.32750  0.69660  0.59250  Biso   1.000  C
  C400     1.0000 0.34030  0.78660  0.55520  Biso   1.000  C
  C401     1.0000 0.25100  0.67370  0.76960  Biso   1.000  C
  C402     1.0000 0.18140  0.62340  0.82940  Biso   1.000  C
  C403     1.0000 0.15140  0.59300  0.85960  Biso   1.000  C
  C404     1.0000 0.10780  0.66430  0.88190  Biso   1.000  C
  C405     1.0000 0.13610  0.69700  0.85240  Biso   1.000  C
  C406     1.0000 0.17000  0.67720  0.63030  Biso   1.000  C
  C407     1.0000 0.14050  0.62650  0.63400  Biso   1.000  C
  C408     1.0000 0.47220  0.76410  0.60150  Biso   1.000  C
  C409     1.0000 0.70920  0.70920  0.70920  Biso   1.000  C
  C410     1.0000 0.67530  0.67530  0.67530  Biso   1.000  C
  C411     1.0000 0.79080  0.29080  0.20920  Biso   1.000  C
  C412     1.0000 0.82470  0.32470  0.17530  Biso   1.000  C
  C413     1.0000 0.29080  0.20920  0.79080  Biso   1.000  C
  C414     1.0000 0.32470  0.17530  0.82470  Biso   1.000  C
  C415     1.0000 0.20920  0.79080  0.29080  Biso   1.000  C
  C416     1.0000 0.17530  0.82470  0.32470  Biso   1.000  C
  C417     1.0000 0.29080  0.29080  0.29080  Biso   1.000  C
  C418     1.0000 0.32470  0.32470  0.32470  Biso   1.000  C
  C419     1.0000 0.20920  0.70920  0.79080  Biso   1.000  C
  C420     1.0000 0.17530  0.67530  0.82470  Biso   1.000  C
  C421     1.0000 0.70920  0.79080  0.20920  Biso   1.000  C
  C422     1.0000 0.67530  0.82470  0.17530  Biso   1.000  C
  C423     1.0000 0.79080  0.20920  0.70920  Biso   1.000  C
  C424     1.0000 0.82470  0.17530  0.67530  Biso   1.000  C
  N1       1.0000 0.09450  0.80190  0.67130  Biso   1.000  N
  N2       1.0000 0.40550  0.19810  0.17130  Biso   1.000  N
  N3       1.0000 0.90550  0.30190  0.82870  Biso   1.000  N
  N4       1.0000 0.59450  0.69810  0.32870  Biso   1.000  N
  N5       1.0000 0.67130  0.09450  0.80190  Biso   1.000  N
  N6       1.0000 0.17130  0.40550  0.19810  Biso   1.000  N
  N7       1.0000 0.82870  0.90550  0.30190  Biso   1.000  N
  N8       1.0000 0.32870  0.59450  0.69810  Biso   1.000  N
  N9       1.0000 0.80190  0.67130  0.09450  Biso   1.000  N
  N10      1.0000 0.19810  0.17130  0.40550  Biso   1.000  N
  N11      1.0000 0.30190  0.82870  0.90550  Biso   1.000  N
  N12      1.0000 0.69810  0.32870  0.59450  Biso   1.000  N
  N13      1.0000 0.90550  0.19810  0.32870  Biso   1.000  N
  N14      1.0000 0.59450  0.80190  0.82870  Biso   1.000  N
  N15      1.0000 0.09450  0.69810  0.17130  Biso   1.000  N
  N16      1.0000 0.40550  0.30190  0.67130  Biso   1.000  N
  N17      1.0000 0.32870  0.90550  0.19810  Biso   1.000  N
  N18      1.0000 0.82870  0.59450  0.80190  Biso   1.000  N
  N19      1.0000 0.17130  0.09450  0.69810  Biso   1.000  N
  N20      1.0000 0.67130  0.40550  0.30190  Biso   1.000  N
  N21      1.0000 0.19810  0.32870  0.90550  Biso   1.000  N
  N22      1.0000 0.80190  0.82870  0.59450  Biso   1.000  N
  N23      1.0000 0.69810  0.17130  0.09450  Biso   1.000  N
  N24      1.0000 0.30190  0.67130  0.40550  Biso   1.000  N
  N25      1.0000 0.61400  0.61400  0.61400  Biso   1.000  N
  N26      1.0000 0.88600  0.38600  0.11400  Biso   1.000  N
  N27      1.0000 0.38600  0.11400  0.88600  Biso   1.000  N
  N28      1.0000 0.11400  0.88600  0.38600  Biso   1.000  N
  N29      1.0000 0.38600  0.38600  0.38600  Biso   1.000  N
  N30      1.0000 0.11400  0.61400  0.88600  Biso   1.000  N
  N31      1.0000 0.61400  0.88600  0.11400  Biso   1.000  N
  N32      1.0000 0.88600  0.11400  0.61400  Biso   1.000  N
  O1       1.0000 0.88611  0.74095  0.77425  Biso   1.000  O
  O2       1.0000 0.85574  0.82812  0.71058  Biso   1.000  O
  O3       1.0000 0.89845  0.84167  0.81346  Biso   1.000  O
  O4       1.0000 0.76193  0.78674  0.69832  Biso   1.000  O
  O5       1.0000 0.85150  0.71420  0.67360  Biso   1.000  O
  O6       1.0000 0.87740  0.64610  0.71710  Biso   1.000  O
  O7       1.0000 0.82710  0.92350  0.65230  Biso   1.000  O
  O8       1.0000 0.86950  0.92940  0.74250  Biso   1.000  O
  O9       1.0000 0.91750  0.94500  0.86850  Biso   1.000  O
  O10      1.0000 0.61389  0.25905  0.27425  Biso   1.000  O
  O11      1.0000 0.64426  0.17188  0.21058  Biso   1.000  O
  O12      1.0000 0.60155  0.15833  0.31346  Biso   1.000  O
  O13      1.0000 0.73807  0.21326  0.19832  Biso   1.000  O
  O14      1.0000 0.64850  0.28580  0.17360  Biso   1.000  O
  O15      1.0000 0.62260  0.35390  0.21710  Biso   1.000  O
  O16      1.0000 0.67290  0.07650  0.15230  Biso   1.000  O
  O17      1.0000 0.63050  0.07060  0.24250  Biso   1.000  O
  O18      1.0000 0.58250  0.05500  0.36850  Biso   1.000  O
  O19      1.0000 0.11389  0.24095  0.72575  Biso   1.000  O
  O20      1.0000 0.14426  0.32812  0.78942  Biso   1.000  O
  O21      1.0000 0.10155  0.34167  0.68654  Biso   1.000  O
  O22      1.0000 0.23807  0.28674  0.80168  Biso   1.000  O
  O23      1.0000 0.14850  0.21420  0.82640  Biso   1.000  O
  O24      1.0000 0.12260  0.14610  0.78290  Biso   1.000  O
  O25      1.0000 0.17290  0.42350  0.84770  Biso   1.000  O
  O26      1.0000 0.13050  0.42940  0.75750  Biso   1.000  O
  O27      1.0000 0.08250  0.44500  0.63150  Biso   1.000  O
  O28      1.0000 0.38611  0.75905  0.22575  Biso   1.000  O
  O29      1.0000 0.35574  0.67188  0.28942  Biso   1.000  O
  O30      1.0000 0.39845  0.65833  0.18654  Biso   1.000  O
  O31      1.0000 0.26193  0.71326  0.30168  Biso   1.000  O
  O32      1.0000 0.35150  0.78580  0.32640  Biso   1.000  O
  O33      1.0000 0.37740  0.85390  0.28290  Biso   1.000  O
  O34      1.0000 0.32710  0.57650  0.34770  Biso   1.000  O
  O35      1.0000 0.36950  0.57060  0.25750  Biso   1.000  O
  O36      1.0000 0.41750  0.55500  0.13150  Biso   1.000  O
  O37      1.0000 0.77425  0.88611  0.74095  Biso   1.000  O
  O38      1.0000 0.71058  0.85574  0.82812  Biso   1.000  O
  O39      1.0000 0.81346  0.89845  0.84167  Biso   1.000  O
  O40      1.0000 0.69832  0.76193  0.78674  Biso   1.000  O
  O41      1.0000 0.67360  0.85150  0.71420  Biso   1.000  O
  O42      1.0000 0.71710  0.87740  0.64610  Biso   1.000  O
  O43      1.0000 0.65230  0.82710  0.92350  Biso   1.000  O
  O44      1.0000 0.74250  0.86950  0.92940  Biso   1.000  O
  O45      1.0000 0.86850  0.91750  0.94500  Biso   1.000  O
  O46      1.0000 0.27425  0.61389  0.25905  Biso   1.000  O
  O47      1.0000 0.21058  0.64426  0.17188  Biso   1.000  O
  O48      1.0000 0.31346  0.60155  0.15833  Biso   1.000  O
  O49      1.0000 0.19832  0.73807  0.21326  Biso   1.000  O
  O50      1.0000 0.17360  0.64850  0.28580  Biso   1.000  O
  O51      1.0000 0.21710  0.62260  0.35390  Biso   1.000  O
  O52      1.0000 0.15230  0.67290  0.07650  Biso   1.000  O
  O53      1.0000 0.24250  0.63050  0.07060  Biso   1.000  O
  O54      1.0000 0.36850  0.58250  0.05500  Biso   1.000  O
  O55      1.0000 0.72575  0.11389  0.24095  Biso   1.000  O
  O56      1.0000 0.78942  0.14426  0.32812  Biso   1.000  O
  O57      1.0000 0.68654  0.10155  0.34167  Biso   1.000  O
  O58      1.0000 0.80168  0.23807  0.28674  Biso   1.000  O
  O59      1.0000 0.82640  0.14850  0.21420  Biso   1.000  O
  O60      1.0000 0.78290  0.12260  0.14610  Biso   1.000  O
  O61      1.0000 0.84770  0.17290  0.42350  Biso   1.000  O
  O62      1.0000 0.75750  0.13050  0.42940  Biso   1.000  O
  O63      1.0000 0.63150  0.08250  0.44500  Biso   1.000  O
  O64      1.0000 0.22575  0.38611  0.75905  Biso   1.000  O
  O65      1.0000 0.28942  0.35574  0.67188  Biso   1.000  O
  O66      1.0000 0.18654  0.39845  0.65833  Biso   1.000  O
  O67      1.0000 0.30168  0.26193  0.71326  Biso   1.000  O
  O68      1.0000 0.32640  0.35150  0.78580  Biso   1.000  O
  O69      1.0000 0.28290  0.37740  0.85390  Biso   1.000  O
  O70      1.0000 0.34770  0.32710  0.57650  Biso   1.000  O
  O71      1.0000 0.25750  0.36950  0.57060  Biso   1.000  O
  O72      1.0000 0.13150  0.41750  0.55500  Biso   1.000  O
  O73      1.0000 0.74095  0.77425  0.88611  Biso   1.000  O
  O74      1.0000 0.82812  0.71058  0.85574  Biso   1.000  O
  O75      1.0000 0.84167  0.81346  0.89845  Biso   1.000  O
  O76      1.0000 0.78674  0.69832  0.76193  Biso   1.000  O
  O77      1.0000 0.71420  0.67360  0.85150  Biso   1.000  O
  O78      1.0000 0.64610  0.71710  0.87740  Biso   1.000  O
  O79      1.0000 0.92350  0.65230  0.82710  Biso   1.000  O
  O80      1.0000 0.92940  0.74250  0.86950  Biso   1.000  O
  O81      1.0000 0.94500  0.86850  0.91750  Biso   1.000  O
  O82      1.0000 0.25905  0.27425  0.61389  Biso   1.000  O
  O83      1.0000 0.17188  0.21058  0.64426  Biso   1.000  O
  O84      1.0000 0.15833  0.31346  0.60155  Biso   1.000  O
  O85      1.0000 0.21326  0.19832  0.73807  Biso   1.000  O
  O86      1.0000 0.28580  0.17360  0.64850  Biso   1.000  O
  O87      1.0000 0.35390  0.21710  0.62260  Biso   1.000  O
  O88      1.0000 0.07650  0.15230  0.67290  Biso   1.000  O
  O89      1.0000 0.07060  0.24250  0.63050  Biso   1.000  O
  O90      1.0000 0.05500  0.36850  0.58250  Biso   1.000  O
  O91      1.0000 0.24095  0.72575  0.11389  Biso   1.000  O
  O92      1.0000 0.32812  0.78942  0.14426  Biso   1.000  O
  O93      1.0000 0.34167  0.68654  0.10155  Biso   1.000  O
  O94      1.0000 0.28674  0.80168  0.23807  Biso   1.000  O
  O95      1.0000 0.21420  0.82640  0.14850  Biso   1.000  O
  O96      1.0000 0.14610  0.78290  0.12260  Biso   1.000  O
  O97      1.0000 0.42350  0.84770  0.17290  Biso   1.000  O
  O98      1.0000 0.42940  0.75750  0.13050  Biso   1.000  O
  O99      1.0000 0.44500  0.63150  0.08250  Biso   1.000  O
  O100     1.0000 0.75905  0.22575  0.38611  Biso   1.000  O
  O101     1.0000 0.67188  0.28942  0.35574  Biso   1.000  O
  O102     1.0000 0.65833  0.18654  0.39845  Biso   1.000  O
  O103     1.0000 0.71326  0.30168  0.26193  Biso   1.000  O
  O104     1.0000 0.78580  0.32640  0.35150  Biso   1.000  O
  O105     1.0000 0.85390  0.28290  0.37740  Biso   1.000  O
  O106     1.0000 0.57650  0.34770  0.32710  Biso   1.000  O
  O107     1.0000 0.57060  0.25750  0.36950  Biso   1.000  O
  O108     1.0000 0.55500  0.13150  0.41750  Biso   1.000  O
  O109     1.0000 0.11389  0.25905  0.22575  Biso   1.000  O
  O110     1.0000 0.14426  0.17188  0.28942  Biso   1.000  O
  O111     1.0000 0.10155  0.15833  0.18654  Biso   1.000  O
  O112     1.0000 0.23807  0.21326  0.30168  Biso   1.000  O
  O113     1.0000 0.14850  0.28580  0.32640  Biso   1.000  O
  O114     1.0000 0.12260  0.35390  0.28290  Biso   1.000  O
  O115     1.0000 0.17290  0.07650  0.34770  Biso   1.000  O
  O116     1.0000 0.13050  0.07060  0.25750  Biso   1.000  O
  O117     1.0000 0.08250  0.05500  0.13150  Biso   1.000  O
  O118     1.0000 0.38611  0.74095  0.72575  Biso   1.000  O
  O119     1.0000 0.35574  0.82812  0.78942  Biso   1.000  O
  O120     1.0000 0.39845  0.84167  0.68654  Biso   1.000  O
  O121     1.0000 0.26193  0.78674  0.80168  Biso   1.000  O
  O122     1.0000 0.35150  0.71420  0.82640  Biso   1.000  O
  O123     1.0000 0.37740  0.64610  0.78290  Biso   1.000  O
  O124     1.0000 0.32710  0.92350  0.84770  Biso   1.000  O
  O125     1.0000 0.36950  0.92940  0.75750  Biso   1.000  O
  O126     1.0000 0.41750  0.94500  0.63150  Biso   1.000  O
  O127     1.0000 0.88611  0.75905  0.27425  Biso   1.000  O
  O128     1.0000 0.85574  0.67188  0.21058  Biso   1.000  O
  O129     1.0000 0.89845  0.65833  0.31346  Biso   1.000  O
  O130     1.0000 0.76193  0.71326  0.19832  Biso   1.000  O
  O131     1.0000 0.85150  0.78580  0.17360  Biso   1.000  O
  O132     1.0000 0.87740  0.85390  0.21710  Biso   1.000  O
  O133     1.0000 0.82710  0.57650  0.15230  Biso   1.000  O
  O134     1.0000 0.86950  0.57060  0.24250  Biso   1.000  O
  O135     1.0000 0.91750  0.55500  0.36850  Biso   1.000  O
  O136     1.0000 0.61389  0.24095  0.77425  Biso   1.000  O
  O137     1.0000 0.64426  0.32812  0.71058  Biso   1.000  O
  O138     1.0000 0.60155  0.34167  0.81346  Biso   1.000  O
  O139     1.0000 0.73807  0.28674  0.69832  Biso   1.000  O
  O140     1.0000 0.64850  0.21420  0.67360  Biso   1.000  O
  O141     1.0000 0.62260  0.14610  0.71710  Biso   1.000  O
  O142     1.0000 0.67290  0.42350  0.65230  Biso   1.000  O
  O143     1.0000 0.63050  0.42940  0.74250  Biso   1.000  O
  O144     1.0000 0.58250  0.44500  0.86850  Biso   1.000  O
  O145     1.0000 0.22575  0.11389  0.25905  Biso   1.000  O
  O146     1.0000 0.28942  0.14426  0.17188  Biso   1.000  O
  O147     1.0000 0.18654  0.10155  0.15833  Biso   1.000  O
  O148     1.0000 0.30168  0.23807  0.21326  Biso   1.000  O
  O149     1.0000 0.32640  0.14850  0.28580  Biso   1.000  O
  O150     1.0000 0.28290  0.12260  0.35390  Biso   1.000  O
  O151     1.0000 0.34770  0.17290  0.07650  Biso   1.000  O
  O152     1.0000 0.25750  0.13050  0.07060  Biso   1.000  O
  O153     1.0000 0.13150  0.08250  0.05500  Biso   1.000  O
  O154     1.0000 0.72575  0.38611  0.74095  Biso   1.000  O
  O155     1.0000 0.78942  0.35574  0.82812  Biso   1.000  O
  O156     1.0000 0.68654  0.39845  0.84167  Biso   1.000  O
  O157     1.0000 0.80168  0.26193  0.78674  Biso   1.000  O
  O158     1.0000 0.82640  0.35150  0.71420  Biso   1.000  O
  O159     1.0000 0.78290  0.37740  0.64610  Biso   1.000  O
  O160     1.0000 0.84770  0.32710  0.92350  Biso   1.000  O
  O161     1.0000 0.75750  0.36950  0.92940  Biso   1.000  O
  O162     1.0000 0.63150  0.41750  0.94500  Biso   1.000  O
  O163     1.0000 0.27425  0.88611  0.75905  Biso   1.000  O
  O164     1.0000 0.21058  0.85574  0.67188  Biso   1.000  O
  O165     1.0000 0.31346  0.89845  0.65833  Biso   1.000  O
  O166     1.0000 0.19832  0.76193  0.71326  Biso   1.000  O
  O167     1.0000 0.17360  0.85150  0.78580  Biso   1.000  O
  O168     1.0000 0.21710  0.87740  0.85390  Biso   1.000  O
  O169     1.0000 0.15230  0.82710  0.57650  Biso   1.000  O
  O170     1.0000 0.24250  0.86950  0.57060  Biso   1.000  O
  O171     1.0000 0.36850  0.91750  0.55500  Biso   1.000  O
  O172     1.0000 0.77425  0.61389  0.24095  Biso   1.000  O
  O173     1.0000 0.71058  0.64426  0.32812  Biso   1.000  O
  O174     1.0000 0.81346  0.60155  0.34167  Biso   1.000  O
  O175     1.0000 0.69832  0.73807  0.28674  Biso   1.000  O
  O176     1.0000 0.67360  0.64850  0.21420  Biso   1.000  O
  O177     1.0000 0.71710  0.62260  0.14610  Biso   1.000  O
  O178     1.0000 0.65230  0.67290  0.42350  Biso   1.000  O
  O179     1.0000 0.74250  0.63050  0.42940  Biso   1.000  O
  O180     1.0000 0.86850  0.58250  0.44500  Biso   1.000  O
  O181     1.0000 0.25905  0.22575  0.11389  Biso   1.000  O
  O182     1.0000 0.17188  0.28942  0.14426  Biso   1.000  O
  O183     1.0000 0.15833  0.18654  0.10155  Biso   1.000  O
  O184     1.0000 0.21326  0.30168  0.23807  Biso   1.000  O
  O185     1.0000 0.28580  0.32640  0.14850  Biso   1.000  O
  O186     1.0000 0.35390  0.28290  0.12260  Biso   1.000  O
  O187     1.0000 0.07650  0.34770  0.17290  Biso   1.000  O
  O188     1.0000 0.07060  0.25750  0.13050  Biso   1.000  O
  O189     1.0000 0.05500  0.13150  0.08250  Biso   1.000  O
  O190     1.0000 0.74095  0.72575  0.38611  Biso   1.000  O
  O191     1.0000 0.82812  0.78942  0.35574  Biso   1.000  O
  O192     1.0000 0.84167  0.68654  0.39845  Biso   1.000  O
  O193     1.0000 0.78674  0.80168  0.26193  Biso   1.000  O
  O194     1.0000 0.71420  0.82640  0.35150  Biso   1.000  O
  O195     1.0000 0.64610  0.78290  0.37740  Biso   1.000  O
  O196     1.0000 0.92350  0.84770  0.32710  Biso   1.000  O
  O197     1.0000 0.92940  0.75750  0.36950  Biso   1.000  O
  O198     1.0000 0.94500  0.63150  0.41750  Biso   1.000  O
  O199     1.0000 0.75905  0.27425  0.88611  Biso   1.000  O
  O200     1.0000 0.67188  0.21058  0.85574  Biso   1.000  O
  O201     1.0000 0.65833  0.31346  0.89845  Biso   1.000  O
  O202     1.0000 0.71326  0.19832  0.76193  Biso   1.000  O
  O203     1.0000 0.78580  0.17360  0.85150  Biso   1.000  O
  O204     1.0000 0.85390  0.21710  0.87740  Biso   1.000  O
  O205     1.0000 0.57650  0.15230  0.82710  Biso   1.000  O
  O206     1.0000 0.57060  0.24250  0.86950  Biso   1.000  O
  O207     1.0000 0.55500  0.36850  0.91750  Biso   1.000  O
  O208     1.0000 0.24095  0.77425  0.61389  Biso   1.000  O
  O209     1.0000 0.32812  0.71058  0.64426  Biso   1.000  O
  O210     1.0000 0.34167  0.81346  0.60155  Biso   1.000  O
  O211     1.0000 0.28674  0.69832  0.73807  Biso   1.000  O
  O212     1.0000 0.21420  0.67360  0.64850  Biso   1.000  O
  O213     1.0000 0.14610  0.71710  0.62260  Biso   1.000  O
  O214     1.0000 0.42350  0.65230  0.67290  Biso   1.000  O
  O215     1.0000 0.42940  0.74250  0.63050  Biso   1.000  O
  O216     1.0000 0.44500  0.86850  0.58250  Biso   1.000  O
  O217     1.0000 0.79996  0.79996  0.79996  Biso   1.000  O
  O218     1.0000 0.70004  0.20004  0.29996  Biso   1.000  O
  O219     1.0000 0.20004  0.29996  0.70004  Biso   1.000  O
  O220     1.0000 0.29996  0.70004  0.20004  Biso   1.000  O
  O221     1.0000 0.20004  0.20004  0.20004  Biso   1.000  O
  O222     1.0000 0.29996  0.79996  0.70004  Biso   1.000  O
  O223     1.0000 0.79996  0.70004  0.29996  Biso   1.000  O
  O224     1.0000 0.70004  0.29996  0.79996  Biso   1.000  O
