data_GIWCOF_ion_b
_audit_creation_date              2014-07-02
_audit_creation_method            'Materials Studio'
_symmetry_space_group_name_H-M    'P1'
_symmetry_Int_Tables_number       1
_symmetry_cell_setting            triclinic
loop_
_symmetry_equiv_pos_as_xyz
  x,y,z
_cell_length_a                    17.1679
_cell_length_b                    17.1679
_cell_length_c                    33.7150
_cell_angle_alpha                 113.3821
_cell_angle_beta                  113.3821
_cell_angle_gamma                 44.0047
loop_
_atom_site_label
_atom_site_type_symbol
_atom_site_fract_x
_atom_site_fract_y
_atom_site_fract_z
_atom_site_U_iso_or_equiv
_atom_site_adp_type
_atom_site_occupancy
Ag1    Ag    0.53248   0.01728   0.76951   0.00000  Uiso   1.00
C2     C     0.86433   0.15713   0.64704   0.00000  Uiso   1.00
H3     H     0.79090   0.18090   0.63580   0.00000  Uiso   1.00
C4     C     0.88590   0.22510   0.68033   0.00000  Uiso   1.00
H5     H     0.83180   0.30040   0.69470   0.00000  Uiso   1.00
C6     C     0.00152   0.15892   0.68743   0.00000  Uiso   1.00
H7     H     0.04260   0.18040   0.70840   0.00000  Uiso   1.00
C8     C     0.04922   0.05422   0.65854   0.00000  Uiso   1.00
C9     C     0.16473   0.96193   0.65494   0.00000  Uiso   1.00
C10    C     0.21326   0.85706   0.62665   0.00000  Uiso   1.00
C11    C     0.33034   0.76794   0.62068   0.00000  Uiso   1.00
H12    H     0.39000   0.76820   0.63600   0.00000  Uiso   1.00
C13    C     0.33940   0.68420   0.58942   0.00000  Uiso   1.00
H14    H     0.40650   0.61450   0.57830   0.00000  Uiso   1.00
C15    C     0.23229   0.71869   0.57641   0.00000  Uiso   1.00
H16    H     0.21600   0.67420   0.55460   0.00000  Uiso   1.00
C17    C     0.24325   0.97905   0.68424   0.00000  Uiso   1.00
C18    C     0.32785   0.91285   0.71651   0.00000  Uiso   1.00
H19    H     0.33650   0.85490   0.72030   0.00000  Uiso   1.00
C20    C     0.39949   0.93309   0.74305   0.00000  Uiso   1.00
H21    H     0.45560   0.88840   0.76540   0.00000  Uiso   1.00
C22    C     0.31270   0.07450   0.70803   0.00000  Uiso   1.00
H23    H     0.30760   0.13060   0.70480   0.00000  Uiso   1.00
C24    C     0.23701   0.06301   0.68103   0.00000  Uiso   1.00
H25    H     0.17980   0.11160   0.65990   0.00000  Uiso   1.00
C26    C     0.70520   0.06860   0.56040   0.00000  Uiso   1.00
H27    H     0.70970   0.08510   0.53800   0.00000  Uiso   1.00
C28    C     0.60350   0.10930   0.56640   0.00000  Uiso   1.00
H29    H     0.52920   0.15740   0.55000   0.00000  Uiso   1.00
C30    C     0.63560   0.06360   0.60140   0.00000  Uiso   1.00
H31    H     0.58640   0.07280   0.61280   0.00000  Uiso   1.00
C32    C     0.75167   0.00187   0.61739   0.00000  Uiso   1.00
C33    C     0.81809   0.94129   0.65174   0.00000  Uiso   1.00
C34    C     0.93524   0.87304   0.66660   0.00000  Uiso   1.00
C35    C     0.00120   0.81820   0.70451   0.00000  Uiso   1.00
H36    H     0.97250   0.81970   0.72400   0.00000  Uiso   1.00
C37    C     0.11030   0.76470   0.70764   0.00000  Uiso   1.00
H38    H     0.17290   0.71970   0.72900   0.00000  Uiso   1.00
C39    C     0.11400   0.78800   0.67294   0.00000  Uiso   1.00
H40    H     0.18050   0.76330   0.66830   0.00000  Uiso   1.00
C41    C     0.75568   0.95108   0.67680   0.00000  Uiso   1.00
C42    C     0.67317   0.05677   0.69964   0.00000  Uiso   1.00
H43    H     0.65550   0.12290   0.69880   0.00000  Uiso   1.00
C44    C     0.61760   0.06460   0.72340   0.00000  Uiso   1.00
H45    H     0.56260   0.13700   0.73910   0.00000  Uiso   1.00
C46    C     0.71570   0.87490   0.70330   0.00000  Uiso   1.00
H47    H     0.73050   0.81050   0.70420   0.00000  Uiso   1.00
C48    C     0.77640   0.86040   0.67913   0.00000  Uiso   1.00
H49    H     0.83230   0.78690   0.66430   0.00000  Uiso   1.00
C50    C     0.07067   0.87767   0.02697   0.00000  Uiso   1.00
H51    H     0.12750   0.86670   0.05180   0.00000  Uiso   1.00
C52    C     0.08353   0.85073   0.98342   0.00000  Uiso   1.00
H53    H     0.14830   0.81810   0.97370   0.00000  Uiso   1.00
C54    C     0.98286   0.88146   0.95816   0.00000  Uiso   1.00
H55    H     0.96370   0.87570   0.92720   0.00000  Uiso   1.00
C56    C     0.91178   0.92358   0.98634   0.00000  Uiso   1.00
C57    C     0.80310   0.96090   0.97354   0.00000  Uiso   1.00
C58    C     0.73044   0.99824   0.99995   0.00000  Uiso   1.00
C59    C     0.62170   0.03550   0.98610   0.00000  Uiso   1.00
H60    H     0.58080   0.04080   0.95690   0.00000  Uiso   1.00
C61    C     0.58530   0.06290   0.02260   0.00000  Uiso   1.00
H62    H     0.51400   0.09080   0.02340   0.00000  Uiso   1.00
C63    C     0.67060   0.04320   0.05830   0.00000  Uiso   1.00
H64    H     0.66650   0.05550   0.08770   0.00000  Uiso   1.00
C65    C     0.75205   0.96385   0.92587   0.00000  Uiso   1.00
C66    C     0.70630   0.05010   0.90713   0.00000  Uiso   1.00
H67    H     0.71030   0.10690   0.92390   0.00000  Uiso   1.00
C68    C     0.65316   0.05356   0.86265   0.00000  Uiso   1.00
H69    H     0.62010   0.11450   0.85010   0.00000  Uiso   1.00
C70    C     0.69655   0.88955   0.85585   0.00000  Uiso   1.00
H71    H     0.69540   0.83140   0.83810   0.00000  Uiso   1.00
C72    C     0.74954   0.88074   0.89950   0.00000  Uiso   1.00
H73    H     0.78360   0.81780   0.91090   0.00000  Uiso   1.00
In74   In    0.97326   0.91142   0.59017   0.00000  Uiso   1.00
N75    N     0.96043   0.05483   0.63327   0.00000  Uiso   1.00
N76    N     0.15480   0.82080   0.59781   0.00000  Uiso   1.00
N77    N     0.39509   0.00989   0.73943   0.00000  Uiso   1.00
N78    N     0.79499   0.00379   0.59016   0.00000  Uiso   1.00
N79    N     0.01151   0.84951   0.64754   0.00000  Uiso   1.00
N80    N     0.63721   0.97681   0.72540   0.00000  Uiso   1.00
N81    N     0.97153   0.91973   0.02950   0.00000  Uiso   1.00
N82    N     0.75978   0.00438   0.04551   0.00000  Uiso   1.00
N83    N     0.64760   0.97460   0.83767   0.00000  Uiso   1.00
P84    P     0.68211   0.66585   0.72486   0.00000  Uiso   1.00
F85    F     0.78162   0.56652   0.70661   0.00000  Uiso   1.00
F86    F     0.65881   0.59961   0.72665   0.00000  Uiso   1.00
F87    F     0.66850   0.70790   0.77474   0.00000  Uiso   1.00
F88    F     0.65872   0.76872   0.74994   0.00000  Uiso   1.00
F89    F     0.57613   0.67793   0.70237   0.00000  Uiso   1.00
F90    F     0.60945   0.74825   0.69198   0.00000  Uiso   1.00
Ag91   Ag    0.98272   0.46752   0.73049   0.00000  Uiso   1.00
C92    C     0.84287   0.13567   0.85296   0.00000  Uiso   1.00
H93    H     0.81910   0.20910   0.86420   0.00000  Uiso   1.00
C94    C     0.77490   0.11410   0.81967   0.00000  Uiso   1.00
H95    H     0.69960   0.16820   0.80530   0.00000  Uiso   1.00
C96    C     0.84108   0.99848   0.81257   0.00000  Uiso   1.00
H97    H     0.81960   0.95740   0.79160   0.00000  Uiso   1.00
C98    C     0.94578   0.95078   0.84146   0.00000  Uiso   1.00
C99    C     0.03807   0.83527   0.84506   0.00000  Uiso   1.00
C100   C     0.14294   0.78674   0.87335   0.00000  Uiso   1.00
C101   C     0.23206   0.66966   0.87932   0.00000  Uiso   1.00
H102   H     0.23180   0.61000   0.86400   0.00000  Uiso   1.00
C103   C     0.31580   0.66060   0.91058   0.00000  Uiso   1.00
H104   H     0.38550   0.59350   0.92170   0.00000  Uiso   1.00
C105   C     0.28131   0.76771   0.92359   0.00000  Uiso   1.00
H106   H     0.32580   0.78400   0.94540   0.00000  Uiso   1.00
C107   C     0.02095   0.75675   0.81576   0.00000  Uiso   1.00
C108   C     0.08715   0.67215   0.78349   0.00000  Uiso   1.00
H109   H     0.14510   0.66350   0.77970   0.00000  Uiso   1.00
C110   C     0.06691   0.60051   0.75695   0.00000  Uiso   1.00
H111   H     0.11160   0.54440   0.73460   0.00000  Uiso   1.00
C112   C     0.92550   0.68730   0.79197   0.00000  Uiso   1.00
H113   H     0.86940   0.69240   0.79520   0.00000  Uiso   1.00
C114   C     0.93699   0.76299   0.81897   0.00000  Uiso   1.00
H115   H     0.88840   0.82020   0.84010   0.00000  Uiso   1.00
C116   C     0.93140   0.29480   0.93960   0.00000  Uiso   1.00
H117   H     0.91490   0.29030   0.96200   0.00000  Uiso   1.00
C118   C     0.89070   0.39650   0.93360   0.00000  Uiso   1.00
H119   H     0.84260   0.47080   0.95000   0.00000  Uiso   1.00
C120   C     0.93640   0.36440   0.89860   0.00000  Uiso   1.00
H121   H     0.92720   0.41360   0.88720   0.00000  Uiso   1.00
C122   C     0.99813   0.24833   0.88261   0.00000  Uiso   1.00
C123   C     0.05871   0.18191   0.84826   0.00000  Uiso   1.00
C124   C     0.12696   0.06476   0.83340   0.00000  Uiso   1.00
C125   C     0.18180   0.99880   0.79549   0.00000  Uiso   1.00
H126   H     0.18030   0.02750   0.77600   0.00000  Uiso   1.00
C127   C     0.23530   0.88970   0.79236   0.00000  Uiso   1.00
H128   H     0.28030   0.82710   0.77100   0.00000  Uiso   1.00
C129   C     0.21200   0.88600   0.82706   0.00000  Uiso   1.00
H130   H     0.23670   0.81950   0.83170   0.00000  Uiso   1.00
C131   C     0.04892   0.24432   0.82320   0.00000  Uiso   1.00
C132   C     0.94323   0.32683   0.80036   0.00000  Uiso   1.00
H133   H     0.87710   0.34450   0.80120   0.00000  Uiso   1.00
C134   C     0.93540   0.38240   0.77660   0.00000  Uiso   1.00
H135   H     0.86300   0.43740   0.76090   0.00000  Uiso   1.00
C136   C     0.12510   0.28430   0.79670   0.00000  Uiso   1.00
H137   H     0.18950   0.26950   0.79580   0.00000  Uiso   1.00
C138   C     0.13960   0.22360   0.82087   0.00000  Uiso   1.00
H139   H     0.21310   0.16770   0.83570   0.00000  Uiso   1.00
C140   C     0.12233   0.92933   0.47303   0.00000  Uiso   1.00
H141   H     0.13330   0.87250   0.44820   0.00000  Uiso   1.00
C142   C     0.14927   0.91647   0.51658   0.00000  Uiso   1.00
H143   H     0.18190   0.85170   0.52630   0.00000  Uiso   1.00
C144   C     0.11854   0.01714   0.54184   0.00000  Uiso   1.00
H145   H     0.12430   0.03630   0.57280   0.00000  Uiso   1.00
C146   C     0.07642   0.08822   0.51366   0.00000  Uiso   1.00
C147   C     0.03910   0.19690   0.52646   0.00000  Uiso   1.00
C148   C     0.00176   0.26956   0.50005   0.00000  Uiso   1.00
C149   C     0.96450   0.37830   0.51390   0.00000  Uiso   1.00
H150   H     0.95920   0.41920   0.54310   0.00000  Uiso   1.00
C151   C     0.93710   0.41470   0.47740   0.00000  Uiso   1.00
H152   H     0.90920   0.48600   0.47660   0.00000  Uiso   1.00
C153   C     0.95680   0.32940   0.44170   0.00000  Uiso   1.00
H154   H     0.94450   0.33350   0.41230   0.00000  Uiso   1.00
C155   C     0.03615   0.24795   0.57413   0.00000  Uiso   1.00
C156   C     0.94990   0.29370   0.59287   0.00000  Uiso   1.00
H157   H     0.89310   0.28970   0.57610   0.00000  Uiso   1.00
C158   C     0.94644   0.34684   0.63735   0.00000  Uiso   1.00
H159   H     0.88550   0.37990   0.64990   0.00000  Uiso   1.00
C160   C     0.11045   0.30345   0.64415   0.00000  Uiso   1.00
H161   H     0.16860   0.30460   0.66190   0.00000  Uiso   1.00
C162   C     0.11926   0.25046   0.60050   0.00000  Uiso   1.00
H163   H     0.18220   0.21640   0.58910   0.00000  Uiso   1.00
In164  In    0.08858   0.02674   0.90983   0.00000  Uiso   1.00
N165   N     0.94517   0.03957   0.86673   0.00000  Uiso   1.00
N166   N     0.17920   0.84520   0.90219   0.00000  Uiso   1.00
N167   N     0.99011   0.60491   0.76057   0.00000  Uiso   1.00
N168   N     0.99621   0.20501   0.90984   0.00000  Uiso   1.00
N169   N     0.15049   0.98849   0.85246   0.00000  Uiso   1.00
N170   N     0.02319   0.36279   0.77460   0.00000  Uiso   1.00
N171   N     0.08027   0.02847   0.47050   0.00000  Uiso   1.00
N172   N     0.99562   0.24022   0.45449   0.00000  Uiso   1.00
N173   N     0.02540   0.35240   0.66233   0.00000  Uiso   1.00
P174   P     0.33415   0.31789   0.77514   0.00000  Uiso   1.00
F175   F     0.43348   0.21838   0.79339   0.00000  Uiso   1.00
F176   F     0.40039   0.34119   0.77335   0.00000  Uiso   1.00
F177   F     0.29210   0.33150   0.72526   0.00000  Uiso   1.00
F178   F     0.23128   0.34128   0.75006   0.00000  Uiso   1.00
F179   F     0.32207   0.42387   0.79763   0.00000  Uiso   1.00
F180   F     0.25175   0.39055   0.80802   0.00000  Uiso   1.00
Ag181  Ag    0.46752   0.98272   0.23049   0.00000  Uiso   1.00
C182   C     0.13567   0.84287   0.35296   0.00000  Uiso   1.00
H183   H     0.20910   0.81910   0.36420   0.00000  Uiso   1.00
C184   C     0.11410   0.77490   0.31967   0.00000  Uiso   1.00
H185   H     0.16820   0.69960   0.30530   0.00000  Uiso   1.00
C186   C     0.99848   0.84108   0.31257   0.00000  Uiso   1.00
H187   H     0.95740   0.81960   0.29160   0.00000  Uiso   1.00
C188   C     0.95078   0.94578   0.34146   0.00000  Uiso   1.00
C189   C     0.83527   0.03807   0.34506   0.00000  Uiso   1.00
C190   C     0.78674   0.14294   0.37335   0.00000  Uiso   1.00
C191   C     0.66966   0.23206   0.37932   0.00000  Uiso   1.00
H192   H     0.61000   0.23180   0.36400   0.00000  Uiso   1.00
C193   C     0.66060   0.31580   0.41058   0.00000  Uiso   1.00
H194   H     0.59350   0.38550   0.42170   0.00000  Uiso   1.00
C195   C     0.76771   0.28131   0.42359   0.00000  Uiso   1.00
H196   H     0.78400   0.32580   0.44540   0.00000  Uiso   1.00
C197   C     0.75675   0.02095   0.31576   0.00000  Uiso   1.00
C198   C     0.67215   0.08715   0.28349   0.00000  Uiso   1.00
H199   H     0.66350   0.14510   0.27970   0.00000  Uiso   1.00
C200   C     0.60051   0.06691   0.25695   0.00000  Uiso   1.00
H201   H     0.54440   0.11160   0.23460   0.00000  Uiso   1.00
C202   C     0.68730   0.92550   0.29197   0.00000  Uiso   1.00
H203   H     0.69240   0.86940   0.29520   0.00000  Uiso   1.00
C204   C     0.76299   0.93699   0.31897   0.00000  Uiso   1.00
H205   H     0.82020   0.88840   0.34010   0.00000  Uiso   1.00
C206   C     0.29480   0.93140   0.43960   0.00000  Uiso   1.00
H207   H     0.29030   0.91490   0.46200   0.00000  Uiso   1.00
C208   C     0.39650   0.89070   0.43360   0.00000  Uiso   1.00
H209   H     0.47080   0.84260   0.45000   0.00000  Uiso   1.00
C210   C     0.36440   0.93640   0.39860   0.00000  Uiso   1.00
H211   H     0.41360   0.92720   0.38720   0.00000  Uiso   1.00
C212   C     0.24833   0.99813   0.38261   0.00000  Uiso   1.00
C213   C     0.18191   0.05871   0.34826   0.00000  Uiso   1.00
C214   C     0.06476   0.12696   0.33340   0.00000  Uiso   1.00
C215   C     0.99880   0.18180   0.29549   0.00000  Uiso   1.00
H216   H     0.02750   0.18030   0.27600   0.00000  Uiso   1.00
C217   C     0.88970   0.23530   0.29236   0.00000  Uiso   1.00
H218   H     0.82710   0.28030   0.27100   0.00000  Uiso   1.00
C219   C     0.88600   0.21200   0.32706   0.00000  Uiso   1.00
H220   H     0.81950   0.23670   0.33170   0.00000  Uiso   1.00
C221   C     0.24432   0.04892   0.32320   0.00000  Uiso   1.00
C222   C     0.32683   0.94323   0.30036   0.00000  Uiso   1.00
H223   H     0.34450   0.87710   0.30120   0.00000  Uiso   1.00
C224   C     0.38240   0.93540   0.27660   0.00000  Uiso   1.00
H225   H     0.43740   0.86300   0.26090   0.00000  Uiso   1.00
C226   C     0.28430   0.12510   0.29670   0.00000  Uiso   1.00
H227   H     0.26950   0.18950   0.29580   0.00000  Uiso   1.00
C228   C     0.22360   0.13960   0.32087   0.00000  Uiso   1.00
H229   H     0.16770   0.21310   0.33570   0.00000  Uiso   1.00
C230   C     0.92933   0.12233   0.97303   0.00000  Uiso   1.00
H231   H     0.87250   0.13330   0.94820   0.00000  Uiso   1.00
C232   C     0.91647   0.14927   0.01658   0.00000  Uiso   1.00
H233   H     0.85170   0.18190   0.02630   0.00000  Uiso   1.00
C234   C     0.01714   0.11854   0.04184   0.00000  Uiso   1.00
H235   H     0.03630   0.12430   0.07280   0.00000  Uiso   1.00
C236   C     0.08822   0.07642   0.01366   0.00000  Uiso   1.00
C237   C     0.19690   0.03910   0.02646   0.00000  Uiso   1.00
C238   C     0.26956   0.00176   0.00005   0.00000  Uiso   1.00
C239   C     0.37830   0.96450   0.01390   0.00000  Uiso   1.00
H240   H     0.41920   0.95920   0.04310   0.00000  Uiso   1.00
C241   C     0.41470   0.93710   0.97740   0.00000  Uiso   1.00
H242   H     0.48600   0.90920   0.97660   0.00000  Uiso   1.00
C243   C     0.32940   0.95680   0.94170   0.00000  Uiso   1.00
H244   H     0.33350   0.94450   0.91230   0.00000  Uiso   1.00
C245   C     0.24795   0.03615   0.07413   0.00000  Uiso   1.00
C246   C     0.29370   0.94990   0.09287   0.00000  Uiso   1.00
H247   H     0.28970   0.89310   0.07610   0.00000  Uiso   1.00
C248   C     0.34684   0.94644   0.13735   0.00000  Uiso   1.00
H249   H     0.37990   0.88550   0.14990   0.00000  Uiso   1.00
C250   C     0.30345   0.11045   0.14415   0.00000  Uiso   1.00
H251   H     0.30460   0.16860   0.16190   0.00000  Uiso   1.00
C252   C     0.25046   0.11926   0.10050   0.00000  Uiso   1.00
H253   H     0.21640   0.18220   0.08910   0.00000  Uiso   1.00
In254  In    0.02674   0.08858   0.40983   0.00000  Uiso   1.00
N255   N     0.03957   0.94517   0.36673   0.00000  Uiso   1.00
N256   N     0.84520   0.17920   0.40219   0.00000  Uiso   1.00
N257   N     0.60491   0.99011   0.26057   0.00000  Uiso   1.00
N258   N     0.20501   0.99621   0.40984   0.00000  Uiso   1.00
N259   N     0.98849   0.15049   0.35246   0.00000  Uiso   1.00
N260   N     0.36279   0.02319   0.27460   0.00000  Uiso   1.00
N261   N     0.02847   0.08027   0.97050   0.00000  Uiso   1.00
N262   N     0.24022   0.99562   0.95449   0.00000  Uiso   1.00
N263   N     0.35240   0.02540   0.16233   0.00000  Uiso   1.00
P264   P     0.31789   0.33415   0.27514   0.00000  Uiso   1.00
F265   F     0.21838   0.43348   0.29339   0.00000  Uiso   1.00
F266   F     0.34119   0.40039   0.27335   0.00000  Uiso   1.00
F267   F     0.33150   0.29210   0.22526   0.00000  Uiso   1.00
F268   F     0.34128   0.23128   0.25006   0.00000  Uiso   1.00
F269   F     0.42387   0.32207   0.29763   0.00000  Uiso   1.00
F270   F     0.39055   0.25175   0.30802   0.00000  Uiso   1.00
Ag271  Ag    0.01728   0.53248   0.26951   0.00000  Uiso   1.00
C272   C     0.15713   0.86433   0.14704   0.00000  Uiso   1.00
H273   H     0.18090   0.79090   0.13580   0.00000  Uiso   1.00
C274   C     0.22510   0.88590   0.18033   0.00000  Uiso   1.00
H275   H     0.30040   0.83180   0.19470   0.00000  Uiso   1.00
C276   C     0.15892   0.00152   0.18743   0.00000  Uiso   1.00
H277   H     0.18040   0.04260   0.20840   0.00000  Uiso   1.00
C278   C     0.05422   0.04922   0.15854   0.00000  Uiso   1.00
C279   C     0.96193   0.16473   0.15494   0.00000  Uiso   1.00
C280   C     0.85706   0.21326   0.12665   0.00000  Uiso   1.00
C281   C     0.76794   0.33034   0.12068   0.00000  Uiso   1.00
H282   H     0.76820   0.39000   0.13600   0.00000  Uiso   1.00
C283   C     0.68420   0.33940   0.08942   0.00000  Uiso   1.00
H284   H     0.61450   0.40650   0.07830   0.00000  Uiso   1.00
C285   C     0.71869   0.23229   0.07641   0.00000  Uiso   1.00
H286   H     0.67420   0.21600   0.05460   0.00000  Uiso   1.00
C287   C     0.97905   0.24325   0.18424   0.00000  Uiso   1.00
C288   C     0.91285   0.32785   0.21651   0.00000  Uiso   1.00
H289   H     0.85490   0.33650   0.22030   0.00000  Uiso   1.00
C290   C     0.93309   0.39949   0.24305   0.00000  Uiso   1.00
H291   H     0.88840   0.45560   0.26540   0.00000  Uiso   1.00
C292   C     0.07450   0.31270   0.20803   0.00000  Uiso   1.00
H293   H     0.13060   0.30760   0.20480   0.00000  Uiso   1.00
C294   C     0.06301   0.23701   0.18103   0.00000  Uiso   1.00
H295   H     0.11160   0.17980   0.15990   0.00000  Uiso   1.00
C296   C     0.06860   0.70520   0.06040   0.00000  Uiso   1.00
H297   H     0.08510   0.70970   0.03800   0.00000  Uiso   1.00
C298   C     0.10930   0.60350   0.06640   0.00000  Uiso   1.00
H299   H     0.15740   0.52920   0.05000   0.00000  Uiso   1.00
C300   C     0.06360   0.63560   0.10140   0.00000  Uiso   1.00
H301   H     0.07280   0.58640   0.11280   0.00000  Uiso   1.00
C302   C     0.00187   0.75167   0.11739   0.00000  Uiso   1.00
C303   C     0.94129   0.81809   0.15174   0.00000  Uiso   1.00
C304   C     0.87304   0.93524   0.16660   0.00000  Uiso   1.00
C305   C     0.81820   0.00120   0.20451   0.00000  Uiso   1.00
H306   H     0.81970   0.97250   0.22400   0.00000  Uiso   1.00
C307   C     0.76470   0.11030   0.20764   0.00000  Uiso   1.00
H308   H     0.71970   0.17290   0.22900   0.00000  Uiso   1.00
C309   C     0.78800   0.11400   0.17294   0.00000  Uiso   1.00
H310   H     0.76330   0.18050   0.16830   0.00000  Uiso   1.00
C311   C     0.95108   0.75568   0.17680   0.00000  Uiso   1.00
C312   C     0.05677   0.67317   0.19964   0.00000  Uiso   1.00
H313   H     0.12290   0.65550   0.19880   0.00000  Uiso   1.00
C314   C     0.06460   0.61760   0.22340   0.00000  Uiso   1.00
H315   H     0.13700   0.56260   0.23910   0.00000  Uiso   1.00
C316   C     0.87490   0.71570   0.20330   0.00000  Uiso   1.00
H317   H     0.81050   0.73050   0.20420   0.00000  Uiso   1.00
C318   C     0.86040   0.77640   0.17913   0.00000  Uiso   1.00
H319   H     0.78690   0.83230   0.16430   0.00000  Uiso   1.00
C320   C     0.87767   0.07067   0.52697   0.00000  Uiso   1.00
H321   H     0.86670   0.12750   0.55180   0.00000  Uiso   1.00
C322   C     0.85073   0.08353   0.48342   0.00000  Uiso   1.00
H323   H     0.81810   0.14830   0.47370   0.00000  Uiso   1.00
C324   C     0.88146   0.98286   0.45816   0.00000  Uiso   1.00
H325   H     0.87570   0.96370   0.42720   0.00000  Uiso   1.00
C326   C     0.92358   0.91178   0.48634   0.00000  Uiso   1.00
C327   C     0.96090   0.80310   0.47354   0.00000  Uiso   1.00
C328   C     0.99824   0.73044   0.49995   0.00000  Uiso   1.00
C329   C     0.03550   0.62170   0.48610   0.00000  Uiso   1.00
H330   H     0.04080   0.58080   0.45690   0.00000  Uiso   1.00
C331   C     0.06290   0.58530   0.52260   0.00000  Uiso   1.00
H332   H     0.09080   0.51400   0.52340   0.00000  Uiso   1.00
C333   C     0.04320   0.67060   0.55830   0.00000  Uiso   1.00
H334   H     0.05550   0.66650   0.58770   0.00000  Uiso   1.00
C335   C     0.96385   0.75205   0.42587   0.00000  Uiso   1.00
C336   C     0.05010   0.70630   0.40713   0.00000  Uiso   1.00
H337   H     0.10690   0.71030   0.42390   0.00000  Uiso   1.00
C338   C     0.05356   0.65316   0.36265   0.00000  Uiso   1.00
H339   H     0.11450   0.62010   0.35010   0.00000  Uiso   1.00
C340   C     0.88955   0.69655   0.35585   0.00000  Uiso   1.00
H341   H     0.83140   0.69540   0.33810   0.00000  Uiso   1.00
C342   C     0.88074   0.74954   0.39950   0.00000  Uiso   1.00
H343   H     0.81780   0.78360   0.41090   0.00000  Uiso   1.00
In344  In    0.91142   0.97326   0.09017   0.00000  Uiso   1.00
N345   N     0.05483   0.96043   0.13327   0.00000  Uiso   1.00
N346   N     0.82080   0.15480   0.09781   0.00000  Uiso   1.00
N347   N     0.00989   0.39509   0.23943   0.00000  Uiso   1.00
N348   N     0.00379   0.79499   0.09016   0.00000  Uiso   1.00
N349   N     0.84951   0.01151   0.14754   0.00000  Uiso   1.00
N350   N     0.97681   0.63721   0.22540   0.00000  Uiso   1.00
N351   N     0.91973   0.97153   0.52950   0.00000  Uiso   1.00
N352   N     0.00438   0.75978   0.54551   0.00000  Uiso   1.00
N353   N     0.97460   0.64760   0.33767   0.00000  Uiso   1.00
P354   P     0.66585   0.68211   0.22486   0.00000  Uiso   1.00
F355   F     0.56652   0.78162   0.20661   0.00000  Uiso   1.00
F356   F     0.59961   0.65881   0.22665   0.00000  Uiso   1.00
F357   F     0.70790   0.66850   0.27474   0.00000  Uiso   1.00
F358   F     0.76872   0.65872   0.24994   0.00000  Uiso   1.00
F359   F     0.67793   0.57613   0.20237   0.00000  Uiso   1.00
F360   F     0.74825   0.60945   0.19198   0.00000  Uiso   1.00
loop_
_geom_bond_atom_site_label_1
_geom_bond_atom_site_label_2
_geom_bond_distance
_geom_bond_site_symmetry_2
_ccdc_geom_bond_type
Ag1    N77     2.244   .     S
Ag1    N80     2.331   1_545 S
Ag1    N83     2.318   1_545 S
C2     H3      0.950   .     S
C2     C4      1.418   .     S
C2     N75     1.347   .     D
C4     H5      0.949   .     S
C4     C6      1.372   1_655 S
C6     H7      0.951   .     S
C6     C8      1.406   .     S
C6     C4      1.372   1_455 S
C8     C9      1.406   1_545 S
C8     N75     1.415   1_455 S
C9     C10     1.398   .     S
C9     C17     1.470   .     S
C9     C8      1.406   1_565 S
C10    C11     1.440   .     A
C10    N76     1.409   .     A
C11    H12     0.949   .     S
C11    C13     1.344   .     A
C13    H14     0.950   .     S
C13    C15     1.387   .     A
C15    H16     0.949   .     S
C15    N76     1.329   .     A
C17    C18     1.392   .     A
C17    C24     1.412   1_565 S
C18    H19     0.949   .     S
C18    C20     1.389   .     A
C20    H21     0.951   .     S
C20    N77     1.318   1_565 S
C22    H23     0.949   .     S
C22    C24     1.358   .     A
C22    N77     1.356   .     A
C24    H25     0.952   .     S
C24    C17     1.412   1_545 S
C26    H27     0.951   .     S
C26    C28     1.411   .     S
C26    N78     1.346   .     D
C28    H29     0.950   .     S
C28    C30     1.381   .     D
C30    H31     0.951   .     S
C30    C32     1.395   .     S
C32    N78     1.414   .     S
C32    C33     1.387   1_545 A
C33    C34     1.395   .     S
C33    C41     1.496   .     S
C33    C32     1.387   1_565 A
C34    C35     1.440   1_655 A
C34    N79     1.411   1_655 S
C35    C37     1.345   .     A
C35    C34     1.440   1_455 A
C35    H36     0.949   1_455 S
H36    C35     0.949   1_655 S
C37    H38     0.950   .     S
C37    C39     1.414   .     A
C39    H40     0.949   .     S
C39    N79     1.339   .     A
C41    C48     1.354   .     A
C41    C42     1.397   1_565 A
C42    H43     0.951   .     S
C42    C44     1.381   .     A
C42    C41     1.397   1_545 A
C44    H45     0.950   .     S
C44    N80     1.312   1_545 A
C46    H47     0.951   .     S
C46    C48     1.397   .     A
C46    N80     1.343   .     A
C48    H49     0.949   .     S
C50    H51     0.949   .     S
C50    C52     1.411   1_554 S
C50    N81     1.313   1_455 S
C52    H53     0.951   .     S
C52    C50     1.411   1_556 S
C52    C54     1.366   1_455 A
C54    H55     0.949   .     S
C54    C56     1.421   .     S
C54    C52     1.366   1_655 A
C56    C57     1.392   .     D
C56    N81     1.403   1_556 S
C57    C58     1.428   .     S
C57    C65     1.495   .     S
C58    C59     1.393   1_565 S
C58    N82     1.399   1_566 D
C59    H60     0.949   .     S
C59    C58     1.393   1_545 S
C59    C61     1.362   1_556 D
C61    H62     0.949   .     S
C61    C63     1.385   .     A
C61    C59     1.362   1_554 D
C63    H64     0.949   .     S
C63    N82     1.342   .     A
C65    C72     1.371   .     A
C65    C66     1.373   1_565 S
C66    H67     0.950   .     S
C66    C68     1.411   .     A
C66    C65     1.373   1_545 S
C68    H69     0.950   .     S
C68    N83     1.331   1_545 S
C70    H71     0.949   .     S
C70    C72     1.390   .     A
C70    N83     1.323   .     A
C72    H73     0.948   .     S
In74   N351    2.216   .     S
In74   N75     2.204   1_565 S
In74   N76     2.215   1_655 A
In74   N78     2.213   1_565 S
In74   N79     2.218   1_655 A
In74   N352    2.204   1_655 S
N75    C8      1.415   1_655 S
N75    In74    2.204   1_545 S
N76    In74    2.215   1_455 A
N77    C20     1.318   1_545 S
N78    In74    2.213   1_545 S
N79    C34     1.411   1_455 S
N79    In74    2.218   1_455 A
N80    Ag1     2.331   1_565 S
N80    C44     1.312   1_565 A
N81    In344   2.216   .     S
N81    C50     1.313   1_655 S
N81    C56     1.403   1_554 S
N82    C58     1.399   1_544 D
N82    In344   2.204   1_545 S
N83    Ag1     2.318   1_565 S
N83    C68     1.331   1_565 S
P84    F85     1.420   .     S
P84    F86     1.478   .     S
P84    F87     1.584   .     S
P84    F88     1.435   .     S
P84    F89     1.554   .     S
P84    F90     1.547   .     S
Ag91   N167    2.244   .     S
Ag91   N170    2.331   1_655 S
Ag91   N173    2.318   1_655 S
C92    H93     0.950   .     S
C92    C94     1.418   .     S
C92    N165    1.347   .     D
C94    H95     0.949   .     S
C94    C96     1.372   1_545 S
C96    H97     0.951   .     S
C96    C98     1.406   .     S
C96    C94     1.372   1_565 S
C98    C99     1.406   1_655 S
C98    N165    1.415   1_565 A
C99    C100    1.398   .     S
C99    C107    1.470   .     S
C99    C98     1.406   1_455 S
C100   C101    1.440   .     A
C100   N166    1.409   .     A
C101   H102    0.949   .     S
C101   C103    1.344   .     A
C103   H104    0.950   .     S
C103   C105    1.387   .     A
C105   H106    0.949   .     S
C105   N166    1.329   .     A
C107   C108    1.392   .     A
C107   C114    1.412   1_455 S
C108   H109    0.949   .     S
C108   C110    1.389   .     A
C110   H111    0.951   .     S
C110   N167    1.318   1_455 A
C112   H113    0.949   .     S
C112   C114    1.358   .     A
C112   N167    1.356   .     A
C114   H115    0.952   .     S
C114   C107    1.412   1_655 S
C116   H117    0.951   .     S
C116   C118    1.411   .     S
C116   N168    1.346   .     D
C118   H119    0.950   .     S
C118   C120    1.381   .     D
C120   H121    0.951   .     S
C120   C122    1.395   .     S
C122   N168    1.414   .     S
C122   C123    1.387   1_655 S
C123   C124    1.395   .     S
C123   C131    1.496   .     S
C123   C122    1.387   1_455 S
C124   C125    1.440   1_545 A
C124   N169    1.411   1_545 S
C125   C127    1.345   .     A
C125   C124    1.440   1_565 A
C125   H126    0.949   1_565 S
H126   C125    0.949   1_545 S
C127   H128    0.950   .     S
C127   C129    1.414   .     A
C129   H130    0.949   .     S
C129   N169    1.339   .     A
C131   C138    1.354   .     A
C131   C132    1.397   1_455 S
C132   H133    0.951   .     S
C132   C134    1.381   .     A
C132   C131    1.397   1_655 S
C134   H135    0.950   .     S
C134   N170    1.312   1_655 S
C136   H137    0.951   .     S
C136   C138    1.397   .     A
C136   N170    1.343   .     A
C138   H139    0.949   .     S
C140   H141    0.949   .     S
C140   C142    1.411   .     S
C140   N171    1.313   1_565 S
C142   H143    0.951   .     S
C142   C144    1.366   1_565 S
C144   H145    0.949   .     S
C144   C146    1.421   .     S
C144   C142    1.366   1_545 S
C146   C147    1.392   .     D
C146   N171    1.403   .     S
C147   C148    1.428   .     S
C147   C155    1.495   .     S
C148   C149    1.393   1_455 S
C148   N172    1.399   1_455 S
C149   H150    0.949   .     S
C149   C151    1.362   .     A
C149   C148    1.393   1_655 S
C151   H152    0.949   .     S
C151   C153    1.385   .     A
C153   H154    0.949   .     S
C153   N172    1.342   .     A
C155   C162    1.371   .     A
C155   C156    1.373   1_455 S
C156   H157    0.950   .     S
C156   C158    1.411   .     A
C156   C155    1.373   1_655 S
C158   H159    0.950   .     S
C158   N173    1.331   1_655 S
C160   H161    0.949   .     S
C160   C162    1.390   .     A
C160   N173    1.323   .     A
C162   H163    0.948   .     S
In164  N261    2.216   .     S
In164  N165    2.204   1_455 S
In164  N166    2.215   1_545 S
In164  N168    2.213   1_455 A
In164  N169    2.218   1_545 A
In164  N262    2.204   1_545 S
N165   C98     1.415   1_545 A
N165   In164   2.204   1_655 S
N166   In164   2.215   1_565 S
N167   C110    1.318   1_655 A
N168   In164   2.213   1_655 A
N169   C124    1.411   1_565 S
N169   In164   2.218   1_565 A
N170   Ag91    2.331   1_455 S
N170   C134    1.312   1_455 S
N171   In254   2.216   .     S
N171   C140    1.313   1_545 S
N172   C148    1.399   1_655 S
N172   In254   2.204   1_655 A
N173   Ag91    2.318   1_455 S
N173   C158    1.331   1_455 S
P174   F175    1.420   .     S
P174   F176    1.478   .     S
P174   F177    1.584   .     S
P174   F178    1.435   .     S
P174   F179    1.554   .     S
P174   F180    1.547   .     S
Ag181  N257    2.244   .     S
Ag181  N260    2.331   1_565 S
Ag181  N263    2.318   1_565 D
C182   H183    0.950   .     S
C182   C184    1.418   .     S
C182   N255    1.347   .     D
C184   H185    0.949   .     S
C184   C186    1.372   1_455 S
C186   H187    0.951   .     S
C186   C188    1.406   .     S
C186   C184    1.372   1_655 S
C188   C189    1.406   1_565 S
C188   N255    1.415   1_655 S
C189   C190    1.398   .     S
C189   C197    1.470   .     S
C189   C188    1.406   1_545 S
C190   C191    1.440   .     A
C190   N256    1.409   .     A
C191   H192    0.949   .     S
C191   C193    1.344   .     A
C193   H194    0.950   .     S
C193   C195    1.387   .     A
C195   H196    0.949   .     S
C195   N256    1.329   .     A
C197   C198    1.392   .     A
C197   C204    1.412   1_545 S
C198   H199    0.949   .     S
C198   C200    1.389   .     A
C200   H201    0.951   .     S
C200   N257    1.318   1_545 S
C202   H203    0.949   .     S
C202   C204    1.358   .     A
C202   N257    1.356   .     A
C204   H205    0.952   .     S
C204   C197    1.412   1_565 S
C206   H207    0.951   .     S
C206   C208    1.411   .     S
C206   N258    1.346   .     D
C208   H209    0.950   .     S
C208   C210    1.381   .     D
C210   H211    0.951   .     S
C210   C212    1.395   .     S
C212   N258    1.414   .     S
C212   C213    1.387   1_565 S
C213   C214    1.395   .     S
C213   C221    1.496   .     S
C213   C212    1.387   1_545 S
C214   C215    1.440   1_455 S
C214   N259    1.411   1_455 A
C215   C217    1.345   .     A
C215   C214    1.440   1_655 S
C215   H216    0.949   1_655 S
H216   C215    0.949   1_455 S
C217   H218    0.950   .     S
C217   C219    1.414   .     A
C219   H220    0.949   .     S
C219   N259    1.339   .     A
C221   C228    1.354   .     A
C221   C222    1.397   1_545 S
C222   H223    0.951   .     S
C222   C224    1.381   .     A
C222   C221    1.397   1_565 S
C224   H225    0.950   .     S
C224   N260    1.312   1_565 A
C226   H227    0.951   .     S
C226   C228    1.397   .     A
C226   N260    1.343   .     A
C228   H229    0.949   .     S
C230   H231    0.949   .     S
C230   C232    1.411   1_556 A
C230   N261    1.313   1_655 S
C232   H233    0.951   .     S
C232   C230    1.411   1_554 A
C232   C234    1.366   1_655 S
C234   H235    0.949   .     S
C234   C236    1.421   .     S
C234   C232    1.366   1_455 S
C236   C237    1.392   .     D
C236   N261    1.403   1_554 S
C237   C238    1.428   .     S
C237   C245    1.495   .     S
C238   C239    1.393   1_545 S
C238   N262    1.399   1_544 D
C239   H240    0.949   .     S
C239   C238    1.393   1_565 S
C239   C241    1.362   1_554 S
C241   H242    0.949   .     S
C241   C243    1.385   .     A
C241   C239    1.362   1_556 S
C243   H244    0.949   .     S
C243   N262    1.342   .     A
C245   C252    1.371   .     A
C245   C246    1.373   1_545 S
C246   H247    0.950   .     S
C246   C248    1.411   .     A
C246   C245    1.373   1_565 S
C248   H249    0.950   .     S
C248   N263    1.331   1_565 S
C250   H251    0.949   .     S
C250   C252    1.390   .     A
C250   N263    1.323   .     A
C252   H253    0.948   .     S
In254  N172    2.204   1_455 A
In254  N255    2.204   1_545 S
In254  N256    2.215   1_455 A
In254  N258    2.213   1_545 A
In254  N259    2.218   1_455 S
N255   C188    1.415   1_455 S
N255   In254   2.204   1_565 S
N256   In254   2.215   1_655 A
N257   C200    1.318   1_565 S
N258   In254   2.213   1_565 A
N259   C214    1.411   1_655 A
N259   In254   2.218   1_655 S
N260   Ag181   2.331   1_545 S
N260   C224    1.312   1_545 A
N261   C230    1.313   1_455 S
N261   C236    1.403   1_556 S
N262   In164   2.204   1_565 S
N262   C238    1.399   1_566 D
N263   Ag181   2.318   1_545 D
N263   C248    1.331   1_545 S
P264   F265    1.420   .     S
P264   F266    1.478   .     S
P264   F267    1.584   .     S
P264   F268    1.435   .     S
P264   F269    1.554   .     S
P264   F270    1.547   .     S
Ag271  N347    2.244   .     S
Ag271  N350    2.331   1_455 S
Ag271  N353    2.318   1_455 S
C272   H273    0.950   .     S
C272   C274    1.418   .     S
C272   N345    1.347   .     D
C274   H275    0.949   .     S
C274   C276    1.372   1_565 D
C276   H277    0.951   .     S
C276   C278    1.406   .     S
C276   C274    1.372   1_545 D
C278   C279    1.406   1_455 S
C278   N345    1.415   1_545 S
C279   C280    1.398   .     S
C279   C287    1.470   .     S
C279   C278    1.406   1_655 S
C280   C281    1.440   .     A
C280   N346    1.409   .     A
C281   H282    0.949   .     S
C281   C283    1.344   .     A
C283   H284    0.950   .     S
C283   C285    1.387   .     A
C285   H286    0.949   .     S
C285   N346    1.329   .     A
C287   C288    1.392   .     A
C287   C294    1.412   1_655 S
C288   H289    0.949   .     S
C288   C290    1.389   .     A
C290   H291    0.951   .     S
C290   N347    1.318   1_655 A
C292   H293    0.949   .     S
C292   C294    1.358   .     A
C292   N347    1.356   .     A
C294   H295    0.952   .     S
C294   C287    1.412   1_455 S
C296   H297    0.951   .     S
C296   C298    1.411   .     S
C296   N348    1.346   .     D
C298   H299    0.950   .     S
C298   C300    1.381   .     D
C300   H301    0.951   .     S
C300   C302    1.395   .     S
C302   N348    1.414   .     S
C302   C303    1.387   1_455 S
C303   C304    1.395   .     S
C303   C311    1.496   .     S
C303   C302    1.387   1_655 S
C304   C305    1.440   1_565 S
C304   N349    1.411   1_565 A
C305   C307    1.345   .     A
C305   C304    1.440   1_545 S
C305   H306    0.949   1_545 A
H306   C305    0.949   1_565 A
C307   H308    0.950   .     S
C307   C309    1.414   .     A
C309   H310    0.949   .     S
C309   N349    1.339   .     A
C311   C318    1.354   .     A
C311   C312    1.397   1_655 S
C312   H313    0.951   .     S
C312   C314    1.381   .     A
C312   C311    1.397   1_455 S
C314   H315    0.950   .     S
C314   N350    1.312   1_455 S
C316   H317    0.951   .     S
C316   C318    1.397   .     A
C316   N350    1.343   .     A
C318   H319    0.949   .     S
C320   H321    0.949   .     S
C320   C322    1.411   .     S
C320   N351    1.313   1_545 S
C322   H323    0.951   .     S
C322   C324    1.366   1_545 A
C324   H325    0.949   .     S
C324   C326    1.421   .     S
C324   C322    1.366   1_565 A
C326   C327    1.392   .     D
C326   N351    1.403   .     S
C327   C328    1.428   .     S
C327   C335    1.495   .     S
C328   C329    1.393   1_655 S
C328   N352    1.399   1_655 S
C329   H330    0.949   .     S
C329   C331    1.362   .     A
C329   C328    1.393   1_455 S
C331   H332    0.949   .     S
C331   C333    1.385   .     A
C333   H334    0.949   .     S
C333   N352    1.342   .     A
C335   C342    1.371   .     A
C335   C336    1.373   1_655 D
C336   H337    0.950   .     S
C336   C338    1.411   .     A
C336   C335    1.373   1_455 D
C338   H339    0.950   .     S
C338   N353    1.331   1_455 D
C340   H341    0.949   .     S
C340   C342    1.390   .     A
C340   N353    1.323   .     A
C342   H343    0.948   .     S
In344  N82     2.204   1_565 S
In344  N345    2.204   1_655 S
In344  N346    2.215   1_565 S
In344  N348    2.213   1_655 S
In344  N349    2.218   1_565 S
N345   C278    1.415   1_565 S
N345   In344   2.204   1_455 S
N346   In344   2.215   1_545 S
N347   C290    1.318   1_455 A
N348   In344   2.213   1_455 S
N349   C304    1.411   1_545 A
N349   In344   2.218   1_545 S
N350   Ag271   2.331   1_655 S
N350   C314    1.312   1_655 S
N351   C320    1.313   1_565 S
N352   In74    2.204   1_455 S
N352   C328    1.399   1_455 S
N353   Ag271   2.318   1_655 S
N353   C338    1.331   1_655 D
P354   F355    1.420   .     S
P354   F356    1.478   .     S
P354   F357    1.584   .     S
P354   F358    1.435   .     S
P354   F359    1.554   .     S
P354   F360    1.547   .     S
