data_GIWCIZ_ion_b
_audit_creation_date              2014-07-02
_audit_creation_method            'Materials Studio'
_symmetry_space_group_name_H-M    'P1'
_symmetry_Int_Tables_number       1
_symmetry_cell_setting            triclinic
loop_
_symmetry_equiv_pos_as_xyz
  x,y,z
_cell_length_a                    37.2856
_cell_length_b                    37.2856
_cell_length_c                    14.9678
_cell_angle_alpha                 98.8296
_cell_angle_beta                  98.8296
_cell_angle_gamma                 126.8267
loop_
_atom_site_label
_atom_site_type_symbol
_atom_site_fract_x
_atom_site_fract_y
_atom_site_fract_z
_atom_site_U_iso_or_equiv
_atom_site_adp_type
_atom_site_occupancy
Ag1    Ag    0.02909   0.27762   0.08851   0.00000  Uiso   1.00
Ag2    Ag    0.45837   0.20085   0.97891   0.00000  Uiso   1.00
C3     C     0.10755   0.09237   0.91320   0.00000  Uiso   1.00
H4     H     0.11480   0.07360   0.88610   0.00000  Uiso   1.00
C5     C     0.07973   0.10023   0.85950   0.00000  Uiso   1.00
H6     H     0.06440   0.08720   0.79290   0.00000  Uiso   1.00
C7     C     0.07932   0.13072   0.92360   0.00000  Uiso   1.00
H8     H     0.06430   0.14350   0.90880   0.00000  Uiso   1.00
C9     C     0.10607   0.13987   0.01800   0.00000  Uiso   1.00
C10    C     0.11387   0.16659   0.10440   0.00000  Uiso   1.00
C11    C     0.13874   0.17384   0.19430   0.00000  Uiso   1.00
C12    C     0.14416   0.19886   0.28500   0.00000  Uiso   1.00
H13    H     0.13100   0.21380   0.29610   0.00000  Uiso   1.00
C14    C     0.17137   0.19709   0.35160   0.00000  Uiso   1.00
H15    H     0.18070   0.21030   0.41850   0.00000  Uiso   1.00
C16    C     0.18340   0.17194   0.30360   0.00000  Uiso   1.00
H17    H     0.20290   0.16610   0.33390   0.00000  Uiso   1.00
C18    C     0.09236   0.19092   0.10130   0.00000  Uiso   1.00
C19    C     0.04509   0.16645   0.07610   0.00000  Uiso   1.00
H20    H     0.02390   0.13310   0.06030   0.00000  Uiso   1.00
C21    C     0.02768   0.19140   0.07380   0.00000  Uiso   1.00
H22    H     0.99460   0.17420   0.05630   0.00000  Uiso   1.00
C23    C     0.10158   0.26072   0.12010   0.00000  Uiso   1.00
H24    H     0.12240   0.29400   0.13510   0.00000  Uiso   1.00
C25    C     0.12077   0.23819   0.12530   0.00000  Uiso   1.00
H26    H     0.15400   0.25640   0.14600   0.00000  Uiso   1.00
C27    C     0.14982   0.03428   0.97450   0.00000  Uiso   1.00
H28    H     0.11820   0.01360   0.97550   0.00000  Uiso   1.00
C29    C     0.17228   0.01882   0.93180   0.00000  Uiso   1.00
H30    H     0.15880   0.98740   0.89960   0.00000  Uiso   1.00
C31    C     0.21654   0.05840   0.94740   0.00000  Uiso   1.00
H32    H     0.24060   0.05980   0.92960   0.00000  Uiso   1.00
C33    C     0.22134   0.09786   0.99460   0.00000  Uiso   1.00
C34    C     0.26036   0.14574   0.01920   0.00000  Uiso   1.00
C35    C     0.26138   0.18258   0.05850   0.00000  Uiso   1.00
C36    C     0.29758   0.23164   0.07300   0.00000  Uiso   1.00
H37    H     0.32660   0.24540   0.06030   0.00000  Uiso   1.00
C38    C     0.28298   0.25560   0.10900   0.00000  Uiso   1.00
H39    H     0.29960   0.28860   0.12500   0.00000  Uiso   1.00
C40    C     0.23874   0.22130   0.11680   0.00000  Uiso   1.00
H41    H     0.22040   0.22780   0.14030   0.00000  Uiso   1.00
C42    C     0.30429   0.15715   0.00430   0.00000  Uiso   1.00
C43    C     0.31920   0.17218   0.93370   0.00000  Uiso   1.00
H44    H     0.30330   0.17850   0.89170   0.00000  Uiso   1.00
C45    C     0.35961   0.17879   0.92150   0.00000  Uiso   1.00
H46    H     0.36700   0.18480   0.86480   0.00000  Uiso   1.00
C47    C     0.37235   0.16421   0.05700   0.00000  Uiso   1.00
H48    H     0.39120   0.16180   0.10210   0.00000  Uiso   1.00
C49    C     0.33160   0.15404   0.07260   0.00000  Uiso   1.00
H50    H     0.32290   0.14550   0.12680   0.00000  Uiso   1.00
C51    C     0.26549   0.16415   0.25430   0.00000  Uiso   1.00
H52    H     0.27990   0.19470   0.24900   0.00000  Uiso   1.00
C53    C     0.28897   0.15119   0.30550   0.00000  Uiso   1.00
H54    H     0.32160   0.17160   0.34040   0.00000  Uiso   1.00
C55    C     0.25708   0.10466   0.29640   0.00000  Uiso   1.00
H56    H     0.26310   0.08650   0.32300   0.00000  Uiso   1.00
C57    C     0.21131   0.08777   0.23730   0.00000  Uiso   1.00
C58    C     0.16802   0.04314   0.21420   0.00000  Uiso   1.00
C59    C     0.12444   0.02906   0.16930   0.00000  Uiso   1.00
C60    C     0.07884   0.98520   0.14960   0.00000  Uiso   1.00
H61    H     0.07200   0.95840   0.16490   0.00000  Uiso   1.00
C62    C     0.04615   0.98821   0.10440   0.00000  Uiso   1.00
H63    H     0.01280   0.96460   0.08560   0.00000  Uiso   1.00
C64    C     0.07121   0.03259   0.09170   0.00000  Uiso   1.00
H65    H     0.05710   0.04350   0.06000   0.00000  Uiso   1.00
C66    C     0.16881   0.00587   0.23800   0.00000  Uiso   1.00
C67    C     0.18387   0.98811   0.18340   0.00000  Uiso   1.00
H68    H     0.19470   0.99990   0.13330   0.00000  Uiso   1.00
C69    C     0.18322   0.95272   0.20160   0.00000  Uiso   1.00
H70    H     0.19330   0.94030   0.16190   0.00000  Uiso   1.00
C71    C     0.13780   0.94320   0.31120   0.00000  Uiso   1.00
H72    H     0.11920   0.92460   0.34700   0.00000  Uiso   1.00
C73    C     0.13885   0.97875   0.29230   0.00000  Uiso   1.00
H74    H     0.12020   0.98540   0.31440   0.00000  Uiso   1.00
C75    C     0.97820   0.44636   0.80000   0.00000  Uiso   1.00
H76    H     0.97810   0.46930   0.78030   0.00000  Uiso   1.00
C77    C     0.99436   0.45026   0.89490   0.00000  Uiso   1.00
H78    H     0.00590   0.47530   0.94940   0.00000  Uiso   1.00
C79    C     0.99047   0.41127   0.89440   0.00000  Uiso   1.00
H80    H     0.99940   0.40440   0.94790   0.00000  Uiso   1.00
C81    C     0.96999   0.38289   0.79630   0.00000  Uiso   1.00
C82    C     0.95867   0.33957   0.76240   0.00000  Uiso   1.00
C83    C     0.93593   0.31053   0.66740   0.00000  Uiso   1.00
C84    C     0.92295   0.26483   0.63010   0.00000  Uiso   1.00
H85    H     0.92920   0.24880   0.66470   0.00000  Uiso   1.00
C86    C     0.89996   0.24922   0.53550   0.00000  Uiso   1.00
H87    H     0.88670   0.21990   0.49140   0.00000  Uiso   1.00
C88    C     0.89952   0.28460   0.51530   0.00000  Uiso   1.00
H89    H     0.88560   0.28260   0.45400   0.00000  Uiso   1.00
C90    C     0.97356   0.32196   0.83340   0.00000  Uiso   1.00
C91    C     0.94152   0.28600   0.86320   0.00000  Uiso   1.00
H92    H     0.90890   0.27090   0.84000   0.00000  Uiso   1.00
C93    C     0.95720   0.27180   0.92780   0.00000  Uiso   1.00
H94    H     0.93470   0.24690   0.94890   0.00000  Uiso   1.00
C95    C     0.03302   0.32602   0.93060   0.00000  Uiso   1.00
H96    H     0.06540   0.34020   0.95350   0.00000  Uiso   1.00
C97    C     0.02002   0.34204   0.86670   0.00000  Uiso   1.00
H98    H     0.04290   0.36670   0.84580   0.00000  Uiso   1.00
C99    C     0.01279   0.49245   0.61740   0.00000  Uiso   1.00
H100   H     0.03830   0.49210   0.62600   0.00000  Uiso   1.00
C101   C     0.01745   0.53263   0.62000   0.00000  Uiso   1.00
H102   H     0.04600   0.56340   0.63070   0.00000  Uiso   1.00
C103   C     0.97348   0.51968   0.60430   0.00000  Uiso   1.00
H104   H     0.96560   0.53960   0.60180   0.00000  Uiso   1.00
C105   C     0.94146   0.47004   0.59230   0.00000  Uiso   1.00
C106   C     0.89376   0.44174   0.57920   0.00000  Uiso   1.00
C107   C     0.86341   0.39517   0.57590   0.00000  Uiso   1.00
C108   C     0.81324   0.36364   0.55420   0.00000  Uiso   1.00
H109   H     0.79340   0.37160   0.54240   0.00000  Uiso   1.00
C110   C     0.79886   0.32026   0.55350   0.00000  Uiso   1.00
H111   H     0.76740   0.29260   0.54210   0.00000  Uiso   1.00
C112   C     0.83950   0.32444   0.57300   0.00000  Uiso   1.00
H113   H     0.83920   0.29900   0.57600   0.00000  Uiso   1.00
C114   C     0.87077   0.46481   0.56690   0.00000  Uiso   1.00
C115   C     0.86523   0.47535   0.48330   0.00000  Uiso   1.00
H116   H     0.87520   0.46840   0.43370   0.00000  Uiso   1.00
C117   C     0.84496   0.49604   0.47390   0.00000  Uiso   1.00
H118   H     0.84010   0.50250   0.41630   0.00000  Uiso   1.00
C119   C     0.83786   0.49774   0.62340   0.00000  Uiso   1.00
H120   H     0.82900   0.50640   0.67320   0.00000  Uiso   1.00
C121   C     0.85659   0.47561   0.63640   0.00000  Uiso   1.00
H122   H     0.85950   0.46810   0.69350   0.00000  Uiso   1.00
C123   C     0.88731   0.35457   0.39160   0.00000  Uiso   1.00
H124   H     0.86560   0.35740   0.40980   0.00000  Uiso   1.00
C125   C     0.88294   0.33668   0.29760   0.00000  Uiso   1.00
H126   H     0.85840   0.32560   0.24230   0.00000  Uiso   1.00
C127   C     0.92067   0.33813   0.30080   0.00000  Uiso   1.00
H128   H     0.92730   0.32810   0.24800   0.00000  Uiso   1.00
C129   C     0.94837   0.35755   0.39880   0.00000  Uiso   1.00
C130   C     0.99020   0.36536   0.43580   0.00000  Uiso   1.00
C131   C     0.01940   0.38906   0.53160   0.00000  Uiso   1.00
C132   C     0.06311   0.39969   0.57070   0.00000  Uiso   1.00
H133   H     0.07780   0.39080   0.53790   0.00000  Uiso   1.00
C134   C     0.07990   0.42482   0.66380   0.00000  Uiso   1.00
H135   H     0.10890   0.43770   0.70830   0.00000  Uiso   1.00
C136   C     0.04564   0.42798   0.68130   0.00000  Uiso   1.00
H137   H     0.04810   0.44310   0.74190   0.00000  Uiso   1.00
C138   C     0.00505   0.34705   0.36870   0.00000  Uiso   1.00
C139   C     0.04677   0.37537   0.34720   0.00000  Uiso   1.00
H140   H     0.06840   0.40840   0.37830   0.00000  Uiso   1.00
C141   C     0.05672   0.35516   0.27980   0.00000  Uiso   1.00
H142   H     0.08550   0.37510   0.26610   0.00000  Uiso   1.00
C143   C     0.98800   0.28176   0.25580   0.00000  Uiso   1.00
H144   H     0.96720   0.24880   0.22390   0.00000  Uiso   1.00
C145   C     0.97548   0.29858   0.32180   0.00000  Uiso   1.00
H146   H     0.94700   0.27740   0.33550   0.00000  Uiso   1.00
C147   C     0.31964   0.76266   0.45610   0.00000  Uiso   1.00
H148   H     0.32010   0.78670   0.44100   0.00000  Uiso   1.00
C149   C     0.33506   0.76386   0.54950   0.00000  Uiso   1.00
H150   H     0.34690   0.78790   0.60670   0.00000  Uiso   1.00
C151   C     0.32963   0.72397   0.54150   0.00000  Uiso   1.00
H152   H     0.33750   0.71490   0.59230   0.00000  Uiso   1.00
C153   C     0.31005   0.69825   0.44310   0.00000  Uiso   1.00
C154   C     0.29894   0.65532   0.40230   0.00000  Uiso   1.00
C155   C     0.27832   0.62878   0.30770   0.00000  Uiso   1.00
C156   C     0.26385   0.58335   0.26600   0.00000  Uiso   1.00
H157   H     0.26770   0.56530   0.29860   0.00000  Uiso   1.00
C158   C     0.24342   0.57044   0.17030   0.00000  Uiso   1.00
H159   H     0.23000   0.54160   0.12410   0.00000  Uiso   1.00
C160   C     0.24606   0.60758   0.15390   0.00000  Uiso   1.00
H161   H     0.23490   0.60790   0.09280   0.00000  Uiso   1.00
C162   C     0.31334   0.63744   0.47100   0.00000  Uiso   1.00
C163   C     0.28398   0.60846   0.51720   0.00000  Uiso   1.00
H164   H     0.25210   0.59590   0.50160   0.00000  Uiso   1.00
C165   C     0.30211   0.59791   0.58760   0.00000  Uiso   1.00
H166   H     0.28160   0.57760   0.61880   0.00000  Uiso   1.00
C167   C     0.37346   0.64082   0.56590   0.00000  Uiso   1.00
H168   H     0.40490   0.65190   0.58260   0.00000  Uiso   1.00
C169   C     0.35918   0.65324   0.49310   0.00000  Uiso   1.00
H170   H     0.38000   0.67180   0.46010   0.00000  Uiso   1.00
C171   C     0.18342   0.64292   0.21270   0.00000  Uiso   1.00
H172   H     0.18350   0.61730   0.20990   0.00000  Uiso   1.00
C173   C     0.14242   0.63816   0.19460   0.00000  Uiso   1.00
H174   H     0.11090   0.60970   0.17740   0.00000  Uiso   1.00
C175   C     0.15695   0.68263   0.20650   0.00000  Uiso   1.00
H176   H     0.13730   0.69090   0.19960   0.00000  Uiso   1.00
C177   C     0.20734   0.71442   0.23140   0.00000  Uiso   1.00
C178   C     0.19990   0.79158   0.32560   0.00000  Uiso   1.00
H179   H     0.20320   0.78140   0.37840   0.00000  Uiso   1.00
C180   C     0.18015   0.81307   0.32320   0.00000  Uiso   1.00
H181   H     0.17110   0.81830   0.37640   0.00000  Uiso   1.00
C182   C     0.62300   0.49884   0.88430   0.00000  Uiso   1.00
H183   H     0.64050   0.52850   0.87300   0.00000  Uiso   1.00
C184   C     0.64362   0.48432   0.93730   0.00000  Uiso   1.00
H185   H     0.67620   0.50140   0.96770   0.00000  Uiso   1.00
C186   C     0.60645   0.44019   0.93560   0.00000  Uiso   1.00
H187   H     0.60860   0.42020   0.96420   0.00000  Uiso   1.00
C188   C     0.56441   0.42945   0.88370   0.00000  Uiso   1.00
C189   C     0.51811   0.38857   0.86830   0.00000  Uiso   1.00
C190   C     0.47701   0.37969   0.81780   0.00000  Uiso   1.00
C191   C     0.42964   0.33974   0.80360   0.00000  Uiso   1.00
H192   H     0.41990   0.31390   0.82690   0.00000  Uiso   1.00
C193   C     0.40089   0.34473   0.75140   0.00000  Uiso   1.00
H194   H     0.36740   0.32340   0.73050   0.00000  Uiso   1.00
C195   C     0.43077   0.38791   0.73460   0.00000  Uiso   1.00
H196   H     0.41960   0.40020   0.69910   0.00000  Uiso   1.00
C197   C     0.51116   0.35032   0.90330   0.00000  Uiso   1.00
C198   C     0.51585   0.35071   0.99610   0.00000  Uiso   1.00
H199   H     0.52500   0.37720   0.04360   0.00000  Uiso   1.00
C200   C     0.50718   0.31238   0.02070   0.00000  Uiso   1.00
H201   H     0.51040   0.31340   0.08540   0.00000  Uiso   1.00
C202   C     0.49139   0.27435   0.86910   0.00000  Uiso   1.00
H203   H     0.48350   0.24770   0.82440   0.00000  Uiso   1.00
C204   C     0.49859   0.30991   0.83520   0.00000  Uiso   1.00
H205   H     0.49540   0.30780   0.77000   0.00000  Uiso   1.00
C206   C     0.47238   0.44576   0.55670   0.00000  Uiso   1.00
H207   H     0.47880   0.42640   0.52890   0.00000  Uiso   1.00
C208   C     0.44387   0.45397   0.50410   0.00000  Uiso   1.00
H209   H     0.42870   0.44210   0.43740   0.00000  Uiso   1.00
C210   C     0.44353   0.48281   0.57150   0.00000  Uiso   1.00
H211   H     0.42690   0.49430   0.55970   0.00000  Uiso   1.00
C212   C     0.47160   0.49292   0.66140   0.00000  Uiso   1.00
C213   C     0.47407   0.57975   0.71330   0.00000  Uiso   1.00
H214   H     0.49920   0.59120   0.68690   0.00000  Uiso   1.00
C215   C     0.45220   0.60030   0.71660   0.00000  Uiso   1.00
H216   H     0.46380   0.62660   0.69410   0.00000  Uiso   1.00
C217   C     0.18589   0.42371   0.07390   0.00000  Uiso   1.00
C218   C     0.76829   0.51109   0.16090   0.00000  Uiso   1.00
C219   C     0.12402   0.86658   0.88030   0.00000  Uiso   1.00
F220   F     0.16316   0.43632   0.03380   0.00000  Uiso   1.00
F221   F     0.18240   0.39432   0.00480   0.00000  Uiso   1.00
F222   F     0.23059   0.46265   0.11050   0.00000  Uiso   1.00
F223   F     0.80811   0.52231   0.15490   0.00000  Uiso   1.00
F224   F     0.77265   0.54929   0.17280   0.00000  Uiso   1.00
F225   F     0.73560   0.48120   0.07760   0.00000  Uiso   1.00
F226   F     0.16045   0.91481   0.92260   0.00000  Uiso   1.00
F227   F     0.09079   0.86481   0.82470   0.00000  Uiso   1.00
F228   F     0.13154   0.83720   0.85560   0.00000  Uiso   1.00
Ga229  Ga    0.16990   0.11935   0.10869   0.00000  Uiso   1.00
Ga230  Ga    0.94357   0.38815   0.59632   0.00000  Uiso   1.00
N231   N     0.12280   0.11446   0.00710   0.00000  Uiso   1.00
N232   N     0.16326   0.15724   0.20810   0.00000  Uiso   1.00
N233   N     0.05618   0.23782   0.09520   0.00000  Uiso   1.00
N234   N     0.17828   0.08066   0.01220   0.00000  Uiso   1.00
N235   N     0.22531   0.17779   0.08700   0.00000  Uiso   1.00
N236   N     0.38670   0.17726   0.98120   0.00000  Uiso   1.00
N237   N     0.21863   0.12549   0.21330   0.00000  Uiso   1.00
N238   N     0.11894   0.05862   0.13090   0.00000  Uiso   1.00
N239   N     0.16983   0.93549   0.26890   0.00000  Uiso   1.00
N240   N     0.96279   0.40529   0.74010   0.00000  Uiso   1.00
N241   N     0.92098   0.32124   0.59260   0.00000  Uiso   1.00
N242   N     0.00245   0.29157   0.96190   0.00000  Uiso   1.00
N243   N     0.96768   0.45432   0.60110   0.00000  Uiso   1.00
N244   N     0.87890   0.36864   0.58710   0.00000  Uiso   1.00
N245   N     0.49280   0.16802   0.95680   0.00000  Uiso   1.00
N246   N     0.92615   0.36721   0.45270   0.00000  Uiso   1.00
N247   N     0.00922   0.40724   0.60260   0.00000  Uiso   1.00
N248   N     0.02786   0.30926   0.23380   0.00000  Uiso   1.00
N249   N     0.30453   0.72381   0.39200   0.00000  Uiso   1.00
N250   N     0.26648   0.64304   0.23490   0.00000  Uiso   1.00
N251   N     0.34564   0.61432   0.61300   0.00000  Uiso   1.00
N252   N     0.22206   0.68752   0.23414   0.00000  Uiso   1.00
N253   N     0.57678   0.46720   0.85190   0.00000  Uiso   1.00
N254   N     0.47695   0.41035   0.77380   0.00000  Uiso   1.00
N255   N     0.49451   0.27399   0.95750   0.00000  Uiso   1.00
N256   N     0.48866   0.46840   0.64850   0.00000  Uiso   1.00
O257   O     0.19133   0.38631   0.19870   0.00000  Uiso   1.00
O258   O     0.16740   0.43362   0.22690   0.00000  Uiso   1.00
O259   O     0.11408   0.35650   0.10940   0.00000  Uiso   1.00
O260   O     0.70647   0.47505   0.25000   0.00000  Uiso   1.00
O261   O     0.79000   0.52302   0.33980   0.00000  Uiso   1.00
O262   O     0.74823   0.44521   0.23260   0.00000  Uiso   1.00
O263   O     0.06018   0.80052   0.94130   0.00000  Uiso   1.00
O264   O     0.14080   0.85624   0.04950   0.00000  Uiso   1.00
O265   O     0.09394   0.88362   0.00860   0.00000  Uiso   1.00
S266   S     0.16215   0.39705   0.16234   0.00000  Uiso   1.00
S267   S     0.75087   0.48555   0.25659   0.00000  Uiso   1.00
S268   S     0.10459   0.84487   0.97395   0.00000  Uiso   1.00
Ag269  Ag    0.72238   0.97091   0.41149   0.00000  Uiso   1.00
Ag270  Ag    0.79915   0.54163   0.52109   0.00000  Uiso   1.00
C271   C     0.90763   0.89245   0.58680   0.00000  Uiso   1.00
H272   H     0.92640   0.88520   0.61390   0.00000  Uiso   1.00
C273   C     0.89977   0.92027   0.64050   0.00000  Uiso   1.00
H274   H     0.91280   0.93560   0.70710   0.00000  Uiso   1.00
C275   C     0.86928   0.92068   0.57640   0.00000  Uiso   1.00
H276   H     0.85650   0.93570   0.59120   0.00000  Uiso   1.00
C277   C     0.86013   0.89393   0.48200   0.00000  Uiso   1.00
C278   C     0.83341   0.88613   0.39560   0.00000  Uiso   1.00
C279   C     0.82616   0.86126   0.30570   0.00000  Uiso   1.00
C280   C     0.80114   0.85584   0.21500   0.00000  Uiso   1.00
H281   H     0.78620   0.86900   0.20390   0.00000  Uiso   1.00
C282   C     0.80291   0.82863   0.14840   0.00000  Uiso   1.00
H283   H     0.78970   0.81930   0.08150   0.00000  Uiso   1.00
C284   C     0.82806   0.81660   0.19640   0.00000  Uiso   1.00
H285   H     0.83390   0.79710   0.16610   0.00000  Uiso   1.00
C286   C     0.80908   0.90764   0.39870   0.00000  Uiso   1.00
C287   C     0.83355   0.95491   0.42390   0.00000  Uiso   1.00
H288   H     0.86690   0.97610   0.43970   0.00000  Uiso   1.00
C289   C     0.80860   0.97232   0.42620   0.00000  Uiso   1.00
H290   H     0.82580   0.00540   0.44370   0.00000  Uiso   1.00
C291   C     0.73928   0.89842   0.37990   0.00000  Uiso   1.00
H292   H     0.70600   0.87760   0.36490   0.00000  Uiso   1.00
C293   C     0.76181   0.87923   0.37470   0.00000  Uiso   1.00
H294   H     0.74360   0.84600   0.35400   0.00000  Uiso   1.00
C295   C     0.96572   0.85018   0.52550   0.00000  Uiso   1.00
H296   H     0.98640   0.88180   0.52450   0.00000  Uiso   1.00
C297   C     0.98118   0.82772   0.56820   0.00000  Uiso   1.00
H298   H     0.01260   0.84120   0.60040   0.00000  Uiso   1.00
C299   C     0.94160   0.78346   0.55260   0.00000  Uiso   1.00
H300   H     0.94020   0.75940   0.57040   0.00000  Uiso   1.00
C301   C     0.90214   0.77866   0.50540   0.00000  Uiso   1.00
C302   C     0.85426   0.73964   0.48080   0.00000  Uiso   1.00
C303   C     0.81742   0.73862   0.44150   0.00000  Uiso   1.00
C304   C     0.76836   0.70242   0.42700   0.00000  Uiso   1.00
H305   H     0.75460   0.67340   0.43970   0.00000  Uiso   1.00
C306   C     0.74440   0.71702   0.39100   0.00000  Uiso   1.00
H307   H     0.71140   0.70040   0.37500   0.00000  Uiso   1.00
C308   C     0.77870   0.76126   0.38320   0.00000  Uiso   1.00
H309   H     0.77220   0.77960   0.35970   0.00000  Uiso   1.00
C310   C     0.84285   0.69571   0.49570   0.00000  Uiso   1.00
C311   C     0.82782   0.68080   0.56630   0.00000  Uiso   1.00
H312   H     0.82150   0.69670   0.60830   0.00000  Uiso   1.00
C313   C     0.82121   0.64039   0.57850   0.00000  Uiso   1.00
H314   H     0.81520   0.63300   0.63520   0.00000  Uiso   1.00
C315   C     0.83579   0.62765   0.44300   0.00000  Uiso   1.00
H316   H     0.83820   0.60880   0.39790   0.00000  Uiso   1.00
C317   C     0.84596   0.66840   0.42740   0.00000  Uiso   1.00
H318   H     0.85450   0.67710   0.37320   0.00000  Uiso   1.00
C319   C     0.83585   0.73451   0.24570   0.00000  Uiso   1.00
H320   H     0.80530   0.72010   0.25100   0.00000  Uiso   1.00
C321   C     0.84881   0.71103   0.19450   0.00000  Uiso   1.00
H322   H     0.82840   0.67840   0.15960   0.00000  Uiso   1.00
C323   C     0.89534   0.74292   0.20360   0.00000  Uiso   1.00
H324   H     0.91350   0.73690   0.17700   0.00000  Uiso   1.00
C325   C     0.91223   0.78869   0.26270   0.00000  Uiso   1.00
C326   C     0.95686   0.83198   0.28580   0.00000  Uiso   1.00
C327   C     0.97094   0.87556   0.33070   0.00000  Uiso   1.00
C328   C     0.01480   0.92116   0.35040   0.00000  Uiso   1.00
H329   H     0.04160   0.92800   0.33510   0.00000  Uiso   1.00
C330   C     0.01179   0.95385   0.39560   0.00000  Uiso   1.00
H331   H     0.03540   0.98720   0.41440   0.00000  Uiso   1.00
C332   C     0.96741   0.92879   0.40830   0.00000  Uiso   1.00
H333   H     0.95650   0.94290   0.44000   0.00000  Uiso   1.00
C334   C     0.99413   0.83119   0.26200   0.00000  Uiso   1.00
C335   C     0.01189   0.81613   0.31660   0.00000  Uiso   1.00
H336   H     0.00010   0.80530   0.36670   0.00000  Uiso   1.00
C337   C     0.04728   0.81678   0.29840   0.00000  Uiso   1.00
H338   H     0.05970   0.80670   0.33810   0.00000  Uiso   1.00
C339   C     0.05680   0.86220   0.18880   0.00000  Uiso   1.00
H340   H     0.07540   0.88080   0.15300   0.00000  Uiso   1.00
C341   C     0.02125   0.86115   0.20770   0.00000  Uiso   1.00
H342   H     0.01460   0.87980   0.18560   0.00000  Uiso   1.00
C343   C     0.55364   0.02180   0.70000   0.00000  Uiso   1.00
H344   H     0.53070   0.02190   0.71970   0.00000  Uiso   1.00
C345   C     0.54974   0.00564   0.60510   0.00000  Uiso   1.00
H346   H     0.52470   0.99410   0.55060   0.00000  Uiso   1.00
C347   C     0.58873   0.00953   0.60560   0.00000  Uiso   1.00
H348   H     0.59560   0.00060   0.55210   0.00000  Uiso   1.00
C349   C     0.61711   0.03001   0.70370   0.00000  Uiso   1.00
C350   C     0.66043   0.04133   0.73760   0.00000  Uiso   1.00
C351   C     0.68947   0.06407   0.83260   0.00000  Uiso   1.00
C352   C     0.73517   0.07705   0.86990   0.00000  Uiso   1.00
H353   H     0.75120   0.07080   0.83530   0.00000  Uiso   1.00
C354   C     0.75078   0.10004   0.96450   0.00000  Uiso   1.00
H355   H     0.78010   0.11330   0.00860   0.00000  Uiso   1.00
C356   C     0.71540   0.10048   0.98470   0.00000  Uiso   1.00
H357   H     0.71740   0.11440   0.04600   0.00000  Uiso   1.00
C358   C     0.67804   0.02644   0.66660   0.00000  Uiso   1.00
C359   C     0.71400   0.05848   0.63680   0.00000  Uiso   1.00
H360   H     0.72910   0.09110   0.66000   0.00000  Uiso   1.00
C361   C     0.72820   0.04280   0.57220   0.00000  Uiso   1.00
H362   H     0.75310   0.06530   0.55110   0.00000  Uiso   1.00
C363   C     0.67398   0.96698   0.56940   0.00000  Uiso   1.00
H364   H     0.65980   0.93460   0.54650   0.00000  Uiso   1.00
C365   C     0.65796   0.97998   0.63330   0.00000  Uiso   1.00
H366   H     0.63330   0.95710   0.65420   0.00000  Uiso   1.00
C367   C     0.50755   0.98721   0.88260   0.00000  Uiso   1.00
H368   H     0.50790   0.96170   0.87400   0.00000  Uiso   1.00
C369   C     0.46737   0.98255   0.88000   0.00000  Uiso   1.00
H370   H     0.43660   0.95400   0.86930   0.00000  Uiso   1.00
C371   C     0.48032   0.02652   0.89570   0.00000  Uiso   1.00
H372   H     0.46040   0.03440   0.89820   0.00000  Uiso   1.00
C373   C     0.52996   0.05854   0.90770   0.00000  Uiso   1.00
C374   C     0.55826   0.10624   0.92080   0.00000  Uiso   1.00
C375   C     0.60483   0.13659   0.92410   0.00000  Uiso   1.00
C376   C     0.63636   0.18676   0.94580   0.00000  Uiso   1.00
H377   H     0.62840   0.20660   0.95760   0.00000  Uiso   1.00
C378   C     0.67974   0.20114   0.94650   0.00000  Uiso   1.00
H379   H     0.70740   0.23260   0.95790   0.00000  Uiso   1.00
C380   C     0.67556   0.16050   0.92700   0.00000  Uiso   1.00
H381   H     0.70100   0.16080   0.92400   0.00000  Uiso   1.00
C382   C     0.53519   0.12923   0.93310   0.00000  Uiso   1.00
C383   C     0.52465   0.13477   0.01670   0.00000  Uiso   1.00
H384   H     0.53160   0.12480   0.06630   0.00000  Uiso   1.00
C385   C     0.50396   0.15504   0.02610   0.00000  Uiso   1.00
H386   H     0.49750   0.15990   0.08370   0.00000  Uiso   1.00
C387   C     0.50226   0.16214   0.87660   0.00000  Uiso   1.00
H388   H     0.49360   0.17100   0.82680   0.00000  Uiso   1.00
C389   C     0.52439   0.14341   0.86360   0.00000  Uiso   1.00
H390   H     0.53190   0.14050   0.80650   0.00000  Uiso   1.00
C391   C     0.64543   0.11269   0.10840   0.00000  Uiso   1.00
H392   H     0.64260   0.13440   0.09020   0.00000  Uiso   1.00
C393   C     0.66332   0.11706   0.20240   0.00000  Uiso   1.00
H394   H     0.67440   0.14160   0.25770   0.00000  Uiso   1.00
C395   C     0.66187   0.07933   0.19920   0.00000  Uiso   1.00
H396   H     0.67190   0.07270   0.25200   0.00000  Uiso   1.00
C397   C     0.64245   0.05163   0.10120   0.00000  Uiso   1.00
C398   C     0.63464   0.00980   0.06420   0.00000  Uiso   1.00
C399   C     0.61094   0.98060   0.96840   0.00000  Uiso   1.00
C400   C     0.60031   0.93689   0.92930   0.00000  Uiso   1.00
H401   H     0.60920   0.92220   0.96210   0.00000  Uiso   1.00
C402   C     0.57518   0.92010   0.83620   0.00000  Uiso   1.00
H403   H     0.56230   0.89110   0.79170   0.00000  Uiso   1.00
C404   C     0.57202   0.95436   0.81870   0.00000  Uiso   1.00
H405   H     0.55690   0.95190   0.75810   0.00000  Uiso   1.00
C406   C     0.65295   0.99495   0.13130   0.00000  Uiso   1.00
C407   C     0.62463   0.95323   0.15280   0.00000  Uiso   1.00
H408   H     0.59160   0.93160   0.12170   0.00000  Uiso   1.00
C409   C     0.64484   0.94328   0.22020   0.00000  Uiso   1.00
H410   H     0.62490   0.91450   0.23390   0.00000  Uiso   1.00
C411   C     0.71824   0.01200   0.24420   0.00000  Uiso   1.00
H412   H     0.75120   0.03280   0.27610   0.00000  Uiso   1.00
C413   C     0.70142   0.02452   0.17820   0.00000  Uiso   1.00
H414   H     0.72260   0.05300   0.16450   0.00000  Uiso   1.00
C415   C     0.23734   0.68036   0.04390   0.00000  Uiso   1.00
H416   H     0.21330   0.67990   0.05900   0.00000  Uiso   1.00
C417   C     0.23614   0.66494   0.95050   0.00000  Uiso   1.00
H418   H     0.21210   0.65310   0.89330   0.00000  Uiso   1.00
C419   C     0.27603   0.67037   0.95850   0.00000  Uiso   1.00
H420   H     0.28510   0.66250   0.90770   0.00000  Uiso   1.00
C421   C     0.30175   0.68995   0.05690   0.00000  Uiso   1.00
C422   C     0.34468   0.70106   0.09770   0.00000  Uiso   1.00
C423   C     0.37122   0.72168   0.19230   0.00000  Uiso   1.00
C424   C     0.41665   0.73615   0.23400   0.00000  Uiso   1.00
H425   H     0.43470   0.73230   0.20140   0.00000  Uiso   1.00
C426   C     0.42956   0.75658   0.32970   0.00000  Uiso   1.00
H427   H     0.45840   0.77000   0.37590   0.00000  Uiso   1.00
C428   C     0.39242   0.75394   0.34610   0.00000  Uiso   1.00
H429   H     0.39210   0.76510   0.40720   0.00000  Uiso   1.00
C430   C     0.36256   0.68666   0.02900   0.00000  Uiso   1.00
C431   C     0.39154   0.71602   0.98280   0.00000  Uiso   1.00
H432   H     0.40410   0.74790   0.99840   0.00000  Uiso   1.00
C433   C     0.40209   0.69789   0.91240   0.00000  Uiso   1.00
H434   H     0.42240   0.71840   0.88120   0.00000  Uiso   1.00
C435   C     0.35918   0.62654   0.93410   0.00000  Uiso   1.00
H436   H     0.34810   0.59510   0.91740   0.00000  Uiso   1.00
C437   C     0.34676   0.64082   0.00690   0.00000  Uiso   1.00
H438   H     0.32820   0.62000   0.03990   0.00000  Uiso   1.00
C439   C     0.35708   0.81658   0.28730   0.00000  Uiso   1.00
H440   H     0.38270   0.81650   0.29010   0.00000  Uiso   1.00
C441   C     0.36184   0.85758   0.30540   0.00000  Uiso   1.00
H442   H     0.39030   0.88910   0.32260   0.00000  Uiso   1.00
C443   C     0.31737   0.84305   0.29350   0.00000  Uiso   1.00
H444   H     0.30910   0.86270   0.30040   0.00000  Uiso   1.00
C445   C     0.28558   0.79266   0.26860   0.00000  Uiso   1.00
C446   C     0.20842   0.80010   0.17440   0.00000  Uiso   1.00
H447   H     0.21860   0.79680   0.12160   0.00000  Uiso   1.00
C448   C     0.18693   0.81985   0.17680   0.00000  Uiso   1.00
H449   H     0.18170   0.82890   0.12360   0.00000  Uiso   1.00
C450   C     0.50116   0.37700   0.61570   0.00000  Uiso   1.00
H451   H     0.47150   0.35950   0.62700   0.00000  Uiso   1.00
C452   C     0.51568   0.35638   0.56270   0.00000  Uiso   1.00
H453   H     0.49860   0.32380   0.53230   0.00000  Uiso   1.00
C454   C     0.55981   0.39355   0.56440   0.00000  Uiso   1.00
H455   H     0.57980   0.39140   0.53580   0.00000  Uiso   1.00
C456   C     0.57055   0.43559   0.61630   0.00000  Uiso   1.00
C457   C     0.61143   0.48189   0.63170   0.00000  Uiso   1.00
C458   C     0.62031   0.52299   0.68220   0.00000  Uiso   1.00
C459   C     0.66026   0.57036   0.69640   0.00000  Uiso   1.00
H460   H     0.68610   0.58010   0.67310   0.00000  Uiso   1.00
C461   C     0.65527   0.59911   0.74860   0.00000  Uiso   1.00
H462   H     0.67660   0.63260   0.76950   0.00000  Uiso   1.00
C463   C     0.61209   0.56923   0.76540   0.00000  Uiso   1.00
H464   H     0.59980   0.58040   0.80090   0.00000  Uiso   1.00
C465   C     0.64968   0.48884   0.59670   0.00000  Uiso   1.00
C466   C     0.64929   0.48415   0.50390   0.00000  Uiso   1.00
H467   H     0.62280   0.47500   0.45640   0.00000  Uiso   1.00
C468   C     0.68762   0.49282   0.47930   0.00000  Uiso   1.00
H469   H     0.68660   0.48960   0.41460   0.00000  Uiso   1.00
C470   C     0.72565   0.50861   0.63090   0.00000  Uiso   1.00
H471   H     0.75230   0.51650   0.67560   0.00000  Uiso   1.00
C472   C     0.69009   0.50141   0.66480   0.00000  Uiso   1.00
H473   H     0.69220   0.50460   0.73000   0.00000  Uiso   1.00
C474   C     0.55424   0.52762   0.94330   0.00000  Uiso   1.00
H475   H     0.57360   0.52120   0.97110   0.00000  Uiso   1.00
C476   C     0.54603   0.55613   0.99590   0.00000  Uiso   1.00
H477   H     0.55790   0.57130   0.06260   0.00000  Uiso   1.00
C478   C     0.51719   0.55647   0.92850   0.00000  Uiso   1.00
H479   H     0.50570   0.57310   0.94030   0.00000  Uiso   1.00
C480   C     0.50708   0.52840   0.83860   0.00000  Uiso   1.00
C481   C     0.42025   0.52593   0.78670   0.00000  Uiso   1.00
H482   H     0.40880   0.50080   0.81310   0.00000  Uiso   1.00
C483   C     0.39970   0.54780   0.78340   0.00000  Uiso   1.00
H484   H     0.37340   0.53620   0.80590   0.00000  Uiso   1.00
C485   C     0.57629   0.81411   0.42610   0.00000  Uiso   1.00
C486   C     0.48891   0.23171   0.33910   0.00000  Uiso   1.00
C487   C     0.13342   0.87598   0.61970   0.00000  Uiso   1.00
F488   F     0.56368   0.83684   0.46620   0.00000  Uiso   1.00
F489   F     0.60568   0.81760   0.49520   0.00000  Uiso   1.00
F490   F     0.53735   0.76941   0.38950   0.00000  Uiso   1.00
F491   F     0.47769   0.19189   0.34510   0.00000  Uiso   1.00
F492   F     0.45071   0.22735   0.32720   0.00000  Uiso   1.00
F493   F     0.51880   0.26440   0.42240   0.00000  Uiso   1.00
F494   F     0.08519   0.83955   0.57740   0.00000  Uiso   1.00
F495   F     0.13519   0.90921   0.67530   0.00000  Uiso   1.00
F496   F     0.16280   0.86846   0.64440   0.00000  Uiso   1.00
Ga497  Ga    0.88065   0.83010   0.39131   0.00000  Uiso   1.00
Ga498  Ga    0.61185   0.05643   0.90368   0.00000  Uiso   1.00
N499   N     0.88554   0.87720   0.49290   0.00000  Uiso   1.00
N500   N     0.84276   0.83674   0.29190   0.00000  Uiso   1.00
N501   N     0.76218   0.94382   0.40480   0.00000  Uiso   1.00
N502   N     0.91934   0.82172   0.48780   0.00000  Uiso   1.00
N503   N     0.82221   0.77469   0.41300   0.00000  Uiso   1.00
N504   N     0.82274   0.61330   0.51880   0.00000  Uiso   1.00
N505   N     0.87451   0.78137   0.28670   0.00000  Uiso   1.00
N506   N     0.94138   0.88106   0.36910   0.00000  Uiso   1.00
N507   N     0.06451   0.83017   0.23110   0.00000  Uiso   1.00
N508   N     0.59471   0.03721   0.75990   0.00000  Uiso   1.00
N509   N     0.67876   0.07902   0.90740   0.00000  Uiso   1.00
N510   N     0.70843   0.99755   0.53810   0.00000  Uiso   1.00
N511   N     0.54568   0.03232   0.89890   0.00000  Uiso   1.00
N512   N     0.63136   0.12110   0.91290   0.00000  Uiso   1.00
N513   N     0.83198   0.50720   0.54320   0.00000  Uiso   1.00
N514   N     0.63279   0.07385   0.04730   0.00000  Uiso   1.00
N515   N     0.59276   0.99078   0.89740   0.00000  Uiso   1.00
N516   N     0.69074   0.97214   0.26620   0.00000  Uiso   1.00
N517   N     0.27619   0.69547   0.10800   0.00000  Uiso   1.00
N518   N     0.35696   0.73352   0.26510   0.00000  Uiso   1.00
N519   N     0.38568   0.65436   0.88700   0.00000  Uiso   1.00
N520   N     0.31248   0.77794   0.26586   0.00000  Uiso   1.00
N521   N     0.53280   0.42322   0.64810   0.00000  Uiso   1.00
N522   N     0.58965   0.52305   0.72620   0.00000  Uiso   1.00
N523   N     0.72601   0.50549   0.54250   0.00000  Uiso   1.00
N524   N     0.53160   0.51134   0.85150   0.00000  Uiso   1.00
O525   O     0.61369   0.80867   0.30130   0.00000  Uiso   1.00
O526   O     0.56638   0.83260   0.27310   0.00000  Uiso   1.00
O527   O     0.64350   0.88592   0.39060   0.00000  Uiso   1.00
O528   O     0.52495   0.29353   0.25000   0.00000  Uiso   1.00
O529   O     0.47698   0.21000   0.16020   0.00000  Uiso   1.00
O530   O     0.55479   0.25177   0.26740   0.00000  Uiso   1.00
O531   O     0.19948   0.93982   0.55870   0.00000  Uiso   1.00
O532   O     0.14376   0.85920   0.45050   0.00000  Uiso   1.00
O533   O     0.11638   0.90606   0.49140   0.00000  Uiso   1.00
S534   S     0.60295   0.83785   0.33766   0.00000  Uiso   1.00
S535   S     0.51445   0.24913   0.24341   0.00000  Uiso   1.00
S536   S     0.15513   0.89541   0.52605   0.00000  Uiso   1.00
Ag537  Ag    0.97091   0.72238   0.91149   0.00000  Uiso   1.00
Ag538  Ag    0.54163   0.79915   0.02109   0.00000  Uiso   1.00
C539   C     0.89245   0.90763   0.08680   0.00000  Uiso   1.00
H540   H     0.88520   0.92640   0.11390   0.00000  Uiso   1.00
C541   C     0.92027   0.89977   0.14050   0.00000  Uiso   1.00
H542   H     0.93560   0.91280   0.20710   0.00000  Uiso   1.00
C543   C     0.92068   0.86928   0.07640   0.00000  Uiso   1.00
H544   H     0.93570   0.85650   0.09120   0.00000  Uiso   1.00
C545   C     0.89393   0.86013   0.98200   0.00000  Uiso   1.00
C546   C     0.88613   0.83341   0.89560   0.00000  Uiso   1.00
C547   C     0.86126   0.82616   0.80570   0.00000  Uiso   1.00
C548   C     0.85584   0.80114   0.71500   0.00000  Uiso   1.00
H549   H     0.86900   0.78620   0.70390   0.00000  Uiso   1.00
C550   C     0.82863   0.80291   0.64840   0.00000  Uiso   1.00
H551   H     0.81930   0.78970   0.58150   0.00000  Uiso   1.00
C552   C     0.81660   0.82806   0.69640   0.00000  Uiso   1.00
H553   H     0.79710   0.83390   0.66610   0.00000  Uiso   1.00
C554   C     0.90764   0.80908   0.89870   0.00000  Uiso   1.00
C555   C     0.95491   0.83355   0.92390   0.00000  Uiso   1.00
H556   H     0.97610   0.86690   0.93970   0.00000  Uiso   1.00
C557   C     0.97232   0.80860   0.92620   0.00000  Uiso   1.00
H558   H     0.00540   0.82580   0.94370   0.00000  Uiso   1.00
C559   C     0.89842   0.73928   0.87990   0.00000  Uiso   1.00
H560   H     0.87760   0.70600   0.86490   0.00000  Uiso   1.00
C561   C     0.87923   0.76181   0.87470   0.00000  Uiso   1.00
H562   H     0.84600   0.74360   0.85400   0.00000  Uiso   1.00
C563   C     0.85018   0.96572   0.02550   0.00000  Uiso   1.00
H564   H     0.88180   0.98640   0.02450   0.00000  Uiso   1.00
C565   C     0.82772   0.98118   0.06820   0.00000  Uiso   1.00
H566   H     0.84120   0.01260   0.10040   0.00000  Uiso   1.00
C567   C     0.78346   0.94160   0.05260   0.00000  Uiso   1.00
H568   H     0.75940   0.94020   0.07040   0.00000  Uiso   1.00
C569   C     0.77866   0.90214   0.00540   0.00000  Uiso   1.00
C570   C     0.73964   0.85426   0.98080   0.00000  Uiso   1.00
C571   C     0.73862   0.81742   0.94150   0.00000  Uiso   1.00
C572   C     0.70242   0.76836   0.92700   0.00000  Uiso   1.00
H573   H     0.67340   0.75460   0.93970   0.00000  Uiso   1.00
C574   C     0.71702   0.74440   0.89100   0.00000  Uiso   1.00
H575   H     0.70040   0.71140   0.87500   0.00000  Uiso   1.00
C576   C     0.76126   0.77870   0.88320   0.00000  Uiso   1.00
H577   H     0.77960   0.77220   0.85970   0.00000  Uiso   1.00
C578   C     0.69571   0.84285   0.99570   0.00000  Uiso   1.00
C579   C     0.68080   0.82782   0.06630   0.00000  Uiso   1.00
H580   H     0.69670   0.82150   0.10830   0.00000  Uiso   1.00
C581   C     0.64039   0.82121   0.07850   0.00000  Uiso   1.00
H582   H     0.63300   0.81520   0.13520   0.00000  Uiso   1.00
C583   C     0.62765   0.83579   0.94300   0.00000  Uiso   1.00
H584   H     0.60880   0.83820   0.89790   0.00000  Uiso   1.00
C585   C     0.66840   0.84596   0.92740   0.00000  Uiso   1.00
H586   H     0.67710   0.85450   0.87320   0.00000  Uiso   1.00
C587   C     0.73451   0.83585   0.74570   0.00000  Uiso   1.00
H588   H     0.72010   0.80530   0.75100   0.00000  Uiso   1.00
C589   C     0.71103   0.84881   0.69450   0.00000  Uiso   1.00
H590   H     0.67840   0.82840   0.65960   0.00000  Uiso   1.00
C591   C     0.74292   0.89534   0.70360   0.00000  Uiso   1.00
H592   H     0.73690   0.91350   0.67700   0.00000  Uiso   1.00
C593   C     0.78869   0.91223   0.76270   0.00000  Uiso   1.00
C594   C     0.83198   0.95686   0.78580   0.00000  Uiso   1.00
C595   C     0.87556   0.97094   0.83070   0.00000  Uiso   1.00
C596   C     0.92116   0.01480   0.85040   0.00000  Uiso   1.00
H597   H     0.92800   0.04160   0.83510   0.00000  Uiso   1.00
C598   C     0.95385   0.01179   0.89560   0.00000  Uiso   1.00
H599   H     0.98720   0.03540   0.91440   0.00000  Uiso   1.00
C600   C     0.92879   0.96741   0.90830   0.00000  Uiso   1.00
H601   H     0.94290   0.95650   0.94000   0.00000  Uiso   1.00
C602   C     0.83119   0.99413   0.76200   0.00000  Uiso   1.00
C603   C     0.81613   0.01189   0.81660   0.00000  Uiso   1.00
H604   H     0.80530   0.00010   0.86670   0.00000  Uiso   1.00
C605   C     0.81678   0.04728   0.79840   0.00000  Uiso   1.00
H606   H     0.80670   0.05970   0.83810   0.00000  Uiso   1.00
C607   C     0.86220   0.05680   0.68880   0.00000  Uiso   1.00
H608   H     0.88080   0.07540   0.65300   0.00000  Uiso   1.00
C609   C     0.86115   0.02125   0.70770   0.00000  Uiso   1.00
H610   H     0.87980   0.01460   0.68560   0.00000  Uiso   1.00
C611   C     0.02180   0.55364   0.20000   0.00000  Uiso   1.00
H612   H     0.02190   0.53070   0.21970   0.00000  Uiso   1.00
C613   C     0.00564   0.54974   0.10510   0.00000  Uiso   1.00
H614   H     0.99410   0.52470   0.05060   0.00000  Uiso   1.00
C615   C     0.00953   0.58873   0.10560   0.00000  Uiso   1.00
H616   H     0.00060   0.59560   0.05210   0.00000  Uiso   1.00
C617   C     0.03001   0.61711   0.20370   0.00000  Uiso   1.00
C618   C     0.04133   0.66043   0.23760   0.00000  Uiso   1.00
C619   C     0.06407   0.68947   0.33260   0.00000  Uiso   1.00
C620   C     0.07705   0.73517   0.36990   0.00000  Uiso   1.00
H621   H     0.07080   0.75120   0.33530   0.00000  Uiso   1.00
C622   C     0.10004   0.75078   0.46450   0.00000  Uiso   1.00
H623   H     0.11330   0.78010   0.50860   0.00000  Uiso   1.00
C624   C     0.10048   0.71540   0.48470   0.00000  Uiso   1.00
H625   H     0.11440   0.71740   0.54600   0.00000  Uiso   1.00
C626   C     0.02644   0.67804   0.16660   0.00000  Uiso   1.00
C627   C     0.05848   0.71400   0.13680   0.00000  Uiso   1.00
H628   H     0.09110   0.72910   0.16000   0.00000  Uiso   1.00
C629   C     0.04280   0.72820   0.07220   0.00000  Uiso   1.00
H630   H     0.06530   0.75310   0.05110   0.00000  Uiso   1.00
C631   C     0.96698   0.67398   0.06940   0.00000  Uiso   1.00
H632   H     0.93460   0.65980   0.04650   0.00000  Uiso   1.00
C633   C     0.97998   0.65796   0.13330   0.00000  Uiso   1.00
H634   H     0.95710   0.63330   0.15420   0.00000  Uiso   1.00
C635   C     0.98721   0.50755   0.38260   0.00000  Uiso   1.00
H636   H     0.96170   0.50790   0.37400   0.00000  Uiso   1.00
C637   C     0.98255   0.46737   0.38000   0.00000  Uiso   1.00
H638   H     0.95400   0.43660   0.36930   0.00000  Uiso   1.00
C639   C     0.02652   0.48032   0.39570   0.00000  Uiso   1.00
H640   H     0.03440   0.46040   0.39820   0.00000  Uiso   1.00
C641   C     0.05854   0.52996   0.40770   0.00000  Uiso   1.00
C642   C     0.10624   0.55826   0.42080   0.00000  Uiso   1.00
C643   C     0.13659   0.60483   0.42410   0.00000  Uiso   1.00
C644   C     0.18676   0.63636   0.44580   0.00000  Uiso   1.00
H645   H     0.20660   0.62840   0.45760   0.00000  Uiso   1.00
C646   C     0.20114   0.67974   0.44650   0.00000  Uiso   1.00
H647   H     0.23260   0.70740   0.45790   0.00000  Uiso   1.00
C648   C     0.16050   0.67556   0.42700   0.00000  Uiso   1.00
H649   H     0.16080   0.70100   0.42400   0.00000  Uiso   1.00
C650   C     0.12923   0.53519   0.43310   0.00000  Uiso   1.00
C651   C     0.13477   0.52465   0.51670   0.00000  Uiso   1.00
H652   H     0.12480   0.53160   0.56630   0.00000  Uiso   1.00
C653   C     0.15504   0.50396   0.52610   0.00000  Uiso   1.00
H654   H     0.15990   0.49750   0.58370   0.00000  Uiso   1.00
C655   C     0.16214   0.50226   0.37660   0.00000  Uiso   1.00
H656   H     0.17100   0.49360   0.32680   0.00000  Uiso   1.00
C657   C     0.14341   0.52439   0.36360   0.00000  Uiso   1.00
H658   H     0.14050   0.53190   0.30650   0.00000  Uiso   1.00
C659   C     0.11269   0.64543   0.60840   0.00000  Uiso   1.00
H660   H     0.13440   0.64260   0.59020   0.00000  Uiso   1.00
C661   C     0.11706   0.66332   0.70240   0.00000  Uiso   1.00
H662   H     0.14160   0.67440   0.75770   0.00000  Uiso   1.00
C663   C     0.07933   0.66187   0.69920   0.00000  Uiso   1.00
H664   H     0.07270   0.67190   0.75200   0.00000  Uiso   1.00
C665   C     0.05163   0.64245   0.60120   0.00000  Uiso   1.00
C666   C     0.00980   0.63464   0.56420   0.00000  Uiso   1.00
C667   C     0.98060   0.61094   0.46840   0.00000  Uiso   1.00
C668   C     0.93689   0.60031   0.42930   0.00000  Uiso   1.00
H669   H     0.92220   0.60920   0.46210   0.00000  Uiso   1.00
C670   C     0.92010   0.57518   0.33620   0.00000  Uiso   1.00
H671   H     0.89110   0.56230   0.29170   0.00000  Uiso   1.00
C672   C     0.95436   0.57202   0.31870   0.00000  Uiso   1.00
H673   H     0.95190   0.55690   0.25810   0.00000  Uiso   1.00
C674   C     0.99495   0.65295   0.63130   0.00000  Uiso   1.00
C675   C     0.95323   0.62463   0.65280   0.00000  Uiso   1.00
H676   H     0.93160   0.59160   0.62170   0.00000  Uiso   1.00
C677   C     0.94328   0.64484   0.72020   0.00000  Uiso   1.00
H678   H     0.91450   0.62490   0.73390   0.00000  Uiso   1.00
C679   C     0.01200   0.71824   0.74420   0.00000  Uiso   1.00
H680   H     0.03280   0.75120   0.77610   0.00000  Uiso   1.00
C681   C     0.02452   0.70142   0.67820   0.00000  Uiso   1.00
H682   H     0.05300   0.72260   0.66450   0.00000  Uiso   1.00
C683   C     0.68036   0.23734   0.54390   0.00000  Uiso   1.00
H684   H     0.67990   0.21330   0.55900   0.00000  Uiso   1.00
C685   C     0.66494   0.23614   0.45050   0.00000  Uiso   1.00
H686   H     0.65310   0.21210   0.39330   0.00000  Uiso   1.00
C687   C     0.67037   0.27603   0.45850   0.00000  Uiso   1.00
H688   H     0.66250   0.28510   0.40770   0.00000  Uiso   1.00
C689   C     0.68995   0.30175   0.55690   0.00000  Uiso   1.00
C690   C     0.70106   0.34468   0.59770   0.00000  Uiso   1.00
C691   C     0.72168   0.37122   0.69230   0.00000  Uiso   1.00
C692   C     0.73615   0.41665   0.73400   0.00000  Uiso   1.00
H693   H     0.73230   0.43470   0.70140   0.00000  Uiso   1.00
C694   C     0.75658   0.42956   0.82970   0.00000  Uiso   1.00
H695   H     0.77000   0.45840   0.87590   0.00000  Uiso   1.00
C696   C     0.75394   0.39242   0.84610   0.00000  Uiso   1.00
H697   H     0.76510   0.39210   0.90720   0.00000  Uiso   1.00
C698   C     0.68666   0.36256   0.52900   0.00000  Uiso   1.00
C699   C     0.71602   0.39154   0.48280   0.00000  Uiso   1.00
H700   H     0.74790   0.40410   0.49840   0.00000  Uiso   1.00
C701   C     0.69789   0.40209   0.41240   0.00000  Uiso   1.00
H702   H     0.71840   0.42240   0.38120   0.00000  Uiso   1.00
C703   C     0.62654   0.35918   0.43410   0.00000  Uiso   1.00
H704   H     0.59510   0.34810   0.41740   0.00000  Uiso   1.00
C705   C     0.64082   0.34676   0.50690   0.00000  Uiso   1.00
H706   H     0.62000   0.32820   0.53990   0.00000  Uiso   1.00
C707   C     0.81658   0.35708   0.78730   0.00000  Uiso   1.00
H708   H     0.81650   0.38270   0.79010   0.00000  Uiso   1.00
C709   C     0.85758   0.36184   0.80540   0.00000  Uiso   1.00
H710   H     0.88910   0.39030   0.82260   0.00000  Uiso   1.00
C711   C     0.84305   0.31737   0.79350   0.00000  Uiso   1.00
H712   H     0.86270   0.30910   0.80040   0.00000  Uiso   1.00
C713   C     0.79266   0.28558   0.76860   0.00000  Uiso   1.00
C714   C     0.80010   0.20842   0.67440   0.00000  Uiso   1.00
H715   H     0.79680   0.21860   0.62160   0.00000  Uiso   1.00
C716   C     0.81985   0.18693   0.67680   0.00000  Uiso   1.00
H717   H     0.82890   0.18170   0.62360   0.00000  Uiso   1.00
C718   C     0.37700   0.50116   0.11570   0.00000  Uiso   1.00
H719   H     0.35950   0.47150   0.12700   0.00000  Uiso   1.00
C720   C     0.35638   0.51568   0.06270   0.00000  Uiso   1.00
H721   H     0.32380   0.49860   0.03230   0.00000  Uiso   1.00
C722   C     0.39355   0.55981   0.06440   0.00000  Uiso   1.00
H723   H     0.39140   0.57980   0.03580   0.00000  Uiso   1.00
C724   C     0.43559   0.57055   0.11630   0.00000  Uiso   1.00
C725   C     0.48189   0.61143   0.13170   0.00000  Uiso   1.00
C726   C     0.52299   0.62031   0.18220   0.00000  Uiso   1.00
C727   C     0.57036   0.66026   0.19640   0.00000  Uiso   1.00
H728   H     0.58010   0.68610   0.17310   0.00000  Uiso   1.00
C729   C     0.59911   0.65527   0.24860   0.00000  Uiso   1.00
H730   H     0.63260   0.67660   0.26950   0.00000  Uiso   1.00
C731   C     0.56923   0.61209   0.26540   0.00000  Uiso   1.00
H732   H     0.58040   0.59980   0.30090   0.00000  Uiso   1.00
C733   C     0.48884   0.64968   0.09670   0.00000  Uiso   1.00
C734   C     0.48415   0.64929   0.00390   0.00000  Uiso   1.00
H735   H     0.47500   0.62280   0.95640   0.00000  Uiso   1.00
C736   C     0.49282   0.68762   0.97930   0.00000  Uiso   1.00
H737   H     0.48960   0.68660   0.91460   0.00000  Uiso   1.00
C738   C     0.50861   0.72565   0.13090   0.00000  Uiso   1.00
H739   H     0.51650   0.75230   0.17560   0.00000  Uiso   1.00
C740   C     0.50141   0.69009   0.16480   0.00000  Uiso   1.00
H741   H     0.50460   0.69220   0.23000   0.00000  Uiso   1.00
C742   C     0.52762   0.55424   0.44330   0.00000  Uiso   1.00
H743   H     0.52120   0.57360   0.47110   0.00000  Uiso   1.00
C744   C     0.55613   0.54603   0.49590   0.00000  Uiso   1.00
H745   H     0.57130   0.55790   0.56260   0.00000  Uiso   1.00
C746   C     0.55647   0.51719   0.42850   0.00000  Uiso   1.00
H747   H     0.57310   0.50570   0.44030   0.00000  Uiso   1.00
C748   C     0.52840   0.50708   0.33860   0.00000  Uiso   1.00
C749   C     0.52593   0.42025   0.28670   0.00000  Uiso   1.00
H750   H     0.50080   0.40880   0.31310   0.00000  Uiso   1.00
C751   C     0.54780   0.39970   0.28340   0.00000  Uiso   1.00
H752   H     0.53620   0.37340   0.30590   0.00000  Uiso   1.00
C753   C     0.81411   0.57629   0.92610   0.00000  Uiso   1.00
C754   C     0.23171   0.48891   0.83910   0.00000  Uiso   1.00
C755   C     0.87598   0.13342   0.11970   0.00000  Uiso   1.00
F756   F     0.83684   0.56368   0.96620   0.00000  Uiso   1.00
F757   F     0.81760   0.60568   0.99520   0.00000  Uiso   1.00
F758   F     0.76941   0.53735   0.88950   0.00000  Uiso   1.00
F759   F     0.19189   0.47769   0.84510   0.00000  Uiso   1.00
F760   F     0.22735   0.45071   0.82720   0.00000  Uiso   1.00
F761   F     0.26440   0.51880   0.92240   0.00000  Uiso   1.00
F762   F     0.83955   0.08519   0.07740   0.00000  Uiso   1.00
F763   F     0.90921   0.13519   0.17530   0.00000  Uiso   1.00
F764   F     0.86846   0.16280   0.14440   0.00000  Uiso   1.00
Ga765  Ga    0.83010   0.88065   0.89131   0.00000  Uiso   1.00
Ga766  Ga    0.05643   0.61185   0.40368   0.00000  Uiso   1.00
N767   N     0.87720   0.88554   0.99290   0.00000  Uiso   1.00
N768   N     0.83674   0.84276   0.79190   0.00000  Uiso   1.00
N769   N     0.94382   0.76218   0.90480   0.00000  Uiso   1.00
N770   N     0.82172   0.91934   0.98780   0.00000  Uiso   1.00
N771   N     0.77469   0.82221   0.91300   0.00000  Uiso   1.00
N772   N     0.61330   0.82274   0.01880   0.00000  Uiso   1.00
N773   N     0.78137   0.87451   0.78670   0.00000  Uiso   1.00
N774   N     0.88106   0.94138   0.86910   0.00000  Uiso   1.00
N775   N     0.83017   0.06451   0.73110   0.00000  Uiso   1.00
N776   N     0.03721   0.59471   0.25990   0.00000  Uiso   1.00
N777   N     0.07902   0.67876   0.40740   0.00000  Uiso   1.00
N778   N     0.99755   0.70843   0.03810   0.00000  Uiso   1.00
N779   N     0.03232   0.54568   0.39890   0.00000  Uiso   1.00
N780   N     0.12110   0.63136   0.41290   0.00000  Uiso   1.00
N781   N     0.50720   0.83198   0.04320   0.00000  Uiso   1.00
N782   N     0.07385   0.63279   0.54730   0.00000  Uiso   1.00
N783   N     0.99078   0.59276   0.39740   0.00000  Uiso   1.00
N784   N     0.97214   0.69074   0.76620   0.00000  Uiso   1.00
N785   N     0.69547   0.27619   0.60800   0.00000  Uiso   1.00
N786   N     0.73352   0.35696   0.76510   0.00000  Uiso   1.00
N787   N     0.65436   0.38568   0.38700   0.00000  Uiso   1.00
N788   N     0.77794   0.31248   0.76586   0.00000  Uiso   1.00
N789   N     0.42322   0.53280   0.14810   0.00000  Uiso   1.00
N790   N     0.52305   0.58965   0.22620   0.00000  Uiso   1.00
N791   N     0.50549   0.72601   0.04250   0.00000  Uiso   1.00
N792   N     0.51134   0.53160   0.35150   0.00000  Uiso   1.00
O793   O     0.80867   0.61369   0.80130   0.00000  Uiso   1.00
O794   O     0.83260   0.56638   0.77310   0.00000  Uiso   1.00
O795   O     0.88592   0.64350   0.89060   0.00000  Uiso   1.00
O796   O     0.29353   0.52495   0.75000   0.00000  Uiso   1.00
O797   O     0.21000   0.47698   0.66020   0.00000  Uiso   1.00
O798   O     0.25177   0.55479   0.76740   0.00000  Uiso   1.00
O799   O     0.93982   0.19948   0.05870   0.00000  Uiso   1.00
O800   O     0.85920   0.14376   0.95050   0.00000  Uiso   1.00
O801   O     0.90606   0.11638   0.99140   0.00000  Uiso   1.00
S802   S     0.83785   0.60295   0.83766   0.00000  Uiso   1.00
S803   S     0.24913   0.51445   0.74341   0.00000  Uiso   1.00
S804   S     0.89541   0.15513   0.02605   0.00000  Uiso   1.00
Ag805  Ag    0.27762   0.02909   0.58851   0.00000  Uiso   1.00
Ag806  Ag    0.20085   0.45837   0.47891   0.00000  Uiso   1.00
C807   C     0.09237   0.10755   0.41320   0.00000  Uiso   1.00
H808   H     0.07360   0.11480   0.38610   0.00000  Uiso   1.00
C809   C     0.10023   0.07973   0.35950   0.00000  Uiso   1.00
H810   H     0.08720   0.06440   0.29290   0.00000  Uiso   1.00
C811   C     0.13072   0.07932   0.42360   0.00000  Uiso   1.00
H812   H     0.14350   0.06430   0.40880   0.00000  Uiso   1.00
C813   C     0.13987   0.10607   0.51800   0.00000  Uiso   1.00
C814   C     0.16659   0.11387   0.60440   0.00000  Uiso   1.00
C815   C     0.17384   0.13874   0.69430   0.00000  Uiso   1.00
C816   C     0.19886   0.14416   0.78500   0.00000  Uiso   1.00
H817   H     0.21380   0.13100   0.79610   0.00000  Uiso   1.00
C818   C     0.19709   0.17137   0.85160   0.00000  Uiso   1.00
H819   H     0.21030   0.18070   0.91850   0.00000  Uiso   1.00
C820   C     0.17194   0.18340   0.80360   0.00000  Uiso   1.00
H821   H     0.16610   0.20290   0.83390   0.00000  Uiso   1.00
C822   C     0.19092   0.09236   0.60130   0.00000  Uiso   1.00
C823   C     0.16645   0.04509   0.57610   0.00000  Uiso   1.00
H824   H     0.13310   0.02390   0.56030   0.00000  Uiso   1.00
C825   C     0.19140   0.02768   0.57380   0.00000  Uiso   1.00
H826   H     0.17420   0.99460   0.55630   0.00000  Uiso   1.00
C827   C     0.26072   0.10158   0.62010   0.00000  Uiso   1.00
H828   H     0.29400   0.12240   0.63510   0.00000  Uiso   1.00
C829   C     0.23819   0.12077   0.62530   0.00000  Uiso   1.00
H830   H     0.25640   0.15400   0.64600   0.00000  Uiso   1.00
C831   C     0.03428   0.14982   0.47450   0.00000  Uiso   1.00
H832   H     0.01360   0.11820   0.47550   0.00000  Uiso   1.00
C833   C     0.01882   0.17228   0.43180   0.00000  Uiso   1.00
H834   H     0.98740   0.15880   0.39960   0.00000  Uiso   1.00
C835   C     0.05840   0.21654   0.44740   0.00000  Uiso   1.00
H836   H     0.05980   0.24060   0.42960   0.00000  Uiso   1.00
C837   C     0.09786   0.22134   0.49460   0.00000  Uiso   1.00
C838   C     0.14574   0.26036   0.51920   0.00000  Uiso   1.00
C839   C     0.18258   0.26138   0.55850   0.00000  Uiso   1.00
C840   C     0.23164   0.29758   0.57300   0.00000  Uiso   1.00
H841   H     0.24540   0.32660   0.56030   0.00000  Uiso   1.00
C842   C     0.25560   0.28298   0.60900   0.00000  Uiso   1.00
H843   H     0.28860   0.29960   0.62500   0.00000  Uiso   1.00
C844   C     0.22130   0.23874   0.61680   0.00000  Uiso   1.00
H845   H     0.22780   0.22040   0.64030   0.00000  Uiso   1.00
C846   C     0.15715   0.30429   0.50430   0.00000  Uiso   1.00
C847   C     0.17218   0.31920   0.43370   0.00000  Uiso   1.00
H848   H     0.17850   0.30330   0.39170   0.00000  Uiso   1.00
C849   C     0.17879   0.35961   0.42150   0.00000  Uiso   1.00
H850   H     0.18480   0.36700   0.36480   0.00000  Uiso   1.00
C851   C     0.16421   0.37235   0.55700   0.00000  Uiso   1.00
H852   H     0.16180   0.39120   0.60210   0.00000  Uiso   1.00
C853   C     0.15404   0.33160   0.57260   0.00000  Uiso   1.00
H854   H     0.14550   0.32290   0.62680   0.00000  Uiso   1.00
C855   C     0.16415   0.26549   0.75430   0.00000  Uiso   1.00
H856   H     0.19470   0.27990   0.74900   0.00000  Uiso   1.00
C857   C     0.15119   0.28897   0.80550   0.00000  Uiso   1.00
H858   H     0.17160   0.32160   0.84040   0.00000  Uiso   1.00
C859   C     0.10466   0.25708   0.79640   0.00000  Uiso   1.00
H860   H     0.08650   0.26310   0.82300   0.00000  Uiso   1.00
C861   C     0.08777   0.21131   0.73730   0.00000  Uiso   1.00
C862   C     0.04314   0.16802   0.71420   0.00000  Uiso   1.00
C863   C     0.02906   0.12444   0.66930   0.00000  Uiso   1.00
C864   C     0.98520   0.07884   0.64960   0.00000  Uiso   1.00
H865   H     0.95840   0.07200   0.66490   0.00000  Uiso   1.00
C866   C     0.98821   0.04615   0.60440   0.00000  Uiso   1.00
H867   H     0.96460   0.01280   0.58560   0.00000  Uiso   1.00
C868   C     0.03259   0.07121   0.59170   0.00000  Uiso   1.00
H869   H     0.04350   0.05710   0.56000   0.00000  Uiso   1.00
C870   C     0.00587   0.16881   0.73800   0.00000  Uiso   1.00
C871   C     0.98811   0.18387   0.68340   0.00000  Uiso   1.00
H872   H     0.99990   0.19470   0.63330   0.00000  Uiso   1.00
C873   C     0.95272   0.18322   0.70160   0.00000  Uiso   1.00
H874   H     0.94030   0.19330   0.66190   0.00000  Uiso   1.00
C875   C     0.94320   0.13780   0.81120   0.00000  Uiso   1.00
H876   H     0.92460   0.11920   0.84700   0.00000  Uiso   1.00
C877   C     0.97875   0.13885   0.79230   0.00000  Uiso   1.00
H878   H     0.98540   0.12020   0.81440   0.00000  Uiso   1.00
C879   C     0.44636   0.97820   0.30000   0.00000  Uiso   1.00
H880   H     0.46930   0.97810   0.28030   0.00000  Uiso   1.00
C881   C     0.45026   0.99436   0.39490   0.00000  Uiso   1.00
H882   H     0.47530   0.00590   0.44940   0.00000  Uiso   1.00
C883   C     0.41127   0.99047   0.39440   0.00000  Uiso   1.00
H884   H     0.40440   0.99940   0.44790   0.00000  Uiso   1.00
C885   C     0.38289   0.96999   0.29630   0.00000  Uiso   1.00
C886   C     0.33957   0.95867   0.26240   0.00000  Uiso   1.00
C887   C     0.31053   0.93593   0.16740   0.00000  Uiso   1.00
C888   C     0.26483   0.92295   0.13010   0.00000  Uiso   1.00
H889   H     0.24880   0.92920   0.16470   0.00000  Uiso   1.00
C890   C     0.24922   0.89996   0.03550   0.00000  Uiso   1.00
H891   H     0.21990   0.88670   0.99140   0.00000  Uiso   1.00
C892   C     0.28460   0.89952   0.01530   0.00000  Uiso   1.00
H893   H     0.28260   0.88560   0.95400   0.00000  Uiso   1.00
C894   C     0.32196   0.97356   0.33340   0.00000  Uiso   1.00
C895   C     0.28600   0.94152   0.36320   0.00000  Uiso   1.00
H896   H     0.27090   0.90890   0.34000   0.00000  Uiso   1.00
C897   C     0.27180   0.95720   0.42780   0.00000  Uiso   1.00
H898   H     0.24690   0.93470   0.44890   0.00000  Uiso   1.00
C899   C     0.32602   0.03302   0.43060   0.00000  Uiso   1.00
H900   H     0.34020   0.06540   0.45350   0.00000  Uiso   1.00
C901   C     0.34204   0.02002   0.36670   0.00000  Uiso   1.00
H902   H     0.36670   0.04290   0.34580   0.00000  Uiso   1.00
C903   C     0.49245   0.01279   0.11740   0.00000  Uiso   1.00
H904   H     0.49210   0.03830   0.12600   0.00000  Uiso   1.00
C905   C     0.53263   0.01745   0.12000   0.00000  Uiso   1.00
H906   H     0.56340   0.04600   0.13070   0.00000  Uiso   1.00
C907   C     0.51968   0.97348   0.10430   0.00000  Uiso   1.00
H908   H     0.53960   0.96560   0.10180   0.00000  Uiso   1.00
C909   C     0.47004   0.94146   0.09230   0.00000  Uiso   1.00
C910   C     0.44174   0.89376   0.07920   0.00000  Uiso   1.00
C911   C     0.39517   0.86341   0.07590   0.00000  Uiso   1.00
C912   C     0.36364   0.81324   0.05420   0.00000  Uiso   1.00
H913   H     0.37160   0.79340   0.04240   0.00000  Uiso   1.00
C914   C     0.32026   0.79886   0.05350   0.00000  Uiso   1.00
H915   H     0.29260   0.76740   0.04210   0.00000  Uiso   1.00
C916   C     0.32444   0.83950   0.07300   0.00000  Uiso   1.00
H917   H     0.29900   0.83920   0.07600   0.00000  Uiso   1.00
C918   C     0.46481   0.87077   0.06690   0.00000  Uiso   1.00
C919   C     0.47535   0.86523   0.98330   0.00000  Uiso   1.00
H920   H     0.46840   0.87520   0.93370   0.00000  Uiso   1.00
C921   C     0.49604   0.84496   0.97390   0.00000  Uiso   1.00
H922   H     0.50250   0.84010   0.91630   0.00000  Uiso   1.00
C923   C     0.49774   0.83786   0.12340   0.00000  Uiso   1.00
H924   H     0.50640   0.82900   0.17320   0.00000  Uiso   1.00
C925   C     0.47561   0.85659   0.13640   0.00000  Uiso   1.00
H926   H     0.46810   0.85950   0.19350   0.00000  Uiso   1.00
C927   C     0.35457   0.88731   0.89160   0.00000  Uiso   1.00
H928   H     0.35740   0.86560   0.90980   0.00000  Uiso   1.00
C929   C     0.33668   0.88294   0.79760   0.00000  Uiso   1.00
H930   H     0.32560   0.85840   0.74230   0.00000  Uiso   1.00
C931   C     0.33813   0.92067   0.80080   0.00000  Uiso   1.00
H932   H     0.32810   0.92730   0.74800   0.00000  Uiso   1.00
C933   C     0.35755   0.94837   0.89880   0.00000  Uiso   1.00
C934   C     0.36536   0.99020   0.93580   0.00000  Uiso   1.00
C935   C     0.38906   0.01940   0.03160   0.00000  Uiso   1.00
C936   C     0.39969   0.06311   0.07070   0.00000  Uiso   1.00
H937   H     0.39080   0.07780   0.03790   0.00000  Uiso   1.00
C938   C     0.42482   0.07990   0.16380   0.00000  Uiso   1.00
H939   H     0.43770   0.10890   0.20830   0.00000  Uiso   1.00
C940   C     0.42798   0.04564   0.18130   0.00000  Uiso   1.00
H941   H     0.44310   0.04810   0.24190   0.00000  Uiso   1.00
C942   C     0.34705   0.00505   0.86870   0.00000  Uiso   1.00
C943   C     0.37537   0.04677   0.84720   0.00000  Uiso   1.00
H944   H     0.40840   0.06840   0.87830   0.00000  Uiso   1.00
C945   C     0.35516   0.05672   0.77980   0.00000  Uiso   1.00
H946   H     0.37510   0.08550   0.76610   0.00000  Uiso   1.00
C947   C     0.28176   0.98800   0.75580   0.00000  Uiso   1.00
H948   H     0.24880   0.96720   0.72390   0.00000  Uiso   1.00
C949   C     0.29858   0.97548   0.82180   0.00000  Uiso   1.00
H950   H     0.27740   0.94700   0.83550   0.00000  Uiso   1.00
C951   C     0.76266   0.31964   0.95610   0.00000  Uiso   1.00
H952   H     0.78670   0.32010   0.94100   0.00000  Uiso   1.00
C953   C     0.76386   0.33506   0.04950   0.00000  Uiso   1.00
H954   H     0.78790   0.34690   0.10670   0.00000  Uiso   1.00
C955   C     0.72397   0.32963   0.04150   0.00000  Uiso   1.00
H956   H     0.71490   0.33750   0.09230   0.00000  Uiso   1.00
C957   C     0.69825   0.31005   0.94310   0.00000  Uiso   1.00
C958   C     0.65532   0.29894   0.90230   0.00000  Uiso   1.00
C959   C     0.62878   0.27832   0.80770   0.00000  Uiso   1.00
C960   C     0.58335   0.26385   0.76600   0.00000  Uiso   1.00
H961   H     0.56530   0.26770   0.79860   0.00000  Uiso   1.00
C962   C     0.57044   0.24342   0.67030   0.00000  Uiso   1.00
H963   H     0.54160   0.23000   0.62410   0.00000  Uiso   1.00
C964   C     0.60758   0.24606   0.65390   0.00000  Uiso   1.00
H965   H     0.60790   0.23490   0.59280   0.00000  Uiso   1.00
C966   C     0.63744   0.31334   0.97100   0.00000  Uiso   1.00
C967   C     0.60846   0.28398   0.01720   0.00000  Uiso   1.00
H968   H     0.59590   0.25210   0.00160   0.00000  Uiso   1.00
C969   C     0.59791   0.30211   0.08760   0.00000  Uiso   1.00
H970   H     0.57760   0.28160   0.11880   0.00000  Uiso   1.00
C971   C     0.64082   0.37346   0.06590   0.00000  Uiso   1.00
H972   H     0.65190   0.40490   0.08260   0.00000  Uiso   1.00
C973   C     0.65324   0.35918   0.99310   0.00000  Uiso   1.00
H974   H     0.67180   0.38000   0.96010   0.00000  Uiso   1.00
C975   C     0.64292   0.18342   0.71270   0.00000  Uiso   1.00
H976   H     0.61730   0.18350   0.70990   0.00000  Uiso   1.00
C977   C     0.63816   0.14242   0.69460   0.00000  Uiso   1.00
H978   H     0.60970   0.11090   0.67740   0.00000  Uiso   1.00
C979   C     0.68263   0.15695   0.70650   0.00000  Uiso   1.00
H980   H     0.69090   0.13730   0.69960   0.00000  Uiso   1.00
C981   C     0.71442   0.20734   0.73140   0.00000  Uiso   1.00
C982   C     0.79158   0.19990   0.82560   0.00000  Uiso   1.00
H983   H     0.78140   0.20320   0.87840   0.00000  Uiso   1.00
C984   C     0.81307   0.18015   0.82320   0.00000  Uiso   1.00
H985   H     0.81830   0.17110   0.87640   0.00000  Uiso   1.00
C986   C     0.49884   0.62300   0.38430   0.00000  Uiso   1.00
H987   H     0.52850   0.64050   0.37300   0.00000  Uiso   1.00
C988   C     0.48432   0.64362   0.43730   0.00000  Uiso   1.00
H989   H     0.50140   0.67620   0.46770   0.00000  Uiso   1.00
C990   C     0.44019   0.60645   0.43560   0.00000  Uiso   1.00
H991   H     0.42020   0.60860   0.46420   0.00000  Uiso   1.00
C992   C     0.42945   0.56441   0.38370   0.00000  Uiso   1.00
C993   C     0.38857   0.51811   0.36830   0.00000  Uiso   1.00
C994   C     0.37969   0.47701   0.31780   0.00000  Uiso   1.00
C995   C     0.33974   0.42964   0.30360   0.00000  Uiso   1.00
H996   H     0.31390   0.41990   0.32690   0.00000  Uiso   1.00
C997   C     0.34473   0.40089   0.25140   0.00000  Uiso   1.00
H998   H     0.32340   0.36740   0.23050   0.00000  Uiso   1.00
C999   C     0.38791   0.43077   0.23460   0.00000  Uiso   1.00
H1000  H     0.40020   0.41960   0.19910   0.00000  Uiso   1.00
C1001  C     0.35032   0.51116   0.40330   0.00000  Uiso   1.00
C1002  C     0.35071   0.51585   0.49610   0.00000  Uiso   1.00
H1003  H     0.37720   0.52500   0.54360   0.00000  Uiso   1.00
C1004  C     0.31238   0.50718   0.52070   0.00000  Uiso   1.00
H1005  H     0.31340   0.51040   0.58540   0.00000  Uiso   1.00
C1006  C     0.27435   0.49139   0.36910   0.00000  Uiso   1.00
H1007  H     0.24770   0.48350   0.32440   0.00000  Uiso   1.00
C1008  C     0.30991   0.49859   0.33520   0.00000  Uiso   1.00
H1009  H     0.30780   0.49540   0.27000   0.00000  Uiso   1.00
C1010  C     0.44576   0.47238   0.05670   0.00000  Uiso   1.00
H1011  H     0.42640   0.47880   0.02890   0.00000  Uiso   1.00
C1012  C     0.45397   0.44387   0.00410   0.00000  Uiso   1.00
H1013  H     0.44210   0.42870   0.93740   0.00000  Uiso   1.00
C1014  C     0.48281   0.44353   0.07150   0.00000  Uiso   1.00
H1015  H     0.49430   0.42690   0.05970   0.00000  Uiso   1.00
C1016  C     0.49292   0.47160   0.16140   0.00000  Uiso   1.00
C1017  C     0.57975   0.47407   0.21330   0.00000  Uiso   1.00
H1018  H     0.59120   0.49920   0.18690   0.00000  Uiso   1.00
C1019  C     0.60030   0.45220   0.21660   0.00000  Uiso   1.00
H1020  H     0.62660   0.46380   0.19410   0.00000  Uiso   1.00
C1021  C     0.42371   0.18589   0.57390   0.00000  Uiso   1.00
C1022  C     0.51109   0.76829   0.66090   0.00000  Uiso   1.00
C1023  C     0.86658   0.12402   0.38030   0.00000  Uiso   1.00
F1024  F     0.43632   0.16316   0.53380   0.00000  Uiso   1.00
F1025  F     0.39432   0.18240   0.50480   0.00000  Uiso   1.00
F1026  F     0.46265   0.23059   0.61050   0.00000  Uiso   1.00
F1027  F     0.52231   0.80811   0.65490   0.00000  Uiso   1.00
F1028  F     0.54929   0.77265   0.67280   0.00000  Uiso   1.00
F1029  F     0.48120   0.73560   0.57760   0.00000  Uiso   1.00
F1030  F     0.91481   0.16045   0.42260   0.00000  Uiso   1.00
F1031  F     0.86481   0.09079   0.32470   0.00000  Uiso   1.00
F1032  F     0.83720   0.13154   0.35560   0.00000  Uiso   1.00
Ga1033 Ga    0.11935   0.16990   0.60869   0.00000  Uiso   1.00
Ga1034 Ga    0.38815   0.94357   0.09632   0.00000  Uiso   1.00
N1035  N     0.11446   0.12280   0.50710   0.00000  Uiso   1.00
N1036  N     0.15724   0.16326   0.70810   0.00000  Uiso   1.00
N1037  N     0.23782   0.05618   0.59520   0.00000  Uiso   1.00
N1038  N     0.08066   0.17828   0.51220   0.00000  Uiso   1.00
N1039  N     0.17779   0.22531   0.58700   0.00000  Uiso   1.00
N1040  N     0.17726   0.38670   0.48120   0.00000  Uiso   1.00
N1041  N     0.12549   0.21863   0.71330   0.00000  Uiso   1.00
N1042  N     0.05862   0.11894   0.63090   0.00000  Uiso   1.00
N1043  N     0.93549   0.16983   0.76890   0.00000  Uiso   1.00
N1044  N     0.40529   0.96279   0.24010   0.00000  Uiso   1.00
N1045  N     0.32124   0.92098   0.09260   0.00000  Uiso   1.00
N1046  N     0.29157   0.00245   0.46190   0.00000  Uiso   1.00
N1047  N     0.45432   0.96768   0.10110   0.00000  Uiso   1.00
N1048  N     0.36864   0.87890   0.08710   0.00000  Uiso   1.00
N1049  N     0.16802   0.49280   0.45680   0.00000  Uiso   1.00
N1050  N     0.36721   0.92615   0.95270   0.00000  Uiso   1.00
N1051  N     0.40724   0.00922   0.10260   0.00000  Uiso   1.00
N1052  N     0.30926   0.02786   0.73380   0.00000  Uiso   1.00
N1053  N     0.72381   0.30453   0.89200   0.00000  Uiso   1.00
N1054  N     0.64304   0.26648   0.73490   0.00000  Uiso   1.00
N1055  N     0.61432   0.34564   0.11300   0.00000  Uiso   1.00
N1056  N     0.68752   0.22206   0.73414   0.00000  Uiso   1.00
N1057  N     0.46720   0.57678   0.35190   0.00000  Uiso   1.00
N1058  N     0.41035   0.47695   0.27380   0.00000  Uiso   1.00
N1059  N     0.27399   0.49451   0.45750   0.00000  Uiso   1.00
N1060  N     0.46840   0.48866   0.14850   0.00000  Uiso   1.00
O1061  O     0.38631   0.19133   0.69870   0.00000  Uiso   1.00
O1062  O     0.43362   0.16740   0.72690   0.00000  Uiso   1.00
O1063  O     0.35650   0.11408   0.60940   0.00000  Uiso   1.00
O1064  O     0.47505   0.70647   0.75000   0.00000  Uiso   1.00
O1065  O     0.52302   0.79000   0.83980   0.00000  Uiso   1.00
O1066  O     0.44521   0.74823   0.73260   0.00000  Uiso   1.00
O1067  O     0.80052   0.06018   0.44130   0.00000  Uiso   1.00
O1068  O     0.85624   0.14080   0.54950   0.00000  Uiso   1.00
O1069  O     0.88362   0.09394   0.50860   0.00000  Uiso   1.00
S1070  S     0.39705   0.16215   0.66234   0.00000  Uiso   1.00
S1071  S     0.48555   0.75087   0.75659   0.00000  Uiso   1.00
S1072  S     0.84487   0.10459   0.47395   0.00000  Uiso   1.00
Ag1073 Ag    0.14049   0.85951   0.25000   0.00000  Uiso   1.00
C1074  C     0.23739   0.76261   0.25000   0.00000  Uiso   1.00
C1075  C     0.21501   0.78499   0.25000   0.00000  Uiso   1.00
Ga1076 Ga    0.28939   0.71061   0.25000   0.00000  Uiso   1.00
N1077  N     0.17311   0.82689   0.25000   0.00000  Uiso   1.00
Ag1078 Ag    0.85951   0.14049   0.75000   0.00000  Uiso   1.00
C1079  C     0.76261   0.23739   0.75000   0.00000  Uiso   1.00
C1080  C     0.78499   0.21501   0.75000   0.00000  Uiso   1.00
Ga1081 Ga    0.71061   0.28939   0.75000   0.00000  Uiso   1.00
N1082  N     0.82689   0.17311   0.75000   0.00000  Uiso   1.00
Ag1083 Ag    0.38260   0.61740   0.75000   0.00000  Uiso   1.00
N1084  N     0.41602   0.58398   0.75000   0.00000  Uiso   1.00
Ag1085 Ag    0.61740   0.38260   0.25000   0.00000  Uiso   1.00
N1086  N     0.58398   0.41602   0.25000   0.00000  Uiso   1.00
C1087  C     0.48017   0.51983   0.75000   0.00000  Uiso   1.00
C1088  C     0.45773   0.54227   0.75000   0.00000  Uiso   1.00
Ga1089 Ga    0.53219   0.46781   0.75000   0.00000  Uiso   1.00
C1090  C     0.51983   0.48017   0.25000   0.00000  Uiso   1.00
C1091  C     0.54227   0.45773   0.25000   0.00000  Uiso   1.00
Ga1092 Ga    0.46781   0.53219   0.25000   0.00000  Uiso   1.00
loop_
_geom_bond_atom_site_label_1
_geom_bond_atom_site_label_2
_geom_bond_distance
_geom_bond_site_symmetry_2
_ccdc_geom_bond_type
Ag1    N233    2.246   .     S
Ag1    N248    2.330   .     S
Ag1    N242    2.279   1_554 S
Ag2    N236    2.266   .     S
Ag2    N245    2.268   .     S
Ag2    N255    2.313   .     S
C3     H4      0.949   .     S
C3     C5      1.410   .     S
C3     N231    1.347   1_556 S
C5     H6      0.949   .     S
C5     C7      1.380   .     D
C7     H8      0.951   .     S
C7     C9      1.456   1_556 S
C9     C10     1.375   .     D
C9     N231    1.416   .     S
C9     C7      1.456   1_554 S
C10    C11     1.396   .     S
C10    C18     1.530   .     S
C11    C12     1.434   .     A
C11    N232    1.386   .     A
C12    H13     0.950   .     S
C12    C14     1.348   .     A
C14    H15     0.950   .     S
C14    C16     1.412   .     A
C16    H17     0.949   .     S
C16    N232    1.358   .     A
C18    C19     1.358   .     A
C18    C25     1.345   .     A
C19    H20     0.949   .     S
C19    C21     1.419   .     A
C21    N233    1.322   .     A
C21    H22     0.950   1_455 S
H22    C21     0.950   1_655 S
C23    H24     0.948   .     S
C23    C25     1.395   .     A
C23    N233    1.307   .     A
C25    H26     0.949   .     S
C27    H28     0.951   .     S
C27    C29     1.439   .     S
C27    N234    1.324   1_556 S
C29    C31     1.346   .     D
C29    H30     0.951   1_545 S
H30    C29     0.951   1_565 S
C31    H32     0.949   .     S
C31    C33     1.422   .     S
C33    C34     1.400   1_556 S
C33    N234    1.416   1_556 D
C34    C35     1.384   .     S
C34    C42     1.490   .     S
C34    C33     1.400   1_554 S
C35    C36     1.429   .     A
C35    N235    1.391   .     A
C36    H37     0.947   .     S
C36    C38     1.382   .     A
C38    H39     0.951   .     S
C38    C40     1.395   .     A
C40    H41     0.947   .     S
C40    N235    1.348   .     A
C42    C49     1.398   .     A
C42    C43     1.315   1_554 S
C43    H44     0.949   .     S
C43    C45     1.420   .     A
C43    C42     1.315   1_556 S
C45    H46     0.950   .     S
C45    N236    1.277   .     A
C47    H48     0.952   .     S
C47    C49     1.397   .     A
C47    N236    1.362   1_554 A
C49    H50     0.949   .     S
C51    H52     0.948   .     S
C51    C53     1.415   .     S
C51    N237    1.374   .     D
C53    H54     0.951   .     S
C53    C55     1.359   .     D
C55    H56     0.951   .     S
C55    C57     1.473   .     S
C57    C58     1.388   .     D
C57    N237    1.381   .     S
C58    C59     1.379   .     S
C58    C66     1.502   .     S
C59    N238    1.420   .     A
C59    C60     1.420   1_545 A
C60    H61     0.948   .     S
C60    C62     1.375   .     A
C60    C59     1.420   1_565 A
C62    H63     0.951   .     S
C62    C64     1.395   1_565 A
C64    H65     0.952   .     S
C64    N238    1.374   .     A
C64    C62     1.395   1_545 A
C66    C67     1.357   1_545 A
C66    C73     1.452   1_545 S
C67    H68     0.949   .     S
C67    C69     1.375   .     A
C67    C66     1.357   1_565 A
C69    H70     0.949   .     S
C69    N239    1.283   .     A
C71    H72     0.949   .     S
C71    C73     1.377   .     A
C71    N239    1.580   .     A
C73    H74     0.952   .     S
C73    C66     1.452   1_565 S
C75    H76     0.948   .     S
C75    C77     1.404   .     S
C75    N240    1.358   .     D
C77    C79     1.370   .     D
C77    H78     0.948   1_655 A
H78    C77     0.948   1_455 A
C79    H80     0.949   .     S
C79    C81     1.438   .     S
C81    C82     1.382   .     D
C81    N240    1.376   .     S
C82    C83     1.404   .     S
C82    C90     1.529   .     S
C83    C84     1.444   .     A
C83    N241    1.391   .     A
C84    H85     0.951   .     S
C84    C86     1.362   .     A
C86    H87     0.952   .     S
C86    C88     1.407   .     A
C88    H89     0.950   .     S
C88    N241    1.329   .     A
C90    C91     1.360   .     A
C90    C97     1.369   1_655 A
C91    H92     0.952   .     S
C91    C93     1.383   .     A
C93    H94     0.950   .     S
C93    N242    1.334   1_655 A
C95    H96     0.952   .     S
C95    C97     1.374   .     A
C95    N242    1.327   .     A
C97    H98     0.949   .     S
C97    C90     1.369   1_455 A
C99    H100    0.948   .     S
C99    C101    1.394   .     S
C99    N243    1.346   1_455 A
C101   H102    0.950   .     S
C101   C103    1.369   1_455 A
C103   H104    0.952   .     S
C103   C105    1.438   .     S
C103   C101    1.369   1_655 A
C105   C106    1.376   .     D
C105   N243    1.410   .     S
C106   C107    1.378   .     S
C106   C114    1.547   .     S
C107   C108    1.431   .     A
C107   N244    1.430   .     A
C108   H109    0.952   .     S
C108   C110    1.363   .     A
C110   H111    0.950   .     S
C110   C112    1.405   .     A
C112   H113    0.950   .     S
C112   N244    1.347   .     A
C114   C115    1.390   .     A
C114   C121    1.349   .     A
C115   H116    0.947   .     S
C115   C117    1.373   .     A
C117   H118    0.950   .     S
C117   N513    1.321   .     A
C119   H120    0.948   .     S
C119   C121    1.380   .     A
C119   N513    1.325   .     A
C121   H122    0.950   .     S
C123   H124    0.950   .     S
C123   C125    1.401   .     S
C123   N246    1.341   .     D
C125   H126    0.950   .     S
C125   C127    1.368   .     D
C127   H128    0.952   .     S
C127   C129    1.434   .     S
C129   C130    1.402   .     D
C129   N246    1.393   .     S
C130   C131    1.414   1_655 S
C130   C138    1.481   1_655 S
C131   C132    1.420   .     A
C131   N247    1.394   .     A
C131   C130    1.414   1_455 S
C132   H133    0.949   .     S
C132   C134    1.356   .     A
C134   H135    0.950   .     S
C134   C136    1.410   .     A
C136   H137    0.951   .     S
C136   N247    1.342   .     A
C138   C139    1.388   .     A
C138   C130    1.481   1_455 S
C138   C145    1.400   1_455 S
C139   H140    0.950   .     S
C139   C141    1.393   .     A
C141   H142    0.951   .     S
C141   N248    1.328   .     A
C143   H144    0.950   .     S
C143   C145    1.375   .     A
C143   N248    1.340   1_655 S
C145   H146    0.951   .     S
C145   C138    1.400   1_655 S
C147   H148    0.949   .     S
C147   C149    1.411   .     S
C147   N249    1.329   .     D
C149   H150    0.951   .     S
C149   C151    1.358   .     D
C151   H152    0.953   .     S
C151   C153    1.421   .     S
C153   C154    1.391   .     D
C153   N249    1.395   .     S
C154   C155    1.378   .     S
C154   C162    1.503   .     S
C155   C156    1.424   .     A
C155   N250    1.406   .     A
C156   H157    0.952   .     S
C156   C158    1.370   .     A
C158   H159    0.951   .     S
C158   C160    1.391   .     A
C160   H161    0.950   .     S
C160   N250    1.347   .     A
C162   C163    1.374   .     A
C162   C169    1.392   .     A
C163   H164    0.949   .     S
C163   C165    1.396   .     A
C165   H166    0.949   .     S
C165   N251    1.305   .     A
C167   H168    0.951   .     S
C167   C169    1.399   .     A
C167   N251    1.326   .     A
C169   H170    0.951   .     S
C171   H172    0.952   .     S
C171   C173    1.405   .     S
C171   N252    1.329   .     D
C173   H174    0.950   .     S
C173   C175    1.370   .     D
C175   H176    0.949   .     S
C175   C177    1.433   .     S
C177   N252    1.405   .     S
C177   C1074   1.378   .     D
C178   H179    0.950   .     S
C178   C180    1.376   .     A
C178   C1075   1.391   .     A
C180   H181    0.949   .     S
C180   N1077   1.335   .     A
C182   H183    0.951   .     S
C182   C184    1.399   .     S
C182   N253    1.314   .     D
C184   H185    0.950   .     S
C184   C186    1.368   .     D
C186   H187    0.951   .     S
C186   C188    1.414   .     S
C188   C189    1.404   .     D
C188   N253    1.384   .     S
C189   C190    1.410   .     S
C189   C197    1.484   .     S
C190   C191    1.420   .     A
C190   N254    1.405   .     A
C191   H192    0.951   .     S
C191   C193    1.349   .     A
C193   H194    0.950   .     S
C193   C195    1.399   .     A
C195   H196    0.949   .     S
C195   N254    1.350   .     A
C197   C198    1.370   .     A
C197   C204    1.437   .     A
C198   H199    0.950   1_556 A
C198   C200    1.388   1_556 A
H199   C198    0.950   1_554 A
C200   H201    0.949   .     S
C200   C198    1.388   1_554 A
C200   N255    1.343   1_554 S
C202   H203    0.952   .     S
C202   C204    1.382   .     A
C202   N255    1.313   .     A
C204   H205    0.950   .     S
C206   H207    0.947   .     S
C206   C208    1.432   .     S
C206   N256    1.320   .     D
C208   H209    0.950   .     S
C208   C210    1.364   .     D
C210   H211    0.953   .     S
C210   C212    1.410   .     S
C212   N256    1.399   .     S
C212   C1087   1.394   .     D
C213   H214    0.950   .     S
C213   C215    1.416   .     A
C213   C1088   1.394   .     A
C215   H216    0.949   .     S
C215   N1084   1.325   .     A
C217   F220    1.307   .     S
C217   F221    1.314   .     S
C217   F222    1.327   .     S
C217   S266    1.798   .     S
C218   F223    1.302   .     S
C218   F224    1.312   .     S
C218   F225    1.327   .     S
C218   S267    1.828   .     S
C219   F226    1.392   .     S
C219   F227    1.342   .     S
C219   F228    1.300   .     S
C219   S268    1.761   .     S
Ga229  N231    2.035   .     S
Ga229  N232    2.039   .     S
Ga229  N234    2.075   .     S
Ga229  N235    2.037   .     S
Ga229  N237    2.079   .     S
Ga229  N238    2.029   .     S
Ga230  N240    2.027   .     S
Ga230  N241    2.088   .     S
Ga230  N243    2.041   .     S
Ga230  N244    2.031   .     S
Ga230  N246    2.025   .     S
Ga230  N247    2.080   1_655 A
N231   C3      1.347   1_554 S
N234   C27     1.324   1_554 S
N234   C33     1.416   1_554 D
N236   C47     1.362   1_556 A
N239   Ag1073  2.290   .     S
N242   Ag1     2.279   1_556 S
N242   C93     1.334   1_455 A
N243   C99     1.346   1_655 A
N245   C387    1.325   .     A
N245   C385    1.321   1_556 S
N247   Ga230   2.080   1_455 A
N248   C143    1.340   1_455 S
N249   Ga1076  2.014   .     S
N250   Ga1076  2.077   .     S
N251   Ag1083  2.233   .     S
N252   Ga1076  2.065   .     S
N253   Ga1089  2.090   .     S
N254   Ga1089  2.032   .     S
N255   C200    1.343   1_556 S
N256   Ga1089  2.059   .     S
O257   S266    1.431   .     A
O258   S266    1.431   .     A
O259   S266    1.440   .     A
O260   S267    1.437   .     A
O261   S267    1.448   .     A
O262   S267    1.431   .     A
O263   S268    1.391   .     A
O264   S268    1.407   1_554 S
O265   S268    1.742   1_554 D
S268   O264    1.407   1_556 S
S268   O265    1.742   1_556 D
Ag269  N501    2.246   .     S
Ag269  N510    2.279   .     S
Ag269  N516    2.330   .     S
Ag270  N504    2.266   .     S
Ag270  N513    2.268   .     S
Ag270  N523    2.313   .     S
C271   H272    0.949   .     S
C271   C273    1.410   .     S
C271   N499    1.347   .     D
C273   H274    0.949   .     S
C273   C275    1.380   .     D
C275   H276    0.951   .     S
C275   C277    1.456   .     S
C277   C278    1.375   .     D
C277   N499    1.416   .     S
C278   C279    1.396   .     S
C278   C286    1.530   .     S
C279   C280    1.434   .     A
C279   N500    1.386   .     A
C280   H281    0.950   .     S
C280   C282    1.348   .     A
C282   H283    0.950   .     S
C282   C284    1.412   .     A
C284   H285    0.949   .     S
C284   N500    1.358   .     A
C286   C287    1.358   .     A
C286   C293    1.345   .     A
C287   H288    0.949   .     S
C287   C289    1.419   .     A
C289   N501    1.322   .     A
C289   H290    0.950   1_565 S
H290   C289    0.950   1_545 S
C291   H292    0.948   .     S
C291   C293    1.395   .     A
C291   N501    1.307   .     A
C293   H294    0.949   .     S
C295   H296    0.951   .     S
C295   C297    1.439   .     S
C295   N502    1.324   .     D
C297   C299    1.346   .     D
C297   H298    0.951   1_655 D
H298   C297    0.951   1_455 D
C299   H300    0.949   .     S
C299   C301    1.422   .     S
C301   C302    1.400   .     D
C301   N502    1.416   .     S
C302   C303    1.384   .     S
C302   C310    1.490   .     S
C303   C304    1.429   .     A
C303   N503    1.391   .     A
C304   H305    0.947   .     S
C304   C306    1.382   .     A
C306   H307    0.951   .     S
C306   C308    1.395   .     A
C308   H309    0.947   .     S
C308   N503    1.348   .     A
C310   C311    1.315   .     A
C310   C317    1.398   .     A
C311   H312    0.949   .     S
C311   C313    1.420   .     A
C313   H314    0.950   .     S
C313   N504    1.277   .     A
C315   H316    0.952   .     S
C315   C317    1.397   .     A
C315   N504    1.362   .     A
C317   H318    0.949   .     S
C319   H320    0.948   .     S
C319   C321    1.415   .     S
C319   N505    1.374   .     D
C321   H322    0.951   .     S
C321   C323    1.359   .     D
C323   H324    0.951   .     S
C323   C325    1.473   .     S
C325   C326    1.388   .     D
C325   N505    1.381   .     S
C326   C327    1.379   .     S
C326   C334    1.502   .     S
C327   N506    1.420   .     A
C327   C328    1.420   1_655 S
C328   H329    0.948   .     S
C328   C330    1.375   .     A
C328   C327    1.420   1_455 S
C330   H331    0.951   .     S
C330   C332    1.395   1_455 A
C332   H333    0.952   .     S
C332   N506    1.374   .     A
C332   C330    1.395   1_655 A
C334   C335    1.357   1_655 A
C334   C341    1.452   1_655 S
C335   H336    0.949   .     S
C335   C337    1.375   .     A
C335   C334    1.357   1_455 A
C337   H338    0.949   .     S
C337   N507    1.283   .     A
C339   H340    0.949   .     S
C339   C341    1.377   .     A
C339   N507    1.580   .     A
C341   H342    0.952   .     S
C341   C334    1.452   1_455 S
C343   H344    0.948   .     S
C343   C345    1.404   .     S
C343   N508    1.358   .     D
C345   C347    1.370   .     D
C345   H346    0.948   1_545 S
H346   C345    0.948   1_565 S
C347   H348    0.949   .     S
C347   C349    1.438   .     S
C349   C350    1.382   .     D
C349   N508    1.376   .     S
C350   C351    1.404   .     S
C350   C358    1.529   .     S
C351   C352    1.444   .     A
C351   N509    1.391   .     A
C352   H353    0.951   .     S
C352   C354    1.362   .     A
C354   C356    1.407   .     A
C354   H355    0.952   1_556 S
H355   C354    0.952   1_554 S
C356   N509    1.329   .     A
C356   H357    0.950   1_556 S
H357   C356    0.950   1_554 S
C358   C359    1.360   .     A
C358   C365    1.369   1_545 A
C359   H360    0.952   .     S
C359   C361    1.383   .     A
C361   H362    0.950   .     S
C361   N510    1.334   1_545 S
C363   H364    0.952   .     S
C363   C365    1.374   .     A
C363   N510    1.327   .     A
C365   H366    0.949   .     S
C365   C358    1.369   1_565 A
C367   H368    0.948   .     S
C367   C369    1.394   .     A
C367   N511    1.346   1_565 S
C369   H370    0.950   .     S
C369   C371    1.369   1_565 D
C371   H372    0.952   .     S
C371   C373    1.438   .     A
C371   C369    1.369   1_545 D
C373   C374    1.376   .     S
C373   N511    1.410   .     A
C374   C375    1.378   .     D
C374   C382    1.547   .     S
C375   C376    1.431   .     S
C375   N512    1.430   .     S
C376   H377    0.952   .     S
C376   C378    1.363   .     D
C378   H379    0.950   .     S
C378   C380    1.405   .     S
C380   H381    0.950   .     S
C380   N512    1.347   .     D
C382   C389    1.349   .     A
C382   C383    1.390   1_556 S
C383   H384    0.947   .     S
C383   C385    1.373   .     A
C383   C382    1.390   1_554 S
C385   H386    0.950   .     S
C385   N245    1.321   1_554 S
C387   H388    0.948   .     S
C387   C389    1.380   .     A
C389   H390    0.950   .     S
C391   H392    0.950   .     S
C391   C393    1.401   .     S
C391   N514    1.341   .     D
C393   H394    0.950   .     S
C393   C395    1.368   .     D
C395   H396    0.952   .     S
C395   C397    1.434   .     S
C397   C398    1.402   .     D
C397   N514    1.393   .     S
C398   C399    1.414   1_544 S
C398   C406    1.481   1_545 S
C399   C400    1.420   .     A
C399   N515    1.394   .     A
C399   C398    1.414   1_566 S
C400   H401    0.949   .     S
C400   C402    1.356   .     A
C402   H403    0.950   .     S
C402   C404    1.410   .     A
C404   H405    0.951   .     S
C404   N515    1.342   .     A
C406   C407    1.388   .     A
C406   C398    1.481   1_565 S
C406   C413    1.400   1_565 A
C407   H408    0.950   .     S
C407   C409    1.393   .     A
C409   H410    0.951   .     S
C409   N516    1.328   .     A
C411   H412    0.950   .     S
C411   C413    1.375   .     A
C411   N516    1.340   1_545 S
C413   H414    0.951   .     S
C413   C406    1.400   1_545 A
C415   H416    0.949   .     S
C415   N517    1.329   .     D
C415   C417    1.411   1_554 S
C417   H418    0.951   .     S
C417   C419    1.358   .     D
C417   C415    1.411   1_556 S
C419   H420    0.953   .     S
C419   C421    1.421   1_556 S
C421   C422    1.391   .     D
C421   N517    1.395   .     S
C421   C419    1.421   1_554 S
C422   C423    1.378   .     S
C422   C430    1.503   .     S
C423   C424    1.424   .     A
C423   N518    1.406   .     A
C424   H425    0.952   .     S
C424   C426    1.370   .     A
C426   H427    0.951   .     S
C426   C428    1.391   .     A
C428   H429    0.950   .     S
C428   N518    1.347   .     A
C430   C437    1.392   .     A
C430   C431    1.374   1_554 A
C431   H432    0.949   .     S
C431   C433    1.396   .     A
C431   C430    1.374   1_556 A
C433   H434    0.949   .     S
C433   N519    1.305   .     A
C435   H436    0.951   .     S
C435   N519    1.326   .     A
C435   C437    1.399   1_556 A
C437   H438    0.951   .     S
C437   C435    1.399   1_554 A
C439   H440    0.952   .     S
C439   C441    1.405   .     A
C439   N520    1.329   .     A
C441   H442    0.950   .     S
C441   C443    1.370   .     A
C443   H444    0.949   .     S
C443   C445    1.433   .     A
C445   N520    1.405   .     A
C445   C1074   1.378   .     S
C446   H447    0.950   .     S
C446   C448    1.376   .     A
C446   C1075   1.391   .     A
C448   H449    0.949   .     S
C448   N1077   1.335   .     A
C450   H451    0.951   .     S
C450   C452    1.399   .     S
C450   N521    1.314   .     D
C452   H453    0.950   .     S
C452   C454    1.368   .     D
C454   H455    0.951   .     S
C454   C456    1.414   .     S
C456   C457    1.404   .     D
C456   N521    1.384   .     S
C457   C458    1.410   .     S
C457   C465    1.484   .     S
C458   C459    1.420   .     A
C458   N522    1.405   .     A
C459   H460    0.951   .     S
C459   C461    1.349   .     A
C461   H462    0.950   .     S
C461   C463    1.399   .     A
C463   H464    0.949   .     S
C463   N522    1.350   .     A
C465   C466    1.370   .     A
C465   C472    1.437   .     A
C466   H467    0.950   .     S
C466   C468    1.388   .     A
C468   H469    0.949   .     S
C468   N523    1.343   .     A
C470   H471    0.952   .     S
C470   C472    1.382   .     A
C470   N523    1.313   .     A
C472   H473    0.950   .     S
C474   H475    0.947   .     S
C474   C476    1.432   .     A
C474   N524    1.320   .     A
C476   C478    1.364   .     A
C476   H477    0.950   1_556 S
H477   C476    0.950   1_554 S
C478   H479    0.953   .     S
C478   C480    1.410   .     A
C480   N524    1.399   .     A
C480   C1087   1.394   .     S
C481   H482    0.950   .     S
C481   C483    1.416   .     A
C481   C1088   1.394   .     A
C483   H484    0.949   .     S
C483   N1084   1.325   .     A
C485   F488    1.307   .     S
C485   F489    1.314   .     S
C485   F490    1.327   .     S
C485   S534    1.798   .     S
C486   F491    1.302   .     S
C486   F492    1.312   .     S
C486   F493    1.327   .     S
C486   S535    1.828   .     S
C487   F494    1.392   .     S
C487   F495    1.342   .     S
C487   F496    1.300   .     S
C487   S536    1.761   .     S
Ga497  N499    2.035   .     S
Ga497  N500    2.039   .     S
Ga497  N502    2.075   .     S
Ga497  N503    2.037   .     S
Ga497  N505    2.079   .     S
Ga497  N506    2.029   .     S
Ga498  N508    2.027   .     S
Ga498  N509    2.088   .     S
Ga498  N511    2.041   .     S
Ga498  N512    2.031   .     S
Ga498  N514    2.025   1_556 A
Ga498  N515    2.080   1_545 S
N507   Ag1073  2.290   .     S
N510   C361    1.334   1_565 S
N511   C367    1.346   1_545 S
N514   Ga498   2.025   1_554 A
N515   Ga498   2.080   1_565 S
N516   C411    1.340   1_565 S
N517   Ga1076  2.014   .     S
N518   Ga1076  2.077   .     S
N519   Ag1083  2.233   .     S
N520   Ga1076  2.065   .     S
N521   Ga1089  2.090   .     S
N522   Ga1089  2.032   .     S
N524   Ga1089  2.059   .     S
O525   S534    1.431   .     A
O526   S534    1.431   .     A
O527   S534    1.440   .     A
O528   S535    1.437   .     A
O529   S535    1.448   .     A
O530   S535    1.431   .     A
O531   S536    1.391   .     A
O532   S536    1.407   .     A
O533   S536    1.742   .     A
Ag537  N769    2.246   .     S
Ag537  N784    2.330   .     S
Ag537  N778    2.279   1_556 D
Ag538  N772    2.266   .     S
Ag538  N781    2.268   .     S
Ag538  N791    2.313   .     S
C539   H540    0.949   .     S
C539   C541    1.410   .     S
C539   N767    1.347   1_554 S
C541   H542    0.949   .     S
C541   C543    1.380   .     D
C543   H544    0.951   .     S
C543   C545    1.456   1_554 S
C545   C546    1.375   .     D
C545   N767    1.416   .     S
C545   C543    1.456   1_556 S
C546   C547    1.396   .     S
C546   C554    1.530   .     S
C547   C548    1.434   .     A
C547   N768    1.386   .     A
C548   H549    0.950   .     S
C548   C550    1.348   .     A
C550   H551    0.950   .     S
C550   C552    1.412   .     A
C552   H553    0.949   .     S
C552   N768    1.358   .     A
C554   C555    1.358   .     A
C554   C561    1.345   .     A
C555   H556    0.949   .     S
C555   C557    1.419   .     A
C557   N769    1.322   .     A
C557   H558    0.950   1_655 A
H558   C557    0.950   1_455 A
C559   H560    0.948   .     S
C559   C561    1.395   .     A
C559   N769    1.307   .     A
C561   H562    0.949   .     S
C563   H564    0.951   .     S
C563   C565    1.439   .     S
C563   N770    1.324   1_554 S
C565   C567    1.346   .     D
C565   H566    0.951   1_565 A
H566   C565    0.951   1_545 A
C567   H568    0.949   .     S
C567   C569    1.422   .     S
C569   C570    1.400   1_554 A
C569   N770    1.416   1_554 S
C570   C571    1.384   .     S
C570   C578    1.490   .     S
C570   C569    1.400   1_556 A
C571   C572    1.429   .     A
C571   N771    1.391   .     A
C572   H573    0.947   .     S
C572   C574    1.382   .     A
C574   H575    0.951   .     S
C574   C576    1.395   .     A
C576   H577    0.947   .     S
C576   N771    1.348   .     A
C578   C585    1.398   .     A
C578   C579    1.315   1_556 A
C579   H580    0.949   .     S
C579   C581    1.420   .     A
C579   C578    1.315   1_554 A
C581   H582    0.950   .     S
C581   N772    1.277   .     A
C583   H584    0.952   .     S
C583   C585    1.397   .     A
C583   N772    1.362   1_556 S
C585   H586    0.949   .     S
C587   H588    0.948   .     S
C587   C589    1.415   .     S
C587   N773    1.374   .     D
C589   H590    0.951   .     S
C589   C591    1.359   .     D
C591   H592    0.951   .     S
C591   C593    1.473   .     S
C593   C594    1.388   .     D
C593   N773    1.381   .     S
C594   C595    1.379   .     S
C594   C602    1.502   .     S
C595   N774    1.420   .     A
C595   C596    1.420   1_565 A
C596   H597    0.948   .     S
C596   C598    1.375   .     A
C596   C595    1.420   1_545 A
C598   H599    0.951   .     S
C598   C600    1.395   1_545 A
C600   H601    0.952   .     S
C600   N774    1.374   .     A
C600   C598    1.395   1_565 A
C602   C603    1.357   1_565 A
C602   C609    1.452   1_565 A
C603   H604    0.949   .     S
C603   C605    1.375   .     A
C603   C602    1.357   1_545 A
C605   H606    0.949   .     S
C605   N775    1.283   .     A
C607   H608    0.949   .     S
C607   C609    1.377   .     A
C607   N775    1.580   .     A
C609   H610    0.952   .     S
C609   C602    1.452   1_545 A
C611   H612    0.948   .     S
C611   C613    1.404   .     S
C611   N776    1.358   .     D
C613   C615    1.370   .     D
C613   H614    0.948   1_455 S
H614   C613    0.948   1_655 S
C615   H616    0.949   .     S
C615   C617    1.438   .     S
C617   C618    1.382   .     D
C617   N776    1.376   .     S
C618   C619    1.404   .     S
C618   C626    1.529   .     S
C619   C620    1.444   .     A
C619   N777    1.391   .     A
C620   H621    0.951   .     S
C620   C622    1.362   .     A
C622   H623    0.952   .     S
C622   C624    1.407   .     A
C624   H625    0.950   .     S
C624   N777    1.329   .     A
C626   C627    1.360   .     A
C626   C633    1.369   1_455 S
C627   H628    0.952   .     S
C627   C629    1.383   .     A
C629   H630    0.950   .     S
C629   N778    1.334   1_455 D
C631   H632    0.952   .     S
C631   C633    1.374   .     A
C631   N778    1.327   .     A
C633   H634    0.949   .     S
C633   C626    1.369   1_655 S
C635   H636    0.948   .     S
C635   C637    1.394   .     S
C635   N779    1.346   1_655 S
C637   H638    0.950   .     S
C637   C639    1.369   1_655 D
C639   H640    0.952   .     S
C639   C641    1.438   .     S
C639   C637    1.369   1_455 D
C641   C642    1.376   .     D
C641   N779    1.410   .     S
C642   C643    1.378   .     S
C642   C650    1.547   .     S
C643   C644    1.431   .     A
C643   N780    1.430   .     A
C644   H645    0.952   .     S
C644   C646    1.363   .     A
C646   H647    0.950   .     S
C646   C648    1.405   .     A
C648   H649    0.950   .     S
C648   N780    1.347   .     A
C650   C651    1.390   .     A
C650   C657    1.349   .     A
C651   H652    0.947   .     S
C651   C653    1.373   .     A
C653   H654    0.950   .     S
C653   N1049   1.321   .     A
C655   H656    0.948   .     S
C655   C657    1.380   .     A
C655   N1049   1.325   .     A
C657   H658    0.950   .     S
C659   H660    0.950   .     S
C659   C661    1.401   .     S
C659   N782    1.341   .     D
C661   H662    0.950   .     S
C661   C663    1.368   .     D
C663   H664    0.952   .     S
C663   C665    1.434   .     S
C665   C666    1.402   .     D
C665   N782    1.393   .     S
C666   C667    1.414   1_455 A
C666   C674    1.481   1_455 A
C667   C668    1.420   .     A
C667   N783    1.394   .     A
C667   C666    1.414   1_655 A
C668   H669    0.949   .     S
C668   C670    1.356   .     A
C670   H671    0.950   .     S
C670   C672    1.410   .     A
C672   H673    0.951   .     S
C672   N783    1.342   .     A
C674   C675    1.388   .     A
C674   C666    1.481   1_655 A
C674   C681    1.400   1_655 S
C675   H676    0.950   .     S
C675   C677    1.393   .     A
C677   H678    0.951   .     S
C677   N784    1.328   .     A
C679   H680    0.950   .     S
C679   C681    1.375   .     A
C679   N784    1.340   1_455 A
C681   H682    0.951   .     S
C681   C674    1.400   1_455 S
C683   H684    0.949   .     S
C683   C685    1.411   .     S
C683   N785    1.329   .     D
C685   H686    0.951   .     S
C685   C687    1.358   .     D
C687   H688    0.953   .     S
C687   C689    1.421   .     S
C689   C690    1.391   .     D
C689   N785    1.395   .     S
C690   C691    1.378   .     S
C690   C698    1.503   .     S
C691   C692    1.424   .     A
C691   N786    1.406   .     A
C692   H693    0.952   .     S
C692   C694    1.370   .     A
C694   H695    0.951   .     S
C694   C696    1.391   .     A
C696   H697    0.950   .     S
C696   N786    1.347   .     A
C698   C699    1.374   .     A
C698   C705    1.392   .     A
C699   H700    0.949   .     S
C699   C701    1.396   .     A
C701   H702    0.949   .     S
C701   N787    1.305   .     A
C703   H704    0.951   .     S
C703   C705    1.399   .     A
C703   N787    1.326   .     A
C705   H706    0.951   .     S
C707   H708    0.952   .     S
C707   C709    1.405   .     A
C707   N788    1.329   .     A
C709   H710    0.950   .     S
C709   C711    1.370   .     A
C711   H712    0.949   .     S
C711   C713    1.433   .     A
C713   N788    1.405   .     A
C713   C1079   1.378   .     S
C714   H715    0.950   .     S
C714   C716    1.376   .     A
C714   C1080   1.391   .     A
C716   H717    0.949   .     S
C716   N1082   1.335   .     A
C718   H719    0.951   .     S
C718   C720    1.399   .     S
C718   N789    1.314   .     D
C720   H721    0.950   .     S
C720   C722    1.368   .     D
C722   H723    0.951   .     S
C722   C724    1.414   .     S
C724   C725    1.404   .     D
C724   N789    1.384   .     S
C725   C726    1.410   .     S
C725   C733    1.484   .     S
C726   C727    1.420   .     A
C726   N790    1.405   .     A
C727   H728    0.951   .     S
C727   C729    1.349   .     A
C729   H730    0.950   .     S
C729   C731    1.399   .     A
C731   H732    0.949   .     S
C731   N790    1.350   .     A
C733   C734    1.370   .     A
C733   C740    1.437   .     A
C734   H735    0.950   1_554 A
C734   C736    1.388   1_554 A
H735   C734    0.950   1_556 A
C736   H737    0.949   .     S
C736   C734    1.388   1_556 A
C736   N791    1.343   1_556 S
C738   H739    0.952   .     S
C738   C740    1.382   .     A
C738   N791    1.313   .     A
C740   H741    0.950   .     S
C742   H743    0.947   .     S
C742   C744    1.432   .     A
C742   N792    1.320   .     A
C744   H745    0.950   .     S
C744   C746    1.364   .     A
C746   H747    0.953   .     S
C746   C748    1.410   .     A
C748   N792    1.399   .     A
C748   C1090   1.394   .     S
C749   H750    0.950   .     S
C749   C751    1.416   .     A
C749   C1091   1.394   .     A
C751   H752    0.949   .     S
C751   N1086   1.325   .     A
C753   F756    1.307   .     S
C753   F757    1.314   .     S
C753   F758    1.327   .     S
C753   S802    1.798   .     S
C754   F759    1.302   .     S
C754   F760    1.312   .     S
C754   F761    1.327   .     S
C754   S803    1.828   .     S
C755   F762    1.392   .     S
C755   F763    1.342   .     S
C755   F764    1.300   .     S
C755   S804    1.761   .     S
Ga765  N767    2.035   .     S
Ga765  N768    2.039   .     S
Ga765  N770    2.075   .     S
Ga765  N771    2.037   .     S
Ga765  N773    2.079   .     S
Ga765  N774    2.029   .     S
Ga766  N776    2.027   .     S
Ga766  N777    2.088   .     S
Ga766  N779    2.041   .     S
Ga766  N780    2.031   .     S
Ga766  N782    2.025   .     S
Ga766  N783    2.080   1_455 A
N767   C539    1.347   1_556 S
N770   C563    1.324   1_556 S
N770   C569    1.416   1_556 S
N772   C583    1.362   1_554 S
N775   Ag1078  2.290   .     S
N778   Ag537   2.279   1_554 D
N778   C629    1.334   1_655 D
N779   C635    1.346   1_455 S
N781   C923    1.325   .     A
N781   C921    1.321   1_554 D
N783   Ga766   2.080   1_655 A
N784   C679    1.340   1_655 A
N785   Ga1081  2.014   .     S
N786   Ga1081  2.077   .     S
N787   Ag1085  2.233   .     S
N788   Ga1081  2.065   .     S
N789   Ga1092  2.090   .     S
N790   Ga1092  2.032   .     S
N791   C736    1.343   1_554 S
N792   Ga1092  2.059   .     S
O793   S802    1.431   .     A
O794   S802    1.431   .     A
O795   S802    1.440   .     A
O796   S803    1.437   .     A
O797   S803    1.448   .     A
O798   S803    1.431   .     A
O799   S804    1.391   .     A
O800   S804    1.407   1_556 S
O801   S804    1.742   1_556 S
S804   O800    1.407   1_554 S
S804   O801    1.742   1_554 S
Ag805  N1037   2.246   .     S
Ag805  N1046   2.279   .     S
Ag805  N1052   2.330   .     S
Ag806  N1040   2.266   .     S
Ag806  N1049   2.268   .     S
Ag806  N1059   2.313   .     S
C807   H808    0.949   .     S
C807   C809    1.410   .     S
C807   N1035   1.347   .     D
C809   H810    0.949   .     S
C809   C811    1.380   .     D
C811   H812    0.951   .     S
C811   C813    1.456   .     S
C813   C814    1.375   .     D
C813   N1035   1.416   .     S
C814   C815    1.396   .     S
C814   C822    1.530   .     S
C815   C816    1.434   .     A
C815   N1036   1.386   .     A
C816   H817    0.950   .     S
C816   C818    1.348   .     A
C818   H819    0.950   .     S
C818   C820    1.412   .     A
C820   H821    0.949   .     S
C820   N1036   1.358   .     A
C822   C823    1.358   .     A
C822   C829    1.345   .     A
C823   H824    0.949   .     S
C823   C825    1.419   .     A
C825   N1037   1.322   .     A
C825   H826    0.950   1_545 A
H826   C825    0.950   1_565 A
C827   H828    0.948   .     S
C827   C829    1.395   .     A
C827   N1037   1.307   .     A
C829   H830    0.949   .     S
C831   H832    0.951   .     S
C831   C833    1.439   .     S
C831   N1038   1.324   .     D
C833   C835    1.346   .     D
C833   H834    0.951   1_455 A
H834   C833    0.951   1_655 A
C835   H836    0.949   .     S
C835   C837    1.422   .     S
C837   C838    1.400   .     D
C837   N1038   1.416   .     S
C838   C839    1.384   .     S
C838   C846    1.490   .     S
C839   C840    1.429   .     A
C839   N1039   1.391   .     A
C840   H841    0.947   .     S
C840   C842    1.382   .     A
C842   H843    0.951   .     S
C842   C844    1.395   .     A
C844   H845    0.947   .     S
C844   N1039   1.348   .     A
C846   C847    1.315   .     A
C846   C853    1.398   .     A
C847   H848    0.949   .     S
C847   C849    1.420   .     A
C849   H850    0.950   .     S
C849   N1040   1.277   .     A
C851   H852    0.952   .     S
C851   C853    1.397   .     A
C851   N1040   1.362   .     A
C853   H854    0.949   .     S
C855   H856    0.948   .     S
C855   C857    1.415   .     S
C855   N1041   1.374   .     D
C857   H858    0.951   .     S
C857   C859    1.359   .     D
C859   H860    0.951   .     S
C859   C861    1.473   .     S
C861   C862    1.388   .     D
C861   N1041   1.381   .     S
C862   C863    1.379   .     S
C862   C870    1.502   .     S
C863   N1042   1.420   .     A
C863   C864    1.420   1_455 A
C864   H865    0.948   .     S
C864   C866    1.375   .     A
C864   C863    1.420   1_655 A
C866   H867    0.951   .     S
C866   C868    1.395   1_655 A
C868   H869    0.952   .     S
C868   N1042   1.374   .     A
C868   C866    1.395   1_455 A
C870   C871    1.357   1_455 A
C870   C877    1.452   1_455 S
C871   H872    0.949   .     S
C871   C873    1.375   .     A
C871   C870    1.357   1_655 A
C873   H874    0.949   .     S
C873   N1043   1.283   .     A
C875   H876    0.949   .     S
C875   C877    1.377   .     A
C875   N1043   1.580   .     A
C877   H878    0.952   .     S
C877   C870    1.452   1_655 S
C879   H880    0.948   .     S
C879   C881    1.404   .     S
C879   N1044   1.358   .     D
C881   C883    1.370   .     D
C881   H882    0.948   1_565 A
H882   C881    0.948   1_545 A
C883   H884    0.949   .     S
C883   C885    1.438   .     S
C885   C886    1.382   .     D
C885   N1044   1.376   .     S
C886   C887    1.404   .     S
C886   C894    1.529   .     S
C887   C888    1.444   .     A
C887   N1045   1.391   .     A
C888   H889    0.951   .     S
C888   C890    1.362   .     A
C890   C892    1.407   .     A
C890   H891    0.952   1_554 A
H891   C890    0.952   1_556 A
C892   N1045   1.329   .     A
C892   H893    0.950   1_554 S
H893   C892    0.950   1_556 S
C894   C895    1.360   .     A
C894   C901    1.369   1_565 S
C895   H896    0.952   .     S
C895   C897    1.383   .     A
C897   H898    0.950   .     S
C897   N1046   1.334   1_565 D
C899   H900    0.952   .     S
C899   C901    1.374   .     A
C899   N1046   1.327   .     A
C901   H902    0.949   .     S
C901   C894    1.369   1_545 S
C903   H904    0.948   .     S
C903   C905    1.394   .     A
C903   N1047   1.346   1_545 D
C905   H906    0.950   .     S
C905   C907    1.369   1_545 S
C907   H908    0.952   .     S
C907   C909    1.438   .     A
C907   C905    1.369   1_565 S
C909   C910    1.376   .     S
C909   N1047   1.410   .     A
C910   C911    1.378   .     D
C910   C918    1.547   .     S
C911   C912    1.431   .     S
C911   N1048   1.430   .     S
C912   H913    0.952   .     S
C912   C914    1.363   .     D
C914   H915    0.950   .     S
C914   C916    1.405   .     S
C916   H917    0.950   .     S
C916   N1048   1.347   .     D
C918   C925    1.349   .     A
C918   C919    1.390   1_554 S
C919   H920    0.947   .     S
C919   C921    1.373   .     A
C919   C918    1.390   1_556 S
C921   H922    0.950   .     S
C921   N781    1.321   1_556 D
C923   H924    0.948   .     S
C923   C925    1.380   .     A
C925   H926    0.950   .     S
C927   H928    0.950   .     S
C927   C929    1.401   .     S
C927   N1050   1.341   .     D
C929   H930    0.950   .     S
C929   C931    1.368   .     D
C931   H932    0.952   .     S
C931   C933    1.434   .     S
C933   C934    1.402   .     D
C933   N1050   1.393   .     S
C934   C935    1.414   1_566 A
C934   C942    1.481   1_565 A
C935   C936    1.420   .     A
C935   N1051   1.394   .     A
C935   C934    1.414   1_544 A
C936   H937    0.949   .     S
C936   C938    1.356   .     A
C938   H939    0.950   .     S
C938   C940    1.410   .     A
C940   H941    0.951   .     S
C940   N1051   1.342   .     A
C942   C943    1.388   .     A
C942   C934    1.481   1_545 A
C942   C949    1.400   1_545 S
C943   H944    0.950   .     S
C943   C945    1.393   .     A
C945   H946    0.951   .     S
C945   N1052   1.328   .     A
C947   H948    0.950   .     S
C947   C949    1.375   .     A
C947   N1052   1.340   1_565 S
C949   H950    0.951   .     S
C949   C942    1.400   1_565 S
C951   H952    0.949   .     S
C951   N1053   1.329   .     D
C951   C953    1.411   1_556 S
C953   H954    0.951   .     S
C953   C955    1.358   .     D
C953   C951    1.411   1_554 S
C955   H956    0.953   .     S
C955   C957    1.421   1_554 S
C957   C958    1.391   .     D
C957   N1053   1.395   .     S
C957   C955    1.421   1_556 S
C958   C959    1.378   .     S
C958   C966    1.503   .     S
C959   C960    1.424   .     A
C959   N1054   1.406   .     A
C960   H961    0.952   .     S
C960   C962    1.370   .     A
C962   H963    0.951   .     S
C962   C964    1.391   .     A
C964   H965    0.950   .     S
C964   N1054   1.347   .     A
C966   C973    1.392   .     A
C966   C967    1.374   1_556 D
C967   H968    0.949   .     S
C967   C969    1.396   .     A
C967   C966    1.374   1_554 D
C969   H970    0.949   .     S
C969   N1055   1.305   .     A
C971   H972    0.951   .     S
C971   N1055   1.326   .     A
C971   C973    1.399   1_554 S
C973   H974    0.951   .     S
C973   C971    1.399   1_556 S
C975   H976    0.952   .     S
C975   C977    1.405   .     S
C975   N1056   1.329   .     D
C977   H978    0.950   .     S
C977   C979    1.370   .     D
C979   H980    0.949   .     S
C979   C981    1.433   .     S
C981   N1056   1.405   .     S
C981   C1079   1.378   .     D
C982   H983    0.950   .     S
C982   C984    1.376   .     A
C982   C1080   1.391   .     A
C984   H985    0.949   .     S
C984   N1082   1.335   .     A
C986   H987    0.951   .     S
C986   C988    1.399   .     S
C986   N1057   1.314   .     D
C988   H989    0.950   .     S
C988   C990    1.368   .     D
C990   H991    0.951   .     S
C990   C992    1.414   .     S
C992   C993    1.404   .     D
C992   N1057   1.384   .     S
C993   C994    1.410   .     S
C993   C1001   1.484   .     S
C994   C995    1.420   .     A
C994   N1058   1.405   .     A
C995   H996    0.951   .     S
C995   C997    1.349   .     A
C997   H998    0.950   .     S
C997   C999    1.399   .     A
C999   H1000   0.949   .     S
C999   N1058   1.350   .     A
C1001  C1002   1.370   .     A
C1001  C1008   1.437   .     A
C1002  H1003   0.950   .     S
C1002  C1004   1.388   .     A
C1004  H1005   0.949   .     S
C1004  N1059   1.343   .     A
C1006  H1007   0.952   .     S
C1006  C1008   1.382   .     A
C1006  N1059   1.313   .     A
C1008  H1009   0.950   .     S
C1010  H1011   0.947   .     S
C1010  C1012   1.432   .     S
C1010  N1060   1.320   .     D
C1012  C1014   1.364   .     D
C1012  H1013   0.950   1_554 A
H1013  C1012   0.950   1_556 A
C1014  H1015   0.953   .     S
C1014  C1016   1.410   .     S
C1016  N1060   1.399   .     S
C1016  C1090   1.394   .     D
C1017  H1018   0.950   .     S
C1017  C1019   1.416   .     A
C1017  C1091   1.394   .     A
C1019  H1020   0.949   .     S
C1019  N1086   1.325   .     A
C1021  F1024   1.307   .     S
C1021  F1025   1.314   .     S
C1021  F1026   1.327   .     S
C1021  S1070   1.798   .     S
C1022  F1027   1.302   .     S
C1022  F1028   1.312   .     S
C1022  F1029   1.327   .     S
C1022  S1071   1.828   .     S
C1023  F1030   1.392   .     S
C1023  F1031   1.342   .     S
C1023  F1032   1.300   .     S
C1023  S1072   1.761   .     S
Ga1033 N1035   2.035   .     S
Ga1033 N1036   2.039   .     S
Ga1033 N1038   2.075   .     S
Ga1033 N1039   2.037   .     S
Ga1033 N1041   2.079   .     S
Ga1033 N1042   2.029   .     S
Ga1034 N1044   2.027   .     S
Ga1034 N1045   2.088   .     S
Ga1034 N1047   2.041   .     S
Ga1034 N1048   2.031   .     S
Ga1034 N1050   2.025   1_554 S
Ga1034 N1051   2.080   1_565 A
N1043  Ag1078  2.290   .     S
N1046  C897    1.334   1_545 D
N1047  C903    1.346   1_565 D
N1050  Ga1034  2.025   1_556 S
N1051  Ga1034  2.080   1_545 A
N1052  C947    1.340   1_545 S
N1053  Ga1081  2.014   .     S
N1054  Ga1081  2.077   .     S
N1055  Ag1085  2.233   .     S
N1056  Ga1081  2.065   .     S
N1057  Ga1092  2.090   .     S
N1058  Ga1092  2.032   .     S
N1060  Ga1092  2.059   .     S
O1061  S1070   1.431   .     A
O1062  S1070   1.431   .     A
O1063  S1070   1.440   .     A
O1064  S1071   1.437   .     A
O1065  S1071   1.448   .     A
O1066  S1071   1.431   .     A
O1067  S1072   1.391   .     A
O1068  S1072   1.407   .     A
O1069  S1072   1.742   .     A
Ag1073 N1077   2.175   .     S
C1074  C1075   1.492   .     S
Ag1078 N1082   2.175   .     S
C1079  C1080   1.492   .     S
Ag1083 N1084   2.229   .     S
Ag1085 N1086   2.229   .     S
C1087  C1088   1.496   .     S
C1090  C1091   1.496   .     S
