data_image0
_cell_length_a       14.7871
_cell_length_b       25.536
_cell_length_c       29.6432
_cell_angle_alpha    90
_cell_angle_beta     115.616
_cell_angle_gamma    90

_symmetry_space_group_name_H-M    "P 1"
_symmetry_int_tables_number       1

loop_
  _symmetry_equiv_pos_as_xyz
  'x, y, z'

loop_
  _atom_site_label
  _atom_site_occupancy
  _atom_site_fract_x
  _atom_site_fract_y
  _atom_site_fract_z
  _atom_site_thermal_displace_type
  _atom_site_B_iso_or_equiv
  _atom_site_type_symbol
  W1       1.0000 0.25900  0.66234  0.42391  Biso   1.000  W
  W2       1.0000 0.29485  0.76703  0.49967  Biso   1.000  W
  W3       1.0000 0.21929  0.78387  0.37541  Biso   1.000  W
  W4       1.0000 0.43226  0.63560  0.36632  Biso   1.000  W
  W5       1.0000 0.51836  0.61884  0.50215  Biso   1.000  W
  W6       1.0000 0.55573  0.72293  0.57771  Biso   1.000  W
  W7       1.0000 0.51096  0.85469  0.52375  Biso   1.000  W
  W8       1.0000 0.43429  0.87189  0.40022  Biso   1.000  W
  W9       1.0000 0.39355  0.75708  0.31835  Biso   1.000  W
  W10      1.0000 0.70147  0.64341  0.38679  Biso   1.000  W
  W11      1.0000 0.78690  0.62694  0.52220  Biso   1.000  W
  W12      1.0000 0.82199  0.73164  0.59579  Biso   1.000  W
  W13      1.0000 0.77681  0.86395  0.54119  Biso   1.000  W
  W14      1.0000 0.70035  0.87876  0.41736  Biso   1.000  W
  W15      1.0000 0.66208  0.76400  0.33663  Biso   1.000  W
  W16      1.0000 0.96097  0.68215  0.47435  Biso   1.000  W
  W17      1.0000 0.99648  0.78737  0.54924  Biso   1.000  W
  W18      1.0000 0.92002  0.80306  0.42489  Biso   1.000  W
  P1       1.0000 0.46680  0.74327  0.44714  Biso   1.000  P
  P2       1.0000 0.74840  0.75097  0.46740  Biso   1.000  P
  Cu1      1.0000 0.00444  0.71810  0.74419  Biso   1.000  Cu
  Cu2      1.0000 0.18696  0.52287  0.43857  Biso   1.000  Cu
  C1       1.0000 0.93880  0.77880  0.81460  Biso   1.000  C
  H1       1.0000 0.98930  0.76570  0.84390  Biso   1.000  H
  C2       1.0000 0.83950  0.78870  0.73860  Biso   1.000  C
  H2       1.0000 0.80740  0.78540  0.70400  Biso   1.000  H
  C3       1.0000 0.73320  0.86150  0.74730  Biso   1.000  C
  H3       1.0000 0.72410  0.87620  0.77520  Biso   1.000  H
  H4       1.0000 0.67040  0.84560  0.72450  Biso   1.000  H
  C4       1.0000 0.76170  0.90560  0.72000  Biso   1.000  C
  C5       1.0000 0.85940  0.92510  0.73940  Biso   1.000  C
  H5       1.0000 0.90860  0.91160  0.76890  Biso   1.000  H
  C6       1.0000 0.88240  0.96500  0.71390  Biso   1.000  C
  C7       1.0000 0.81010  0.98400  0.67020  Biso   1.000  C
  H6       1.0000 0.82530  0.01100  0.65350  Biso   1.000  H
  C8       1.0000 0.71460  0.96340  0.65070  Biso   1.000  C
  H7       1.0000 0.66630  0.97630  0.62060  Biso   1.000  H
  C9       1.0000 0.68880  0.92350  0.67520  Biso   1.000  C
  H8       1.0000 0.62440  0.90940  0.66170  Biso   1.000  H
  C10      1.0000 0.98770  0.98480  0.73280  Biso   1.000  C
  H9       1.0000 0.98850  0.01570  0.71390  Biso   1.000  H
  H10      1.0000 0.02900  0.95830  0.72740  Biso   1.000  H
  C11      1.0000 0.04210  0.03680  0.85120  Biso   1.000  C
  H11      1.0000 0.03200  0.06040  0.87250  Biso   1.000  H
  C12      1.0000 0.10000  0.97390  0.82640  Biso   1.000  C
  H12      1.0000 0.13610  0.94460  0.82500  Biso   1.000  H
  C13      1.0000 0.15490  0.63700  0.75150  Biso   1.000  C
  H13      1.0000 0.17210  0.63170  0.78520  Biso   1.000  H
  C14      1.0000 0.09160  0.66500  0.67760  Biso   1.000  C
  H14      1.0000 0.05340  0.68520  0.64980  Biso   1.000  H
  C15      1.0000 0.25490  0.56270  0.73790  Biso   1.000  C
  H15      1.0000 0.21560  0.53300  0.71930  Biso   1.000  H
  H16      1.0000 0.27680  0.55550  0.77320  Biso   1.000  H
  C16      1.0000 0.34440  0.56840  0.72770  Biso   1.000  C
  C17      1.0000 0.35000  0.54180  0.68910  Biso   1.000  C
  H17      1.0000 0.29770  0.52000  0.66890  Biso   1.000  H
  C18      1.0000 0.43620  0.54760  0.67990  Biso   1.000  C
  C19      1.0000 0.51460  0.57770  0.71170  Biso   1.000  C
  H18      1.0000 0.57150  0.58120  0.70610  Biso   1.000  H
  C20      1.0000 0.51030  0.60250  0.75160  Biso   1.000  C
  H19      1.0000 0.56490  0.62220  0.77290  Biso   1.000  H
  C21      1.0000 0.42720  0.59900  0.76090  Biso   1.000  C
  H20      1.0000 0.42500  0.61610  0.78800  Biso   1.000  H
  C22      1.0000 0.44250  0.51830  0.63730  Biso   1.000  C
  H21      1.0000 0.50870  0.52290  0.63860  Biso   1.000  H
  H22      1.0000 0.43240  0.48120  0.64060  Biso   1.000  H
  C23      1.0000 0.32670  0.51060  0.54590  Biso   1.000  C
  H23      1.0000 0.34110  0.47590  0.54210  Biso   1.000  H
  C24      1.0000 0.26750  0.58800  0.53340  Biso   1.000  C
  H24      1.0000 0.23100  0.61750  0.51730  Biso   1.000  H
  C25      1.0000 0.09540  0.13960  0.71740  Biso   1.000  C
  H25      1.0000 0.06090  0.15220  0.68500  Biso   1.000  H
  C26      1.0000 0.14640  0.12620  0.79360  Biso   1.000  C
  H26      1.0000 0.15420  0.12880  0.82640  Biso   1.000  H
  C27      1.0000 0.20900  0.07750  0.70000  Biso   1.000  C
  H27      1.0000 0.28040  0.07230  0.71980  Biso   1.000  H
  H28      1.0000 0.20030  0.10010  0.67210  Biso   1.000  H
  C28      1.0000 0.15960  0.02440  0.67970  Biso   1.000  C
  C29      1.0000 0.06850  0.02350  0.63950  Biso   1.000  C
  H29      1.0000 0.03750  0.05470  0.62470  Biso   1.000  H
  C30      1.0000 0.02230  0.97660  0.62090  Biso   1.000  C
  H30      1.0000 0.95950  0.97640  0.59360  Biso   1.000  H
  C31      1.0000 0.06670  0.92980  0.64160  Biso   1.000  C
  H31      1.0000 0.03390  0.89840  0.62880  Biso   1.000  H
  C32      1.0000 0.16060  0.92980  0.68170  Biso   1.000  C
  C33      1.0000 0.20610  0.97730  0.70200  Biso   1.000  C
  H32      1.0000 0.26720  0.97780  0.73030  Biso   1.000  H
  C34      1.0000 0.21330  0.87980  0.70420  Biso   1.000  C
  H33      1.0000 0.22370  0.85980  0.67900  Biso   1.000  H
  H34      1.0000 0.27850  0.88770  0.73100  Biso   1.000  H
  C35      1.0000 0.12420  0.79900  0.71420  Biso   1.000  C
  H35      1.0000 0.13190  0.77770  0.69060  Biso   1.000  H
  C36      1.0000 0.08620  0.82950  0.76950  Biso   1.000  C
  H36      1.0000 0.05950  0.83200  0.79260  Biso   1.000  H
  N1       1.0000 0.92030  0.76100  0.76910  Biso   1.000  N
  N2       1.0000 0.81230  0.82150  0.76560  Biso   1.000  N
  N3       1.0000 0.87740  0.81730  0.81370  Biso   1.000  N
  N4       1.0000 0.11040  0.99760  0.86800  Biso   1.000  N
  N5       1.0000 0.03040  0.99800  0.78650  Biso   1.000  N
  N6       1.0000 0.99150  0.03870  0.80270  Biso   1.000  N
  N7       1.0000 0.09150  0.67240  0.72310  Biso   1.000  N
  N8       1.0000 0.19080  0.60980  0.72430  Biso   1.000  N
  N9       1.0000 0.14930  0.62740  0.67640  Biso   1.000  N
  N10      1.0000 0.26350  0.54150  0.50960  Biso   1.000  N
  N11      1.0000 0.36540  0.53740  0.58830  Biso   1.000  N
  N12      1.0000 0.32760  0.58650  0.58080  Biso   1.000  N
  N13      1.0000 0.07990  0.15490  0.75620  Biso   1.000  N
  N14      1.0000 0.16650  0.10390  0.73140  Biso   1.000  N
  N15      1.0000 0.19940  0.09400  0.78020  Biso   1.000  N
  N16      1.0000 0.07940  0.78450  0.74320  Biso   1.000  N
  N17      1.0000 0.13220  0.86860  0.76030  Biso   1.000  N
  N18      1.0000 0.15540  0.84780  0.72410  Biso   1.000  N
  O1       1.0000 0.35370  0.74000  0.43890  Biso   1.000  O
  O2       1.0000 0.52780  0.71000  0.49310  Biso   1.000  O
  O3       1.0000 0.49740  0.80130  0.45640  Biso   1.000  O
  O4       1.0000 0.46870  0.72180  0.39980  Biso   1.000  O
  O5       1.0000 0.86190  0.75430  0.47580  Biso   1.000  O
  O6       1.0000 0.74860  0.71670  0.50850  Biso   1.000  O
  O7       1.0000 0.71520  0.80670  0.47130  Biso   1.000  O
  O8       1.0000 0.68810  0.72750  0.41560  Biso   1.000  O
  O9       1.0000 0.23830  0.70060  0.47520  Biso   1.000  O
  O10      1.0000 0.17520  0.71310  0.37820  Biso   1.000  O
  O11      1.0000 0.31720  0.64640  0.37990  Biso   1.000  O
  O12      1.0000 0.37860  0.63540  0.47550  Biso   1.000  O
  O13      1.0000 0.17780  0.61090  0.41360  Biso   1.000  O
  O14      1.0000 0.20500  0.79580  0.43630  Biso   1.000  O
  O15      1.0000 0.38180  0.82580  0.50810  Biso   1.000  O
  O16      1.0000 0.41360  0.73360  0.54700  Biso   1.000  O
  O17      1.0000 0.23800  0.78360  0.53580  Biso   1.000  O
  O18      1.0000 0.30560  0.84190  0.39050  Biso   1.000  O
  O19      1.0000 0.28000  0.75990  0.33500  Biso   1.000  O
  O20      1.0000 0.10830  0.80950  0.33080  Biso   1.000  O
  O21      1.0000 0.49890  0.61510  0.43510  Biso   1.000  O
  O22      1.0000 0.55930  0.64130  0.36590  Biso   1.000  O
  O23      1.0000 0.37750  0.68320  0.31100  Biso   1.000  O
  O24      1.0000 0.39560  0.57780  0.33560  Biso   1.000  O
  O25      1.0000 0.53950  0.64980  0.56530  Biso   1.000  O
  O26      1.0000 0.65840  0.62190  0.52260  Biso   1.000  O
  O27      1.0000 0.50670  0.55410  0.51520  Biso   1.000  O
  O28      1.0000 0.56530  0.79420  0.56270  Biso   1.000  O
  O29      1.0000 0.69380  0.71590  0.58890  Biso   1.000  O
  O30      1.0000 0.57720  0.72540  0.63890  Biso   1.000  O
  O31      1.0000 0.45330  0.89750  0.46400  Biso   1.000  O
  O32      1.0000 0.64050  0.86930  0.52610  Biso   1.000  O
  O33      1.0000 0.51510  0.89900  0.56730  Biso   1.000  O
  O34      1.0000 0.42900  0.82260  0.35200  Biso   1.000  O
  O35      1.0000 0.57150  0.88300  0.41710  Biso   1.000  O
  O36      1.0000 0.38680  0.92660  0.36500  Biso   1.000  O
  O37      1.0000 0.52290  0.75130  0.32150  Biso   1.000  O
  O38      1.0000 0.33100  0.77560  0.25730  Biso   1.000  O
  O39      1.0000 0.72070  0.62180  0.45190  Biso   1.000  O
  O40      1.0000 0.83920  0.66170  0.41780  Biso   1.000  O
  O41      1.0000 0.68140  0.69070  0.33290  Biso   1.000  O
  O42      1.0000 0.71160  0.58630  0.36030  Biso   1.000  O
  O43      1.0000 0.84140  0.65810  0.58640  Biso   1.000  O
  O44      1.0000 0.90150  0.64780  0.51260  Biso   1.000  O
  O45      1.0000 0.82450  0.56340  0.53860  Biso   1.000  O
  O46      1.0000 0.78390  0.80060  0.57840  Biso   1.000  O
  O47      1.0000 0.93600  0.74650  0.58270  Biso   1.000  O
  O48      1.0000 0.88390  0.73340  0.65980  Biso   1.000  O
  O49      1.0000 0.75620  0.90570  0.48430  Biso   1.000  O
  O50      1.0000 0.90480  0.84150  0.54490  Biso   1.000  O
  O51      1.0000 0.82250  0.91020  0.58670  Biso   1.000  O
  O52      1.0000 0.65010  0.82810  0.36590  Biso   1.000  O
  O53      1.0000 0.83190  0.85540  0.42790  Biso   1.000  O
  O54      1.0000 0.69630  0.93450  0.38490  Biso   1.000  O
  O55      1.0000 0.80290  0.77460  0.37140  Biso   1.000  O
  O56      1.0000 0.64580  0.78210  0.27820  Biso   1.000  O
  O57      1.0000 0.04250  0.72340  0.53240  Biso   1.000  O
  O58      1.0000 0.98050  0.73500  0.43320  Biso   1.000  O
  O59      1.0000 0.04360  0.63610  0.47600  Biso   1.000  O
  O60      1.0000 0.00930  0.81790  0.49280  Biso   1.000  O
  O61      1.0000 0.10250  0.80880  0.59840  Biso   1.000  O
  O62      1.0000 0.97680  0.83610  0.39370  Biso   1.000  O
  O63      1.0000 0.31500  0.51310  0.43280  Biso   1.000  O
  O64      1.0000 0.05690  0.53380  0.44340  Biso   1.000  O
  W19      1.0000 0.74100  0.16234  0.07609  Biso   1.000  W
  W20      1.0000 0.70515  0.26703  0.00033  Biso   1.000  W
  W21      1.0000 0.78071  0.28387  0.12459  Biso   1.000  W
  W22      1.0000 0.56774  0.13560  0.13368  Biso   1.000  W
  W23      1.0000 0.48164  0.11884  0.99785  Biso   1.000  W
  W24      1.0000 0.44427  0.22293  0.92229  Biso   1.000  W
  W25      1.0000 0.48904  0.35469  0.97625  Biso   1.000  W
  W26      1.0000 0.56571  0.37189  0.09978  Biso   1.000  W
  W27      1.0000 0.60645  0.25708  0.18165  Biso   1.000  W
  W28      1.0000 0.29853  0.14341  0.11321  Biso   1.000  W
  W29      1.0000 0.21310  0.12694  0.97780  Biso   1.000  W
  W30      1.0000 0.17801  0.23164  0.90421  Biso   1.000  W
  W31      1.0000 0.22319  0.36395  0.95881  Biso   1.000  W
  W32      1.0000 0.29965  0.37876  0.08264  Biso   1.000  W
  W33      1.0000 0.33792  0.26400  0.16337  Biso   1.000  W
  W34      1.0000 0.03903  0.18215  0.02565  Biso   1.000  W
  W35      1.0000 0.00352  0.28737  0.95076  Biso   1.000  W
  W36      1.0000 0.07998  0.30306  0.07511  Biso   1.000  W
  P3       1.0000 0.53320  0.24327  0.05286  Biso   1.000  P
  P4       1.0000 0.25160  0.25097  0.03260  Biso   1.000  P
  Cu3      1.0000 0.99556  0.21810  0.75581  Biso   1.000  Cu
  Cu4      1.0000 0.81304  0.02287  0.06143  Biso   1.000  Cu
  C37      1.0000 0.06120  0.27880  0.68540  Biso   1.000  C
  H37      1.0000 0.01070  0.26570  0.65610  Biso   1.000  H
  C38      1.0000 0.16050  0.28870  0.76140  Biso   1.000  C
  H38      1.0000 0.19260  0.28540  0.79600  Biso   1.000  H
  C39      1.0000 0.26680  0.36150  0.75270  Biso   1.000  C
  H39      1.0000 0.27590  0.37620  0.72480  Biso   1.000  H
  H40      1.0000 0.32960  0.34560  0.77550  Biso   1.000  H
  C40      1.0000 0.23830  0.40560  0.78000  Biso   1.000  C
  C41      1.0000 0.14060  0.42510  0.76060  Biso   1.000  C
  H41      1.0000 0.09140  0.41160  0.73110  Biso   1.000  H
  C42      1.0000 0.11760  0.46500  0.78610  Biso   1.000  C
  C43      1.0000 0.18990  0.48400  0.82980  Biso   1.000  C
  H42      1.0000 0.17470  0.51100  0.84650  Biso   1.000  H
  C44      1.0000 0.28540  0.46340  0.84930  Biso   1.000  C
  H43      1.0000 0.33370  0.47630  0.87940  Biso   1.000  H
  C45      1.0000 0.31120  0.42350  0.82480  Biso   1.000  C
  H44      1.0000 0.37560  0.40940  0.83830  Biso   1.000  H
  C46      1.0000 0.01230  0.48480  0.76720  Biso   1.000  C
  H45      1.0000 0.01150  0.51570  0.78610  Biso   1.000  H
  H46      1.0000 0.97100  0.45830  0.77260  Biso   1.000  H
  C47      1.0000 0.95790  0.53680  0.64880  Biso   1.000  C
  H47      1.0000 0.96800  0.56040  0.62750  Biso   1.000  H
  C48      1.0000 0.90000  0.47390  0.67360  Biso   1.000  C
  H48      1.0000 0.86390  0.44460  0.67500  Biso   1.000  H
  C49      1.0000 0.84510  0.13700  0.74850  Biso   1.000  C
  H49      1.0000 0.82790  0.13170  0.71480  Biso   1.000  H
  C50      1.0000 0.90840  0.16500  0.82240  Biso   1.000  C
  H50      1.0000 0.94660  0.18520  0.85020  Biso   1.000  H
  C51      1.0000 0.74510  0.06270  0.76210  Biso   1.000  C
  H51      1.0000 0.78440  0.03300  0.78070  Biso   1.000  H
  H52      1.0000 0.72320  0.05550  0.72680  Biso   1.000  H
  C52      1.0000 0.65560  0.06840  0.77230  Biso   1.000  C
  C53      1.0000 0.65000  0.04180  0.81090  Biso   1.000  C
  H53      1.0000 0.70230  0.02000  0.83110  Biso   1.000  H
  C54      1.0000 0.56380  0.04760  0.82010  Biso   1.000  C
  C55      1.0000 0.48540  0.07770  0.78830  Biso   1.000  C
  H54      1.0000 0.42850  0.08120  0.79390  Biso   1.000  H
  C56      1.0000 0.48970  0.10250  0.74840  Biso   1.000  C
  H55      1.0000 0.43510  0.12220  0.72710  Biso   1.000  H
  C57      1.0000 0.57280  0.09900  0.73910  Biso   1.000  C
  H56      1.0000 0.57500  0.11610  0.71200  Biso   1.000  H
  C58      1.0000 0.55750  0.01830  0.86270  Biso   1.000  C
  H57      1.0000 0.49130  0.02290  0.86140  Biso   1.000  H
  H58      1.0000 0.56760  0.98120  0.85940  Biso   1.000  H
  C59      1.0000 0.67330  0.01060  0.95410  Biso   1.000  C
  H59      1.0000 0.65890  0.97590  0.95790  Biso   1.000  H
  C60      1.0000 0.73250  0.08800  0.96660  Biso   1.000  C
  H60      1.0000 0.76900  0.11750  0.98270  Biso   1.000  H
  C61      1.0000 0.90460  0.63960  0.78260  Biso   1.000  C
  H61      1.0000 0.93910  0.65220  0.81500  Biso   1.000  H
  C62      1.0000 0.85360  0.62620  0.70640  Biso   1.000  C
  H62      1.0000 0.84580  0.62880  0.67360  Biso   1.000  H
  C63      1.0000 0.79100  0.57750  0.80000  Biso   1.000  C
  H63      1.0000 0.71960  0.57230  0.78020  Biso   1.000  H
  H64      1.0000 0.79970  0.60010  0.82790  Biso   1.000  H
  C64      1.0000 0.84040  0.52440  0.82030  Biso   1.000  C
  C65      1.0000 0.93150  0.52350  0.86050  Biso   1.000  C
  H65      1.0000 0.96250  0.55470  0.87530  Biso   1.000  H
  C66      1.0000 0.97770  0.47660  0.87910  Biso   1.000  C
  H66      1.0000 0.04050  0.47640  0.90640  Biso   1.000  H
  C67      1.0000 0.93330  0.42980  0.85840  Biso   1.000  C
  H67      1.0000 0.96610  0.39840  0.87120  Biso   1.000  H
  C68      1.0000 0.83940  0.42980  0.81830  Biso   1.000  C
  C69      1.0000 0.79390  0.47730  0.79800  Biso   1.000  C
  H68      1.0000 0.73280  0.47780  0.76970  Biso   1.000  H
  C70      1.0000 0.78670  0.37980  0.79580  Biso   1.000  C
  H69      1.0000 0.77630  0.35980  0.82100  Biso   1.000  H
  H70      1.0000 0.72150  0.38770  0.76900  Biso   1.000  H
  C71      1.0000 0.87580  0.29900  0.78580  Biso   1.000  C
  H71      1.0000 0.86810  0.27770  0.80940  Biso   1.000  H
  C72      1.0000 0.91380  0.32950  0.73050  Biso   1.000  C
  H72      1.0000 0.94050  0.33200  0.70740  Biso   1.000  H
  N19      1.0000 0.07970  0.26100  0.73090  Biso   1.000  N
  N20      1.0000 0.18770  0.32150  0.73440  Biso   1.000  N
  N21      1.0000 0.12260  0.31730  0.68630  Biso   1.000  N
  N22      1.0000 0.88960  0.49760  0.63200  Biso   1.000  N
  N23      1.0000 0.96960  0.49800  0.71350  Biso   1.000  N
  N24      1.0000 0.00850  0.53870  0.69730  Biso   1.000  N
  N25      1.0000 0.90850  0.17240  0.77690  Biso   1.000  N
  N26      1.0000 0.80920  0.10980  0.77570  Biso   1.000  N
  N27      1.0000 0.85070  0.12740  0.82360  Biso   1.000  N
  N28      1.0000 0.73650  0.04150  0.99040  Biso   1.000  N
  N29      1.0000 0.63460  0.03740  0.91170  Biso   1.000  N
  N30      1.0000 0.67240  0.08650  0.91920  Biso   1.000  N
  N31      1.0000 0.92010  0.65490  0.74380  Biso   1.000  N
  N32      1.0000 0.83350  0.60390  0.76860  Biso   1.000  N
  N33      1.0000 0.80060  0.59400  0.71980  Biso   1.000  N
  N34      1.0000 0.92060  0.28450  0.75680  Biso   1.000  N
  N35      1.0000 0.86780  0.36860  0.73970  Biso   1.000  N
  N36      1.0000 0.84460  0.34780  0.77590  Biso   1.000  N
  O65      1.0000 0.64630  0.24000  0.06110  Biso   1.000  O
  O66      1.0000 0.47220  0.21000  0.00690  Biso   1.000  O
  O67      1.0000 0.50260  0.30130  0.04360  Biso   1.000  O
  O68      1.0000 0.53130  0.22180  0.10020  Biso   1.000  O
  O69      1.0000 0.13810  0.25430  0.02420  Biso   1.000  O
  O70      1.0000 0.25140  0.21670  0.99150  Biso   1.000  O
  O71      1.0000 0.28480  0.30670  0.02870  Biso   1.000  O
  O72      1.0000 0.31190  0.22750  0.08440  Biso   1.000  O
  O73      1.0000 0.76170  0.20060  0.02480  Biso   1.000  O
  O74      1.0000 0.82480  0.21310  0.12180  Biso   1.000  O
  O75      1.0000 0.68280  0.14640  0.12010  Biso   1.000  O
  O76      1.0000 0.62140  0.13540  0.02450  Biso   1.000  O
  O77      1.0000 0.82220  0.11090  0.08640  Biso   1.000  O
  O78      1.0000 0.79500  0.29580  0.06370  Biso   1.000  O
  O79      1.0000 0.61820  0.32580  0.99190  Biso   1.000  O
  O80      1.0000 0.58640  0.23360  0.95300  Biso   1.000  O
  O81      1.0000 0.76200  0.28360  0.96420  Biso   1.000  O
  O82      1.0000 0.69440  0.34190  0.10950  Biso   1.000  O
  O83      1.0000 0.72000  0.25990  0.16500  Biso   1.000  O
  O84      1.0000 0.89170  0.30950  0.16920  Biso   1.000  O
  O85      1.0000 0.50110  0.11510  0.06490  Biso   1.000  O
  O86      1.0000 0.44070  0.14130  0.13410  Biso   1.000  O
  O87      1.0000 0.62250  0.18320  0.18900  Biso   1.000  O
  O88      1.0000 0.60440  0.07780  0.16440  Biso   1.000  O
  O89      1.0000 0.46050  0.14980  0.93470  Biso   1.000  O
  O90      1.0000 0.34160  0.12190  0.97740  Biso   1.000  O
  O91      1.0000 0.49330  0.05410  0.98480  Biso   1.000  O
  O92      1.0000 0.43470  0.29420  0.93730  Biso   1.000  O
  O93      1.0000 0.30620  0.21590  0.91110  Biso   1.000  O
  O94      1.0000 0.42280  0.22540  0.86110  Biso   1.000  O
  O95      1.0000 0.54670  0.39750  0.03600  Biso   1.000  O
  O96      1.0000 0.35950  0.36930  0.97390  Biso   1.000  O
  O97      1.0000 0.48490  0.39900  0.93270  Biso   1.000  O
  O98      1.0000 0.57100  0.32260  0.14800  Biso   1.000  O
  O99      1.0000 0.42850  0.38300  0.08290  Biso   1.000  O
  O100     1.0000 0.61320  0.42660  0.13500  Biso   1.000  O
  O101     1.0000 0.47710  0.25130  0.17850  Biso   1.000  O
  O102     1.0000 0.66900  0.27560  0.24270  Biso   1.000  O
  O103     1.0000 0.27930  0.12180  0.04810  Biso   1.000  O
  O104     1.0000 0.16080  0.16170  0.08220  Biso   1.000  O
  O105     1.0000 0.31860  0.19070  0.16710  Biso   1.000  O
  O106     1.0000 0.28840  0.08630  0.13970  Biso   1.000  O
  O107     1.0000 0.15860  0.15810  0.91360  Biso   1.000  O
  O108     1.0000 0.09850  0.14780  0.98740  Biso   1.000  O
  O109     1.0000 0.17550  0.06340  0.96140  Biso   1.000  O
  O110     1.0000 0.21610  0.30060  0.92160  Biso   1.000  O
  O111     1.0000 0.06400  0.24650  0.91730  Biso   1.000  O
  O112     1.0000 0.11610  0.23340  0.84020  Biso   1.000  O
  O113     1.0000 0.24380  0.40570  0.01570  Biso   1.000  O
  O114     1.0000 0.09520  0.34150  0.95510  Biso   1.000  O
  O115     1.0000 0.17750  0.41020  0.91330  Biso   1.000  O
  O116     1.0000 0.34990  0.32810  0.13410  Biso   1.000  O
  O117     1.0000 0.16810  0.35540  0.07210  Biso   1.000  O
  O118     1.0000 0.30370  0.43450  0.11510  Biso   1.000  O
  O119     1.0000 0.19710  0.27460  0.12860  Biso   1.000  O
  O120     1.0000 0.35420  0.28210  0.22180  Biso   1.000  O
  O121     1.0000 0.95750  0.22340  0.96760  Biso   1.000  O
  O122     1.0000 0.01950  0.23500  0.06680  Biso   1.000  O
  O123     1.0000 0.95640  0.13610  0.02400  Biso   1.000  O
  O124     1.0000 0.99070  0.31790  0.00720  Biso   1.000  O
  O125     1.0000 0.89750  0.30880  0.90160  Biso   1.000  O
  O126     1.0000 0.02320  0.33610  0.10630  Biso   1.000  O
  O127     1.0000 0.68500  0.01310  0.06720  Biso   1.000  O
  O128     1.0000 0.94310  0.03380  0.05660  Biso   1.000  O
  W37      1.0000 0.74100  0.33766  0.57609  Biso   1.000  W
  W38      1.0000 0.70515  0.23297  0.50033  Biso   1.000  W
  W39      1.0000 0.78071  0.21613  0.62459  Biso   1.000  W
  W40      1.0000 0.56774  0.36440  0.63368  Biso   1.000  W
  W41      1.0000 0.48164  0.38116  0.49785  Biso   1.000  W
  W42      1.0000 0.44427  0.27707  0.42229  Biso   1.000  W
  W43      1.0000 0.48904  0.14531  0.47625  Biso   1.000  W
  W44      1.0000 0.56571  0.12811  0.59978  Biso   1.000  W
  W45      1.0000 0.60645  0.24292  0.68165  Biso   1.000  W
  W46      1.0000 0.29853  0.35659  0.61321  Biso   1.000  W
  W47      1.0000 0.21310  0.37306  0.47780  Biso   1.000  W
  W48      1.0000 0.17801  0.26836  0.40421  Biso   1.000  W
  W49      1.0000 0.22319  0.13605  0.45881  Biso   1.000  W
  W50      1.0000 0.29965  0.12124  0.58264  Biso   1.000  W
  W51      1.0000 0.33792  0.23600  0.66337  Biso   1.000  W
  W52      1.0000 0.03903  0.31785  0.52565  Biso   1.000  W
  W53      1.0000 0.00352  0.21263  0.45076  Biso   1.000  W
  W54      1.0000 0.07998  0.19694  0.57511  Biso   1.000  W
  P5       1.0000 0.53320  0.25673  0.55286  Biso   1.000  P
  P6       1.0000 0.25160  0.24903  0.53260  Biso   1.000  P
  Cu5      1.0000 0.99556  0.28190  0.25581  Biso   1.000  Cu
  Cu6      1.0000 0.81304  0.47713  0.56143  Biso   1.000  Cu
  C73      1.0000 0.06120  0.22120  0.18540  Biso   1.000  C
  H73      1.0000 0.01070  0.23430  0.15610  Biso   1.000  H
  C74      1.0000 0.16050  0.21130  0.26140  Biso   1.000  C
  H74      1.0000 0.19260  0.21460  0.29600  Biso   1.000  H
  C75      1.0000 0.26680  0.13850  0.25270  Biso   1.000  C
  H75      1.0000 0.27590  0.12380  0.22480  Biso   1.000  H
  H76      1.0000 0.32960  0.15440  0.27550  Biso   1.000  H
  C76      1.0000 0.23830  0.09440  0.28000  Biso   1.000  C
  C77      1.0000 0.14060  0.07490  0.26060  Biso   1.000  C
  H77      1.0000 0.09140  0.08840  0.23110  Biso   1.000  H
  C78      1.0000 0.11760  0.03500  0.28610  Biso   1.000  C
  C79      1.0000 0.18990  0.01600  0.32980  Biso   1.000  C
  H78      1.0000 0.17470  0.98900  0.34650  Biso   1.000  H
  C80      1.0000 0.28540  0.03660  0.34930  Biso   1.000  C
  H79      1.0000 0.33370  0.02370  0.37940  Biso   1.000  H
  C81      1.0000 0.31120  0.07650  0.32480  Biso   1.000  C
  H80      1.0000 0.37560  0.09060  0.33830  Biso   1.000  H
  C82      1.0000 0.01230  0.01520  0.26720  Biso   1.000  C
  H81      1.0000 0.01150  0.98430  0.28610  Biso   1.000  H
  H82      1.0000 0.97100  0.04170  0.27260  Biso   1.000  H
  C83      1.0000 0.95790  0.96320  0.14880  Biso   1.000  C
  H83      1.0000 0.96800  0.93960  0.12750  Biso   1.000  H
  C84      1.0000 0.90000  0.02610  0.17360  Biso   1.000  C
  H84      1.0000 0.86390  0.05540  0.17500  Biso   1.000  H
  C85      1.0000 0.84510  0.36300  0.24850  Biso   1.000  C
  H85      1.0000 0.82790  0.36830  0.21480  Biso   1.000  H
  C86      1.0000 0.90840  0.33500  0.32240  Biso   1.000  C
  H86      1.0000 0.94660  0.31480  0.35020  Biso   1.000  H
  C87      1.0000 0.74510  0.43730  0.26210  Biso   1.000  C
  H87      1.0000 0.78440  0.46700  0.28070  Biso   1.000  H
  H88      1.0000 0.72320  0.44450  0.22680  Biso   1.000  H
  C88      1.0000 0.65560  0.43160  0.27230  Biso   1.000  C
  C89      1.0000 0.65000  0.45820  0.31090  Biso   1.000  C
  H89      1.0000 0.70230  0.48000  0.33110  Biso   1.000  H
  C90      1.0000 0.56380  0.45240  0.32010  Biso   1.000  C
  C91      1.0000 0.48540  0.42230  0.28830  Biso   1.000  C
  H90      1.0000 0.42850  0.41880  0.29390  Biso   1.000  H
  C92      1.0000 0.48970  0.39750  0.24840  Biso   1.000  C
  H91      1.0000 0.43510  0.37780  0.22710  Biso   1.000  H
  C93      1.0000 0.57280  0.40100  0.23910  Biso   1.000  C
  H92      1.0000 0.57500  0.38390  0.21200  Biso   1.000  H
  C94      1.0000 0.55750  0.48170  0.36270  Biso   1.000  C
  H93      1.0000 0.49130  0.47710  0.36140  Biso   1.000  H
  H94      1.0000 0.56760  0.51880  0.35940  Biso   1.000  H
  C95      1.0000 0.67330  0.48940  0.45410  Biso   1.000  C
  H95      1.0000 0.65890  0.52410  0.45790  Biso   1.000  H
  C96      1.0000 0.73250  0.41200  0.46660  Biso   1.000  C
  H96      1.0000 0.76900  0.38250  0.48270  Biso   1.000  H
  C97      1.0000 0.90460  0.86040  0.28260  Biso   1.000  C
  H97      1.0000 0.93910  0.84780  0.31500  Biso   1.000  H
  C98      1.0000 0.85360  0.87380  0.20640  Biso   1.000  C
  H98      1.0000 0.84580  0.87120  0.17360  Biso   1.000  H
  C99      1.0000 0.79100  0.92250  0.30000  Biso   1.000  C
  H99      1.0000 0.71960  0.92770  0.28020  Biso   1.000  H
  H100     1.0000 0.79970  0.89990  0.32790  Biso   1.000  H
  C100     1.0000 0.84040  0.97560  0.32030  Biso   1.000  C
  C101     1.0000 0.93150  0.97650  0.36050  Biso   1.000  C
  H101     1.0000 0.96250  0.94530  0.37530  Biso   1.000  H
  C102     1.0000 0.97770  0.02340  0.37910  Biso   1.000  C
  H102     1.0000 0.04050  0.02360  0.40640  Biso   1.000  H
  C103     1.0000 0.93330  0.07020  0.35840  Biso   1.000  C
  H103     1.0000 0.96610  0.10160  0.37120  Biso   1.000  H
  C104     1.0000 0.83940  0.07020  0.31830  Biso   1.000  C
  C105     1.0000 0.79390  0.02270  0.29800  Biso   1.000  C
  H104     1.0000 0.73280  0.02220  0.26970  Biso   1.000  H
  C106     1.0000 0.78670  0.12020  0.29580  Biso   1.000  C
  H105     1.0000 0.77630  0.14020  0.32100  Biso   1.000  H
  H106     1.0000 0.72150  0.11230  0.26900  Biso   1.000  H
  C107     1.0000 0.87580  0.20100  0.28580  Biso   1.000  C
  H107     1.0000 0.86810  0.22230  0.30940  Biso   1.000  H
  C108     1.0000 0.91380  0.17050  0.23050  Biso   1.000  C
  H108     1.0000 0.94050  0.16800  0.20740  Biso   1.000  H
  N37      1.0000 0.07970  0.23900  0.23090  Biso   1.000  N
  N38      1.0000 0.18770  0.17850  0.23440  Biso   1.000  N
  N39      1.0000 0.12260  0.18270  0.18630  Biso   1.000  N
  N40      1.0000 0.88960  0.00240  0.13200  Biso   1.000  N
  N41      1.0000 0.96960  0.00200  0.21350  Biso   1.000  N
  N42      1.0000 0.00850  0.96130  0.19730  Biso   1.000  N
  N43      1.0000 0.90850  0.32760  0.27690  Biso   1.000  N
  N44      1.0000 0.80920  0.39020  0.27570  Biso   1.000  N
  N45      1.0000 0.85070  0.37260  0.32360  Biso   1.000  N
  N46      1.0000 0.73650  0.45850  0.49040  Biso   1.000  N
  N47      1.0000 0.63460  0.46260  0.41170  Biso   1.000  N
  N48      1.0000 0.67240  0.41350  0.41920  Biso   1.000  N
  N49      1.0000 0.92010  0.84510  0.24380  Biso   1.000  N
  N50      1.0000 0.83350  0.89610  0.26860  Biso   1.000  N
  N51      1.0000 0.80060  0.90600  0.21980  Biso   1.000  N
  N52      1.0000 0.92060  0.21550  0.25680  Biso   1.000  N
  N53      1.0000 0.86780  0.13140  0.23970  Biso   1.000  N
  N54      1.0000 0.84460  0.15220  0.27590  Biso   1.000  N
  O129     1.0000 0.64630  0.26000  0.56110  Biso   1.000  O
  O130     1.0000 0.47220  0.29000  0.50690  Biso   1.000  O
  O131     1.0000 0.50260  0.19870  0.54360  Biso   1.000  O
  O132     1.0000 0.53130  0.27820  0.60020  Biso   1.000  O
  O133     1.0000 0.13810  0.24570  0.52420  Biso   1.000  O
  O134     1.0000 0.25140  0.28330  0.49150  Biso   1.000  O
  O135     1.0000 0.28480  0.19330  0.52870  Biso   1.000  O
  O136     1.0000 0.31190  0.27250  0.58440  Biso   1.000  O
  O137     1.0000 0.76170  0.29940  0.52480  Biso   1.000  O
  O138     1.0000 0.82480  0.28690  0.62180  Biso   1.000  O
  O139     1.0000 0.68280  0.35360  0.62010  Biso   1.000  O
  O140     1.0000 0.62140  0.36460  0.52450  Biso   1.000  O
  O141     1.0000 0.82220  0.38910  0.58640  Biso   1.000  O
  O142     1.0000 0.79500  0.20420  0.56370  Biso   1.000  O
  O143     1.0000 0.61820  0.17420  0.49190  Biso   1.000  O
  O144     1.0000 0.58640  0.26640  0.45300  Biso   1.000  O
  O145     1.0000 0.76200  0.21640  0.46420  Biso   1.000  O
  O146     1.0000 0.69440  0.15810  0.60950  Biso   1.000  O
  O147     1.0000 0.72000  0.24010  0.66500  Biso   1.000  O
  O148     1.0000 0.89170  0.19050  0.66920  Biso   1.000  O
  O149     1.0000 0.50110  0.38490  0.56490  Biso   1.000  O
  O150     1.0000 0.44070  0.35870  0.63410  Biso   1.000  O
  O151     1.0000 0.62250  0.31680  0.68900  Biso   1.000  O
  O152     1.0000 0.60440  0.42220  0.66440  Biso   1.000  O
  O153     1.0000 0.46050  0.35020  0.43470  Biso   1.000  O
  O154     1.0000 0.34160  0.37810  0.47740  Biso   1.000  O
  O155     1.0000 0.49330  0.44590  0.48480  Biso   1.000  O
  O156     1.0000 0.43470  0.20580  0.43730  Biso   1.000  O
  O157     1.0000 0.30620  0.28410  0.41110  Biso   1.000  O
  O158     1.0000 0.42280  0.27460  0.36110  Biso   1.000  O
  O159     1.0000 0.54670  0.10250  0.53600  Biso   1.000  O
  O160     1.0000 0.35950  0.13070  0.47390  Biso   1.000  O
  O161     1.0000 0.48490  0.10100  0.43270  Biso   1.000  O
  O162     1.0000 0.57100  0.17740  0.64800  Biso   1.000  O
  O163     1.0000 0.42850  0.11700  0.58290  Biso   1.000  O
  O164     1.0000 0.61320  0.07340  0.63500  Biso   1.000  O
  O165     1.0000 0.47710  0.24870  0.67850  Biso   1.000  O
  O166     1.0000 0.66900  0.22440  0.74270  Biso   1.000  O
  O167     1.0000 0.27930  0.37820  0.54810  Biso   1.000  O
  O168     1.0000 0.16080  0.33830  0.58220  Biso   1.000  O
  O169     1.0000 0.31860  0.30930  0.66710  Biso   1.000  O
  O170     1.0000 0.28840  0.41370  0.63970  Biso   1.000  O
  O171     1.0000 0.15860  0.34190  0.41360  Biso   1.000  O
  O172     1.0000 0.09850  0.35220  0.48740  Biso   1.000  O
  O173     1.0000 0.17550  0.43660  0.46140  Biso   1.000  O
  O174     1.0000 0.21610  0.19940  0.42160  Biso   1.000  O
  O175     1.0000 0.06400  0.25350  0.41730  Biso   1.000  O
  O176     1.0000 0.11610  0.26660  0.34020  Biso   1.000  O
  O177     1.0000 0.24380  0.09430  0.51570  Biso   1.000  O
  O178     1.0000 0.09520  0.15850  0.45510  Biso   1.000  O
  O179     1.0000 0.17750  0.08980  0.41330  Biso   1.000  O
  O180     1.0000 0.34990  0.17190  0.63410  Biso   1.000  O
  O181     1.0000 0.16810  0.14460  0.57210  Biso   1.000  O
  O182     1.0000 0.30370  0.06550  0.61510  Biso   1.000  O
  O183     1.0000 0.19710  0.22540  0.62860  Biso   1.000  O
  O184     1.0000 0.35420  0.21790  0.72180  Biso   1.000  O
  O185     1.0000 0.95750  0.27660  0.46760  Biso   1.000  O
  O186     1.0000 0.01950  0.26500  0.56680  Biso   1.000  O
  O187     1.0000 0.95640  0.36390  0.52400  Biso   1.000  O
  O188     1.0000 0.99070  0.18210  0.50720  Biso   1.000  O
  O189     1.0000 0.89750  0.19120  0.40160  Biso   1.000  O
  O190     1.0000 0.02320  0.16390  0.60630  Biso   1.000  O
  O191     1.0000 0.68500  0.48690  0.56720  Biso   1.000  O
  O192     1.0000 0.94310  0.46620  0.55660  Biso   1.000  O
  W55      1.0000 0.25900  0.83766  0.92391  Biso   1.000  W
  W56      1.0000 0.29485  0.73297  0.99967  Biso   1.000  W
  W57      1.0000 0.21929  0.71613  0.87541  Biso   1.000  W
  W58      1.0000 0.43226  0.86440  0.86632  Biso   1.000  W
  W59      1.0000 0.51836  0.88116  0.00215  Biso   1.000  W
  W60      1.0000 0.55573  0.77707  0.07771  Biso   1.000  W
  W61      1.0000 0.51096  0.64531  0.02375  Biso   1.000  W
  W62      1.0000 0.43429  0.62811  0.90022  Biso   1.000  W
  W63      1.0000 0.39355  0.74292  0.81835  Biso   1.000  W
  W64      1.0000 0.70147  0.85659  0.88679  Biso   1.000  W
  W65      1.0000 0.78690  0.87306  0.02220  Biso   1.000  W
  W66      1.0000 0.82199  0.76836  0.09579  Biso   1.000  W
  W67      1.0000 0.77681  0.63605  0.04119  Biso   1.000  W
  W68      1.0000 0.70035  0.62124  0.91736  Biso   1.000  W
  W69      1.0000 0.66208  0.73600  0.83663  Biso   1.000  W
  W70      1.0000 0.96097  0.81785  0.97435  Biso   1.000  W
  W71      1.0000 0.99648  0.71263  0.04924  Biso   1.000  W
  W72      1.0000 0.92002  0.69694  0.92489  Biso   1.000  W
  P7       1.0000 0.46680  0.75673  0.94714  Biso   1.000  P
  P8       1.0000 0.74840  0.74903  0.96740  Biso   1.000  P
  Cu7      1.0000 0.00444  0.78190  0.24419  Biso   1.000  Cu
  Cu8      1.0000 0.18696  0.97713  0.93857  Biso   1.000  Cu
  C109     1.0000 0.93880  0.72120  0.31460  Biso   1.000  C
  H109     1.0000 0.98930  0.73430  0.34390  Biso   1.000  H
  C110     1.0000 0.83950  0.71130  0.23860  Biso   1.000  C
  H110     1.0000 0.80740  0.71460  0.20400  Biso   1.000  H
  C111     1.0000 0.73320  0.63850  0.24730  Biso   1.000  C
  H111     1.0000 0.72410  0.62380  0.27520  Biso   1.000  H
  H112     1.0000 0.67040  0.65440  0.22450  Biso   1.000  H
  C112     1.0000 0.76170  0.59440  0.22000  Biso   1.000  C
  C113     1.0000 0.85940  0.57490  0.23940  Biso   1.000  C
  H113     1.0000 0.90860  0.58840  0.26890  Biso   1.000  H
  C114     1.0000 0.88240  0.53500  0.21390  Biso   1.000  C
  C115     1.0000 0.81010  0.51600  0.17020  Biso   1.000  C
  H114     1.0000 0.82530  0.48900  0.15350  Biso   1.000  H
  C116     1.0000 0.71460  0.53660  0.15070  Biso   1.000  C
  H115     1.0000 0.66630  0.52370  0.12060  Biso   1.000  H
  C117     1.0000 0.68880  0.57650  0.17520  Biso   1.000  C
  H116     1.0000 0.62440  0.59060  0.16170  Biso   1.000  H
  C118     1.0000 0.98770  0.51520  0.23280  Biso   1.000  C
  H117     1.0000 0.98850  0.48430  0.21390  Biso   1.000  H
  H118     1.0000 0.02900  0.54170  0.22740  Biso   1.000  H
  C119     1.0000 0.04210  0.46320  0.35120  Biso   1.000  C
  H119     1.0000 0.03200  0.43960  0.37250  Biso   1.000  H
  C120     1.0000 0.10000  0.52610  0.32640  Biso   1.000  C
  H120     1.0000 0.13610  0.55540  0.32500  Biso   1.000  H
  C121     1.0000 0.15490  0.86300  0.25150  Biso   1.000  C
  H121     1.0000 0.17210  0.86830  0.28520  Biso   1.000  H
  C122     1.0000 0.09160  0.83500  0.17760  Biso   1.000  C
  H122     1.0000 0.05340  0.81480  0.14980  Biso   1.000  H
  C123     1.0000 0.25490  0.93730  0.23790  Biso   1.000  C
  H123     1.0000 0.21560  0.96700  0.21930  Biso   1.000  H
  H124     1.0000 0.27680  0.94450  0.27320  Biso   1.000  H
  C124     1.0000 0.34440  0.93160  0.22770  Biso   1.000  C
  C125     1.0000 0.35000  0.95820  0.18910  Biso   1.000  C
  H125     1.0000 0.29770  0.98000  0.16890  Biso   1.000  H
  C126     1.0000 0.43620  0.95240  0.17990  Biso   1.000  C
  C127     1.0000 0.51460  0.92230  0.21170  Biso   1.000  C
  H126     1.0000 0.57150  0.91880  0.20610  Biso   1.000  H
  C128     1.0000 0.51030  0.89750  0.25160  Biso   1.000  C
  H127     1.0000 0.56490  0.87780  0.27290  Biso   1.000  H
  C129     1.0000 0.42720  0.90100  0.26090  Biso   1.000  C
  H128     1.0000 0.42500  0.88390  0.28800  Biso   1.000  H
  C130     1.0000 0.44250  0.98170  0.13730  Biso   1.000  C
  H129     1.0000 0.50870  0.97710  0.13860  Biso   1.000  H
  H130     1.0000 0.43240  0.01880  0.14060  Biso   1.000  H
  C131     1.0000 0.32670  0.98940  0.04590  Biso   1.000  C
  H131     1.0000 0.34110  0.02410  0.04210  Biso   1.000  H
  C132     1.0000 0.26750  0.91200  0.03340  Biso   1.000  C
  H132     1.0000 0.23100  0.88250  0.01730  Biso   1.000  H
  C133     1.0000 0.09540  0.36040  0.21740  Biso   1.000  C
  H133     1.0000 0.06090  0.34780  0.18500  Biso   1.000  H
  C134     1.0000 0.14640  0.37380  0.29360  Biso   1.000  C
  H134     1.0000 0.15420  0.37120  0.32640  Biso   1.000  H
  C135     1.0000 0.20900  0.42250  0.20000  Biso   1.000  C
  H135     1.0000 0.28040  0.42770  0.21980  Biso   1.000  H
  H136     1.0000 0.20030  0.39990  0.17210  Biso   1.000  H
  C136     1.0000 0.15960  0.47560  0.17970  Biso   1.000  C
  C137     1.0000 0.06850  0.47650  0.13950  Biso   1.000  C
  H137     1.0000 0.03750  0.44530  0.12470  Biso   1.000  H
  C138     1.0000 0.02230  0.52340  0.12090  Biso   1.000  C
  H138     1.0000 0.95950  0.52360  0.09360  Biso   1.000  H
  C139     1.0000 0.06670  0.57020  0.14160  Biso   1.000  C
  H139     1.0000 0.03390  0.60160  0.12880  Biso   1.000  H
  C140     1.0000 0.16060  0.57020  0.18170  Biso   1.000  C
  C141     1.0000 0.20610  0.52270  0.20200  Biso   1.000  C
  H140     1.0000 0.26720  0.52220  0.23030  Biso   1.000  H
  C142     1.0000 0.21330  0.62020  0.20420  Biso   1.000  C
  H141     1.0000 0.22370  0.64020  0.17900  Biso   1.000  H
  H142     1.0000 0.27850  0.61230  0.23100  Biso   1.000  H
  C143     1.0000 0.12420  0.70100  0.21420  Biso   1.000  C
  H143     1.0000 0.13190  0.72230  0.19060  Biso   1.000  H
  C144     1.0000 0.08620  0.67050  0.26950  Biso   1.000  C
  H144     1.0000 0.05950  0.66800  0.29260  Biso   1.000  H
  N55      1.0000 0.92030  0.73900  0.26910  Biso   1.000  N
  N56      1.0000 0.81230  0.67850  0.26560  Biso   1.000  N
  N57      1.0000 0.87740  0.68270  0.31370  Biso   1.000  N
  N58      1.0000 0.11040  0.50240  0.36800  Biso   1.000  N
  N59      1.0000 0.03040  0.50200  0.28650  Biso   1.000  N
  N60      1.0000 0.99150  0.46130  0.30270  Biso   1.000  N
  N61      1.0000 0.09150  0.82760  0.22310  Biso   1.000  N
  N62      1.0000 0.19080  0.89020  0.22430  Biso   1.000  N
  N63      1.0000 0.14930  0.87260  0.17640  Biso   1.000  N
  N64      1.0000 0.26350  0.95850  0.00960  Biso   1.000  N
  N65      1.0000 0.36540  0.96260  0.08830  Biso   1.000  N
  N66      1.0000 0.32760  0.91350  0.08080  Biso   1.000  N
  N67      1.0000 0.07990  0.34510  0.25620  Biso   1.000  N
  N68      1.0000 0.16650  0.39610  0.23140  Biso   1.000  N
  N69      1.0000 0.19940  0.40600  0.28020  Biso   1.000  N
  N70      1.0000 0.07940  0.71550  0.24320  Biso   1.000  N
  N71      1.0000 0.13220  0.63140  0.26030  Biso   1.000  N
  N72      1.0000 0.15540  0.65220  0.22410  Biso   1.000  N
  O193     1.0000 0.35370  0.76000  0.93890  Biso   1.000  O
  O194     1.0000 0.52780  0.79000  0.99310  Biso   1.000  O
  O195     1.0000 0.49740  0.69870  0.95640  Biso   1.000  O
  O196     1.0000 0.46870  0.77820  0.89980  Biso   1.000  O
  O197     1.0000 0.86190  0.74570  0.97580  Biso   1.000  O
  O198     1.0000 0.74860  0.78330  0.00850  Biso   1.000  O
  O199     1.0000 0.71520  0.69330  0.97130  Biso   1.000  O
  O200     1.0000 0.68810  0.77250  0.91560  Biso   1.000  O
  O201     1.0000 0.23830  0.79940  0.97520  Biso   1.000  O
  O202     1.0000 0.17520  0.78690  0.87820  Biso   1.000  O
  O203     1.0000 0.31720  0.85360  0.87990  Biso   1.000  O
  O204     1.0000 0.37860  0.86460  0.97550  Biso   1.000  O
  O205     1.0000 0.17780  0.88910  0.91360  Biso   1.000  O
  O206     1.0000 0.20500  0.70420  0.93630  Biso   1.000  O
  O207     1.0000 0.38180  0.67420  0.00810  Biso   1.000  O
  O208     1.0000 0.41360  0.76640  0.04700  Biso   1.000  O
  O209     1.0000 0.23800  0.71640  0.03580  Biso   1.000  O
  O210     1.0000 0.30560  0.65810  0.89050  Biso   1.000  O
  O211     1.0000 0.28000  0.74010  0.83500  Biso   1.000  O
  O212     1.0000 0.10830  0.69050  0.83080  Biso   1.000  O
  O213     1.0000 0.49890  0.88490  0.93510  Biso   1.000  O
  O214     1.0000 0.55930  0.85870  0.86590  Biso   1.000  O
  O215     1.0000 0.37750  0.81680  0.81100  Biso   1.000  O
  O216     1.0000 0.39560  0.92220  0.83560  Biso   1.000  O
  O217     1.0000 0.53950  0.85020  0.06530  Biso   1.000  O
  O218     1.0000 0.65840  0.87810  0.02260  Biso   1.000  O
  O219     1.0000 0.50670  0.94590  0.01520  Biso   1.000  O
  O220     1.0000 0.56530  0.70580  0.06270  Biso   1.000  O
  O221     1.0000 0.69380  0.78410  0.08890  Biso   1.000  O
  O222     1.0000 0.57720  0.77460  0.13890  Biso   1.000  O
  O223     1.0000 0.45330  0.60250  0.96400  Biso   1.000  O
  O224     1.0000 0.64050  0.63070  0.02610  Biso   1.000  O
  O225     1.0000 0.51510  0.60100  0.06730  Biso   1.000  O
  O226     1.0000 0.42900  0.67740  0.85200  Biso   1.000  O
  O227     1.0000 0.57150  0.61700  0.91710  Biso   1.000  O
  O228     1.0000 0.38680  0.57340  0.86500  Biso   1.000  O
  O229     1.0000 0.52290  0.74870  0.82150  Biso   1.000  O
  O230     1.0000 0.33100  0.72440  0.75730  Biso   1.000  O
  O231     1.0000 0.72070  0.87820  0.95190  Biso   1.000  O
  O232     1.0000 0.83920  0.83830  0.91780  Biso   1.000  O
  O233     1.0000 0.68140  0.80930  0.83290  Biso   1.000  O
  O234     1.0000 0.71160  0.91370  0.86030  Biso   1.000  O
  O235     1.0000 0.84140  0.84190  0.08640  Biso   1.000  O
  O236     1.0000 0.90150  0.85220  0.01260  Biso   1.000  O
  O237     1.0000 0.82450  0.93660  0.03860  Biso   1.000  O
  O238     1.0000 0.78390  0.69940  0.07840  Biso   1.000  O
  O239     1.0000 0.93600  0.75350  0.08270  Biso   1.000  O
  O240     1.0000 0.88390  0.76660  0.15980  Biso   1.000  O
  O241     1.0000 0.75620  0.59430  0.98430  Biso   1.000  O
  O242     1.0000 0.90480  0.65850  0.04490  Biso   1.000  O
  O243     1.0000 0.82250  0.58980  0.08670  Biso   1.000  O
  O244     1.0000 0.65010  0.67190  0.86590  Biso   1.000  O
  O245     1.0000 0.83190  0.64460  0.92790  Biso   1.000  O
  O246     1.0000 0.69630  0.56550  0.88490  Biso   1.000  O
  O247     1.0000 0.80290  0.72540  0.87140  Biso   1.000  O
  O248     1.0000 0.64580  0.71790  0.77820  Biso   1.000  O
  O249     1.0000 0.04250  0.77660  0.03240  Biso   1.000  O
  O250     1.0000 0.98050  0.76500  0.93320  Biso   1.000  O
  O251     1.0000 0.04360  0.86390  0.97600  Biso   1.000  O
  O252     1.0000 0.00930  0.68210  0.99280  Biso   1.000  O
  O253     1.0000 0.10250  0.69120  0.09840  Biso   1.000  O
  O254     1.0000 0.97680  0.66390  0.89370  Biso   1.000  O
  O255     1.0000 0.31500  0.98690  0.93280  Biso   1.000  O
  O256     1.0000 0.05690  0.96620  0.94340  Biso   1.000  O
