data_image0
_cell_length_a       28.9058
_cell_length_b       28.9058
_cell_length_c       28.9058
_cell_angle_alpha    90
_cell_angle_beta     90
_cell_angle_gamma    90

_symmetry_space_group_name_H-M    "P 1"
_symmetry_int_tables_number       1

loop_
  _symmetry_equiv_pos_as_xyz
  'x, y, z'

loop_
  _atom_site_label
  _atom_site_occupancy
  _atom_site_fract_x
  _atom_site_fract_y
  _atom_site_fract_z
  _atom_site_thermal_displace_type
  _atom_site_B_iso_or_equiv
  _atom_site_type_symbol
  O1       1.0000 0.35850  0.92010  0.54720  Biso   1.000  O
  N1       1.0000 0.42940  0.80700  0.49600  Biso   1.000  N
  N2       1.0000 0.29390  0.87660  0.55840  Biso   1.000  N
  H1       1.0000 0.27810  0.85270  0.55040  Biso   1.000  H
  C1       1.0000 0.40560  0.77540  0.47230  Biso   1.000  C
  H2       1.0000 0.42150  0.75250  0.45620  Biso   1.000  H
  C2       1.0000 0.35760  0.77590  0.47100  Biso   1.000  C
  H3       1.0000 0.34180  0.75290  0.45500  Biso   1.000  H
  C3       1.0000 0.33400  0.80920  0.49270  Biso   1.000  C
  H4       1.0000 0.30190  0.80980  0.49170  Biso   1.000  H
  C4       1.0000 0.35850  0.84290  0.51680  Biso   1.000  C
  C5       1.0000 0.40550  0.84050  0.51780  Biso   1.000  C
  H5       1.0000 0.42170  0.86300  0.53420  Biso   1.000  H
  C6       1.0000 0.33690  0.88310  0.54110  Biso   1.000  C
  C7       1.0000 0.27460  0.91060  0.59020  Biso   1.000  C
  H6       1.0000 0.28530  0.90400  0.62130  Biso   1.000  H
  H7       1.0000 0.28540  0.94120  0.58180  Biso   1.000  H
  O2       1.0000 0.85850  0.42010  0.04720  Biso   1.000  O
  N3       1.0000 0.92940  0.30700  0.99600  Biso   1.000  N
  N4       1.0000 0.79390  0.37660  0.05840  Biso   1.000  N
  H8       1.0000 0.77810  0.35270  0.05040  Biso   1.000  H
  C8       1.0000 0.90560  0.27540  0.97230  Biso   1.000  C
  H9       1.0000 0.92150  0.25250  0.95620  Biso   1.000  H
  C9       1.0000 0.85760  0.27590  0.97100  Biso   1.000  C
  H10      1.0000 0.84180  0.25290  0.95500  Biso   1.000  H
  C10      1.0000 0.83400  0.30920  0.99270  Biso   1.000  C
  H11      1.0000 0.80190  0.30980  0.99170  Biso   1.000  H
  C11      1.0000 0.85850  0.34290  0.01680  Biso   1.000  C
  C12      1.0000 0.90550  0.34050  0.01780  Biso   1.000  C
  H12      1.0000 0.92170  0.36300  0.03420  Biso   1.000  H
  C13      1.0000 0.83690  0.38310  0.04110  Biso   1.000  C
  C14      1.0000 0.77460  0.41060  0.09020  Biso   1.000  C
  H13      1.0000 0.78530  0.40400  0.12130  Biso   1.000  H
  H14      1.0000 0.78540  0.44120  0.08180  Biso   1.000  H
  O3       1.0000 0.64150  0.07990  0.54720  Biso   1.000  O
  N5       1.0000 0.57060  0.19300  0.49600  Biso   1.000  N
  N6       1.0000 0.70610  0.12340  0.55840  Biso   1.000  N
  H15      1.0000 0.72190  0.14730  0.55040  Biso   1.000  H
  C15      1.0000 0.59440  0.22460  0.47230  Biso   1.000  C
  H16      1.0000 0.57850  0.24750  0.45620  Biso   1.000  H
  C16      1.0000 0.64240  0.22410  0.47100  Biso   1.000  C
  H17      1.0000 0.65820  0.24710  0.45500  Biso   1.000  H
  C17      1.0000 0.66600  0.19080  0.49270  Biso   1.000  C
  H18      1.0000 0.69810  0.19020  0.49170  Biso   1.000  H
  C18      1.0000 0.64150  0.15710  0.51680  Biso   1.000  C
  C19      1.0000 0.59450  0.15950  0.51780  Biso   1.000  C
  H19      1.0000 0.57830  0.13700  0.53420  Biso   1.000  H
  C20      1.0000 0.66310  0.11690  0.54110  Biso   1.000  C
  C21      1.0000 0.72540  0.08940  0.59020  Biso   1.000  C
  H20      1.0000 0.71470  0.09600  0.62130  Biso   1.000  H
  H21      1.0000 0.71460  0.05880  0.58180  Biso   1.000  H
  O4       1.0000 0.14150  0.57990  0.04720  Biso   1.000  O
  N7       1.0000 0.07060  0.69300  0.99600  Biso   1.000  N
  N8       1.0000 0.20610  0.62340  0.05840  Biso   1.000  N
  H22      1.0000 0.22190  0.64730  0.05040  Biso   1.000  H
  C22      1.0000 0.09440  0.72460  0.97230  Biso   1.000  C
  H23      1.0000 0.07850  0.74750  0.95620  Biso   1.000  H
  C23      1.0000 0.14240  0.72410  0.97100  Biso   1.000  C
  H24      1.0000 0.15820  0.74710  0.95500  Biso   1.000  H
  C24      1.0000 0.16600  0.69080  0.99270  Biso   1.000  C
  H25      1.0000 0.19810  0.69020  0.99170  Biso   1.000  H
  C25      1.0000 0.14150  0.65710  0.01680  Biso   1.000  C
  C26      1.0000 0.09450  0.65950  0.01780  Biso   1.000  C
  H26      1.0000 0.07830  0.63700  0.03420  Biso   1.000  H
  C27      1.0000 0.16310  0.61690  0.04110  Biso   1.000  C
  C28      1.0000 0.22540  0.58940  0.09020  Biso   1.000  C
  H27      1.0000 0.21470  0.59600  0.12130  Biso   1.000  H
  H28      1.0000 0.21460  0.55880  0.08180  Biso   1.000  H
  O5       1.0000 0.64150  0.92010  0.45280  Biso   1.000  O
  N9       1.0000 0.57060  0.80700  0.50400  Biso   1.000  N
  N10      1.0000 0.70610  0.87660  0.44160  Biso   1.000  N
  H29      1.0000 0.72190  0.85270  0.44960  Biso   1.000  H
  C29      1.0000 0.59440  0.77540  0.52770  Biso   1.000  C
  H30      1.0000 0.57850  0.75250  0.54380  Biso   1.000  H
  C30      1.0000 0.64240  0.77590  0.52900  Biso   1.000  C
  H31      1.0000 0.65820  0.75290  0.54500  Biso   1.000  H
  C31      1.0000 0.66600  0.80920  0.50730  Biso   1.000  C
  H32      1.0000 0.69810  0.80980  0.50830  Biso   1.000  H
  C32      1.0000 0.64150  0.84290  0.48320  Biso   1.000  C
  C33      1.0000 0.59450  0.84050  0.48220  Biso   1.000  C
  H33      1.0000 0.57830  0.86300  0.46580  Biso   1.000  H
  C34      1.0000 0.66310  0.88310  0.45890  Biso   1.000  C
  C35      1.0000 0.72540  0.91060  0.40980  Biso   1.000  C
  H34      1.0000 0.71470  0.90400  0.37870  Biso   1.000  H
  H35      1.0000 0.71460  0.94120  0.41820  Biso   1.000  H
  O6       1.0000 0.14150  0.42010  0.95280  Biso   1.000  O
  N11      1.0000 0.07060  0.30700  0.00400  Biso   1.000  N
  N12      1.0000 0.20610  0.37660  0.94160  Biso   1.000  N
  H36      1.0000 0.22190  0.35270  0.94960  Biso   1.000  H
  C36      1.0000 0.09440  0.27540  0.02770  Biso   1.000  C
  H37      1.0000 0.07850  0.25250  0.04380  Biso   1.000  H
  C37      1.0000 0.14240  0.27590  0.02900  Biso   1.000  C
  H38      1.0000 0.15820  0.25290  0.04500  Biso   1.000  H
  C38      1.0000 0.16600  0.30920  0.00730  Biso   1.000  C
  H39      1.0000 0.19810  0.30980  0.00830  Biso   1.000  H
  C39      1.0000 0.14150  0.34290  0.98320  Biso   1.000  C
  C40      1.0000 0.09450  0.34050  0.98220  Biso   1.000  C
  H40      1.0000 0.07830  0.36300  0.96580  Biso   1.000  H
  C41      1.0000 0.16310  0.38310  0.95890  Biso   1.000  C
  C42      1.0000 0.22540  0.41060  0.90980  Biso   1.000  C
  H41      1.0000 0.21470  0.40400  0.87870  Biso   1.000  H
  H42      1.0000 0.21460  0.44120  0.91820  Biso   1.000  H
  O7       1.0000 0.35850  0.07990  0.45280  Biso   1.000  O
  N13      1.0000 0.42940  0.19300  0.50400  Biso   1.000  N
  N14      1.0000 0.29390  0.12340  0.44160  Biso   1.000  N
  H43      1.0000 0.27810  0.14730  0.44960  Biso   1.000  H
  C43      1.0000 0.40560  0.22460  0.52770  Biso   1.000  C
  H44      1.0000 0.42150  0.24750  0.54380  Biso   1.000  H
  C44      1.0000 0.35760  0.22410  0.52900  Biso   1.000  C
  H45      1.0000 0.34180  0.24710  0.54500  Biso   1.000  H
  C45      1.0000 0.33400  0.19080  0.50730  Biso   1.000  C
  H46      1.0000 0.30190  0.19020  0.50830  Biso   1.000  H
  C46      1.0000 0.35850  0.15710  0.48320  Biso   1.000  C
  C47      1.0000 0.40550  0.15950  0.48220  Biso   1.000  C
  H47      1.0000 0.42170  0.13700  0.46580  Biso   1.000  H
  C48      1.0000 0.33690  0.11690  0.45890  Biso   1.000  C
  C49      1.0000 0.27460  0.08940  0.40980  Biso   1.000  C
  H48      1.0000 0.28530  0.09600  0.37870  Biso   1.000  H
  H49      1.0000 0.28540  0.05880  0.41820  Biso   1.000  H
  O8       1.0000 0.85850  0.57990  0.95280  Biso   1.000  O
  N15      1.0000 0.92940  0.69300  0.00400  Biso   1.000  N
  N16      1.0000 0.79390  0.62340  0.94160  Biso   1.000  N
  H50      1.0000 0.77810  0.64730  0.94960  Biso   1.000  H
  C50      1.0000 0.90560  0.72460  0.02770  Biso   1.000  C
  H51      1.0000 0.92150  0.74750  0.04380  Biso   1.000  H
  C51      1.0000 0.85760  0.72410  0.02900  Biso   1.000  C
  H52      1.0000 0.84180  0.74710  0.04500  Biso   1.000  H
  C52      1.0000 0.83400  0.69080  0.00730  Biso   1.000  C
  H53      1.0000 0.80190  0.69020  0.00830  Biso   1.000  H
  C53      1.0000 0.85850  0.65710  0.98320  Biso   1.000  C
  C54      1.0000 0.90550  0.65950  0.98220  Biso   1.000  C
  H54      1.0000 0.92170  0.63700  0.96580  Biso   1.000  H
  C55      1.0000 0.83690  0.61690  0.95890  Biso   1.000  C
  C56      1.0000 0.77460  0.58940  0.90980  Biso   1.000  C
  H55      1.0000 0.78530  0.59600  0.87870  Biso   1.000  H
  H56      1.0000 0.78540  0.55880  0.91820  Biso   1.000  H
  O9       1.0000 0.54720  0.35850  0.92010  Biso   1.000  O
  N17      1.0000 0.49600  0.42940  0.80700  Biso   1.000  N
  N18      1.0000 0.55840  0.29390  0.87660  Biso   1.000  N
  H57      1.0000 0.55040  0.27810  0.85270  Biso   1.000  H
  C57      1.0000 0.47230  0.40560  0.77540  Biso   1.000  C
  H58      1.0000 0.45620  0.42150  0.75250  Biso   1.000  H
  C58      1.0000 0.47100  0.35760  0.77590  Biso   1.000  C
  H59      1.0000 0.45500  0.34180  0.75290  Biso   1.000  H
  C59      1.0000 0.49270  0.33400  0.80920  Biso   1.000  C
  H60      1.0000 0.49170  0.30190  0.80980  Biso   1.000  H
  C60      1.0000 0.51680  0.35850  0.84290  Biso   1.000  C
  C61      1.0000 0.51780  0.40550  0.84050  Biso   1.000  C
  H61      1.0000 0.53420  0.42170  0.86300  Biso   1.000  H
  C62      1.0000 0.54110  0.33690  0.88310  Biso   1.000  C
  C63      1.0000 0.59020  0.27460  0.91060  Biso   1.000  C
  H62      1.0000 0.62130  0.28530  0.90400  Biso   1.000  H
  H63      1.0000 0.58180  0.28540  0.94120  Biso   1.000  H
  O10      1.0000 0.04720  0.85850  0.42010  Biso   1.000  O
  N19      1.0000 0.99600  0.92940  0.30700  Biso   1.000  N
  N20      1.0000 0.05840  0.79390  0.37660  Biso   1.000  N
  H64      1.0000 0.05040  0.77810  0.35270  Biso   1.000  H
  C64      1.0000 0.97230  0.90560  0.27540  Biso   1.000  C
  H65      1.0000 0.95620  0.92150  0.25250  Biso   1.000  H
  C65      1.0000 0.97100  0.85760  0.27590  Biso   1.000  C
  H66      1.0000 0.95500  0.84180  0.25290  Biso   1.000  H
  C66      1.0000 0.99270  0.83400  0.30920  Biso   1.000  C
  H67      1.0000 0.99170  0.80190  0.30980  Biso   1.000  H
  C67      1.0000 0.01680  0.85850  0.34290  Biso   1.000  C
  C68      1.0000 0.01780  0.90550  0.34050  Biso   1.000  C
  H68      1.0000 0.03420  0.92170  0.36300  Biso   1.000  H
  C69      1.0000 0.04110  0.83690  0.38310  Biso   1.000  C
  C70      1.0000 0.09020  0.77460  0.41060  Biso   1.000  C
  H69      1.0000 0.12130  0.78530  0.40400  Biso   1.000  H
  H70      1.0000 0.08180  0.78540  0.44120  Biso   1.000  H
  O11      1.0000 0.54720  0.64150  0.07990  Biso   1.000  O
  N21      1.0000 0.49600  0.57060  0.19300  Biso   1.000  N
  N22      1.0000 0.55840  0.70610  0.12340  Biso   1.000  N
  H71      1.0000 0.55040  0.72190  0.14730  Biso   1.000  H
  C71      1.0000 0.47230  0.59440  0.22460  Biso   1.000  C
  H72      1.0000 0.45620  0.57850  0.24750  Biso   1.000  H
  C72      1.0000 0.47100  0.64240  0.22410  Biso   1.000  C
  H73      1.0000 0.45500  0.65820  0.24710  Biso   1.000  H
  C73      1.0000 0.49270  0.66600  0.19080  Biso   1.000  C
  H74      1.0000 0.49170  0.69810  0.19020  Biso   1.000  H
  C74      1.0000 0.51680  0.64150  0.15710  Biso   1.000  C
  C75      1.0000 0.51780  0.59450  0.15950  Biso   1.000  C
  H75      1.0000 0.53420  0.57830  0.13700  Biso   1.000  H
  C76      1.0000 0.54110  0.66310  0.11690  Biso   1.000  C
  C77      1.0000 0.59020  0.72540  0.08940  Biso   1.000  C
  H76      1.0000 0.62130  0.71470  0.09600  Biso   1.000  H
  H77      1.0000 0.58180  0.71460  0.05880  Biso   1.000  H
  O12      1.0000 0.04720  0.14150  0.57990  Biso   1.000  O
  N23      1.0000 0.99600  0.07060  0.69300  Biso   1.000  N
  N24      1.0000 0.05840  0.20610  0.62340  Biso   1.000  N
  H78      1.0000 0.05040  0.22190  0.64730  Biso   1.000  H
  C78      1.0000 0.97230  0.09440  0.72460  Biso   1.000  C
  H79      1.0000 0.95620  0.07850  0.74750  Biso   1.000  H
  C79      1.0000 0.97100  0.14240  0.72410  Biso   1.000  C
  H80      1.0000 0.95500  0.15820  0.74710  Biso   1.000  H
  C80      1.0000 0.99270  0.16600  0.69080  Biso   1.000  C
  H81      1.0000 0.99170  0.19810  0.69020  Biso   1.000  H
  C81      1.0000 0.01680  0.14150  0.65710  Biso   1.000  C
  C82      1.0000 0.01780  0.09450  0.65950  Biso   1.000  C
  H82      1.0000 0.03420  0.07830  0.63700  Biso   1.000  H
  C83      1.0000 0.04110  0.16310  0.61690  Biso   1.000  C
  C84      1.0000 0.09020  0.22540  0.58940  Biso   1.000  C
  H83      1.0000 0.12130  0.21470  0.59600  Biso   1.000  H
  H84      1.0000 0.08180  0.21460  0.55880  Biso   1.000  H
  O13      1.0000 0.45280  0.64150  0.92010  Biso   1.000  O
  N25      1.0000 0.50400  0.57060  0.80700  Biso   1.000  N
  N26      1.0000 0.44160  0.70610  0.87660  Biso   1.000  N
  H85      1.0000 0.44960  0.72190  0.85270  Biso   1.000  H
  C85      1.0000 0.52770  0.59440  0.77540  Biso   1.000  C
  H86      1.0000 0.54380  0.57850  0.75250  Biso   1.000  H
  C86      1.0000 0.52900  0.64240  0.77590  Biso   1.000  C
  H87      1.0000 0.54500  0.65820  0.75290  Biso   1.000  H
  C87      1.0000 0.50730  0.66600  0.80920  Biso   1.000  C
  H88      1.0000 0.50830  0.69810  0.80980  Biso   1.000  H
  C88      1.0000 0.48320  0.64150  0.84290  Biso   1.000  C
  C89      1.0000 0.48220  0.59450  0.84050  Biso   1.000  C
  H89      1.0000 0.46580  0.57830  0.86300  Biso   1.000  H
  C90      1.0000 0.45890  0.66310  0.88310  Biso   1.000  C
  C91      1.0000 0.40980  0.72540  0.91060  Biso   1.000  C
  H90      1.0000 0.37870  0.71470  0.90400  Biso   1.000  H
  H91      1.0000 0.41820  0.71460  0.94120  Biso   1.000  H
  O14      1.0000 0.95280  0.14150  0.42010  Biso   1.000  O
  N27      1.0000 0.00400  0.07060  0.30700  Biso   1.000  N
  N28      1.0000 0.94160  0.20610  0.37660  Biso   1.000  N
  H92      1.0000 0.94960  0.22190  0.35270  Biso   1.000  H
  C92      1.0000 0.02770  0.09440  0.27540  Biso   1.000  C
  H93      1.0000 0.04380  0.07850  0.25250  Biso   1.000  H
  C93      1.0000 0.02900  0.14240  0.27590  Biso   1.000  C
  H94      1.0000 0.04500  0.15820  0.25290  Biso   1.000  H
  C94      1.0000 0.00730  0.16600  0.30920  Biso   1.000  C
  H95      1.0000 0.00830  0.19810  0.30980  Biso   1.000  H
  C95      1.0000 0.98320  0.14150  0.34290  Biso   1.000  C
  C96      1.0000 0.98220  0.09450  0.34050  Biso   1.000  C
  H96      1.0000 0.96580  0.07830  0.36300  Biso   1.000  H
  C97      1.0000 0.95890  0.16310  0.38310  Biso   1.000  C
  C98      1.0000 0.90980  0.22540  0.41060  Biso   1.000  C
  H97      1.0000 0.87870  0.21470  0.40400  Biso   1.000  H
  H98      1.0000 0.91820  0.21460  0.44120  Biso   1.000  H
  O15      1.0000 0.45280  0.35850  0.07990  Biso   1.000  O
  N29      1.0000 0.50400  0.42940  0.19300  Biso   1.000  N
  N30      1.0000 0.44160  0.29390  0.12340  Biso   1.000  N
  H99      1.0000 0.44960  0.27810  0.14730  Biso   1.000  H
  C99      1.0000 0.52770  0.40560  0.22460  Biso   1.000  C
  H100     1.0000 0.54380  0.42150  0.24750  Biso   1.000  H
  C100     1.0000 0.52900  0.35760  0.22410  Biso   1.000  C
  H101     1.0000 0.54500  0.34180  0.24710  Biso   1.000  H
  C101     1.0000 0.50730  0.33400  0.19080  Biso   1.000  C
  H102     1.0000 0.50830  0.30190  0.19020  Biso   1.000  H
  C102     1.0000 0.48320  0.35850  0.15710  Biso   1.000  C
  C103     1.0000 0.48220  0.40550  0.15950  Biso   1.000  C
  H103     1.0000 0.46580  0.42170  0.13700  Biso   1.000  H
  C104     1.0000 0.45890  0.33690  0.11690  Biso   1.000  C
  C105     1.0000 0.40980  0.27460  0.08940  Biso   1.000  C
  H104     1.0000 0.37870  0.28530  0.09600  Biso   1.000  H
  H105     1.0000 0.41820  0.28540  0.05880  Biso   1.000  H
  O16      1.0000 0.95280  0.85850  0.57990  Biso   1.000  O
  N31      1.0000 0.00400  0.92940  0.69300  Biso   1.000  N
  N32      1.0000 0.94160  0.79390  0.62340  Biso   1.000  N
  H106     1.0000 0.94960  0.77810  0.64730  Biso   1.000  H
  C106     1.0000 0.02770  0.90560  0.72460  Biso   1.000  C
  H107     1.0000 0.04380  0.92150  0.74750  Biso   1.000  H
  C107     1.0000 0.02900  0.85760  0.72410  Biso   1.000  C
  H108     1.0000 0.04500  0.84180  0.74710  Biso   1.000  H
  C108     1.0000 0.00730  0.83400  0.69080  Biso   1.000  C
  H109     1.0000 0.00830  0.80190  0.69020  Biso   1.000  H
  C109     1.0000 0.98320  0.85850  0.65710  Biso   1.000  C
  C110     1.0000 0.98220  0.90550  0.65950  Biso   1.000  C
  H110     1.0000 0.96580  0.92170  0.63700  Biso   1.000  H
  C111     1.0000 0.95890  0.83690  0.61690  Biso   1.000  C
  C112     1.0000 0.90980  0.77460  0.58940  Biso   1.000  C
  H111     1.0000 0.87870  0.78530  0.59600  Biso   1.000  H
  H112     1.0000 0.91820  0.78540  0.55880  Biso   1.000  H
  O17      1.0000 0.92010  0.54720  0.35850  Biso   1.000  O
  N33      1.0000 0.80700  0.49600  0.42940  Biso   1.000  N
  N34      1.0000 0.87660  0.55840  0.29390  Biso   1.000  N
  H113     1.0000 0.85270  0.55040  0.27810  Biso   1.000  H
  C113     1.0000 0.77540  0.47230  0.40560  Biso   1.000  C
  H114     1.0000 0.75250  0.45620  0.42150  Biso   1.000  H
  C114     1.0000 0.77590  0.47100  0.35760  Biso   1.000  C
  H115     1.0000 0.75290  0.45500  0.34180  Biso   1.000  H
  C115     1.0000 0.80920  0.49270  0.33400  Biso   1.000  C
  H116     1.0000 0.80980  0.49170  0.30190  Biso   1.000  H
  C116     1.0000 0.84290  0.51680  0.35850  Biso   1.000  C
  C117     1.0000 0.84050  0.51780  0.40550  Biso   1.000  C
  H117     1.0000 0.86300  0.53420  0.42170  Biso   1.000  H
  C118     1.0000 0.88310  0.54110  0.33690  Biso   1.000  C
  C119     1.0000 0.91060  0.59020  0.27460  Biso   1.000  C
  H118     1.0000 0.90400  0.62130  0.28530  Biso   1.000  H
  H119     1.0000 0.94120  0.58180  0.28540  Biso   1.000  H
  O18      1.0000 0.42010  0.04720  0.85850  Biso   1.000  O
  N35      1.0000 0.30700  0.99600  0.92940  Biso   1.000  N
  N36      1.0000 0.37660  0.05840  0.79390  Biso   1.000  N
  H120     1.0000 0.35270  0.05040  0.77810  Biso   1.000  H
  C120     1.0000 0.27540  0.97230  0.90560  Biso   1.000  C
  H121     1.0000 0.25250  0.95620  0.92150  Biso   1.000  H
  C121     1.0000 0.27590  0.97100  0.85760  Biso   1.000  C
  H122     1.0000 0.25290  0.95500  0.84180  Biso   1.000  H
  C122     1.0000 0.30920  0.99270  0.83400  Biso   1.000  C
  H123     1.0000 0.30980  0.99170  0.80190  Biso   1.000  H
  C123     1.0000 0.34290  0.01680  0.85850  Biso   1.000  C
  C124     1.0000 0.34050  0.01780  0.90550  Biso   1.000  C
  H124     1.0000 0.36300  0.03420  0.92170  Biso   1.000  H
  C125     1.0000 0.38310  0.04110  0.83690  Biso   1.000  C
  C126     1.0000 0.41060  0.09020  0.77460  Biso   1.000  C
  H125     1.0000 0.40400  0.12130  0.78530  Biso   1.000  H
  H126     1.0000 0.44120  0.08180  0.78540  Biso   1.000  H
  O19      1.0000 0.07990  0.54720  0.64150  Biso   1.000  O
  N37      1.0000 0.19300  0.49600  0.57060  Biso   1.000  N
  N38      1.0000 0.12340  0.55840  0.70610  Biso   1.000  N
  H127     1.0000 0.14730  0.55040  0.72190  Biso   1.000  H
  C127     1.0000 0.22460  0.47230  0.59440  Biso   1.000  C
  H128     1.0000 0.24750  0.45620  0.57850  Biso   1.000  H
  C128     1.0000 0.22410  0.47100  0.64240  Biso   1.000  C
  H129     1.0000 0.24710  0.45500  0.65820  Biso   1.000  H
  C129     1.0000 0.19080  0.49270  0.66600  Biso   1.000  C
  H130     1.0000 0.19020  0.49170  0.69810  Biso   1.000  H
  C130     1.0000 0.15710  0.51680  0.64150  Biso   1.000  C
  C131     1.0000 0.15950  0.51780  0.59450  Biso   1.000  C
  H131     1.0000 0.13700  0.53420  0.57830  Biso   1.000  H
  C132     1.0000 0.11690  0.54110  0.66310  Biso   1.000  C
  C133     1.0000 0.08940  0.59020  0.72540  Biso   1.000  C
  H132     1.0000 0.09600  0.62130  0.71470  Biso   1.000  H
  H133     1.0000 0.05880  0.58180  0.71460  Biso   1.000  H
  O20      1.0000 0.57990  0.04720  0.14150  Biso   1.000  O
  N39      1.0000 0.69300  0.99600  0.07060  Biso   1.000  N
  N40      1.0000 0.62340  0.05840  0.20610  Biso   1.000  N
  H134     1.0000 0.64730  0.05040  0.22190  Biso   1.000  H
  C134     1.0000 0.72460  0.97230  0.09440  Biso   1.000  C
  H135     1.0000 0.74750  0.95620  0.07850  Biso   1.000  H
  C135     1.0000 0.72410  0.97100  0.14240  Biso   1.000  C
  H136     1.0000 0.74710  0.95500  0.15820  Biso   1.000  H
  C136     1.0000 0.69080  0.99270  0.16600  Biso   1.000  C
  H137     1.0000 0.69020  0.99170  0.19810  Biso   1.000  H
  C137     1.0000 0.65710  0.01680  0.14150  Biso   1.000  C
  C138     1.0000 0.65950  0.01780  0.09450  Biso   1.000  C
  H138     1.0000 0.63700  0.03420  0.07830  Biso   1.000  H
  C139     1.0000 0.61690  0.04110  0.16310  Biso   1.000  C
  C140     1.0000 0.58940  0.09020  0.22540  Biso   1.000  C
  H139     1.0000 0.59600  0.12130  0.21470  Biso   1.000  H
  H140     1.0000 0.55880  0.08180  0.21460  Biso   1.000  H
  O21      1.0000 0.92010  0.45280  0.64150  Biso   1.000  O
  N41      1.0000 0.80700  0.50400  0.57060  Biso   1.000  N
  N42      1.0000 0.87660  0.44160  0.70610  Biso   1.000  N
  H141     1.0000 0.85270  0.44960  0.72190  Biso   1.000  H
  C141     1.0000 0.77540  0.52770  0.59440  Biso   1.000  C
  H142     1.0000 0.75250  0.54380  0.57850  Biso   1.000  H
  C142     1.0000 0.77590  0.52900  0.64240  Biso   1.000  C
  H143     1.0000 0.75290  0.54500  0.65820  Biso   1.000  H
  C143     1.0000 0.80920  0.50730  0.66600  Biso   1.000  C
  H144     1.0000 0.80980  0.50830  0.69810  Biso   1.000  H
  C144     1.0000 0.84290  0.48320  0.64150  Biso   1.000  C
  C145     1.0000 0.84050  0.48220  0.59450  Biso   1.000  C
  H145     1.0000 0.86300  0.46580  0.57830  Biso   1.000  H
  C146     1.0000 0.88310  0.45890  0.66310  Biso   1.000  C
  C147     1.0000 0.91060  0.40980  0.72540  Biso   1.000  C
  H146     1.0000 0.90400  0.37870  0.71470  Biso   1.000  H
  H147     1.0000 0.94120  0.41820  0.71460  Biso   1.000  H
  O22      1.0000 0.42010  0.95280  0.14150  Biso   1.000  O
  N43      1.0000 0.30700  0.00400  0.07060  Biso   1.000  N
  N44      1.0000 0.37660  0.94160  0.20610  Biso   1.000  N
  H148     1.0000 0.35270  0.94960  0.22190  Biso   1.000  H
  C148     1.0000 0.27540  0.02770  0.09440  Biso   1.000  C
  H149     1.0000 0.25250  0.04380  0.07850  Biso   1.000  H
  C149     1.0000 0.27590  0.02900  0.14240  Biso   1.000  C
  H150     1.0000 0.25290  0.04500  0.15820  Biso   1.000  H
  C150     1.0000 0.30920  0.00730  0.16600  Biso   1.000  C
  H151     1.0000 0.30980  0.00830  0.19810  Biso   1.000  H
  C151     1.0000 0.34290  0.98320  0.14150  Biso   1.000  C
  C152     1.0000 0.34050  0.98220  0.09450  Biso   1.000  C
  H152     1.0000 0.36300  0.96580  0.07830  Biso   1.000  H
  C153     1.0000 0.38310  0.95890  0.16310  Biso   1.000  C
  C154     1.0000 0.41060  0.90980  0.22540  Biso   1.000  C
  H153     1.0000 0.40400  0.87870  0.21470  Biso   1.000  H
  H154     1.0000 0.44120  0.91820  0.21460  Biso   1.000  H
  O23      1.0000 0.07990  0.45280  0.35850  Biso   1.000  O
  N45      1.0000 0.19300  0.50400  0.42940  Biso   1.000  N
  N46      1.0000 0.12340  0.44160  0.29390  Biso   1.000  N
  H155     1.0000 0.14730  0.44960  0.27810  Biso   1.000  H
  C155     1.0000 0.22460  0.52770  0.40560  Biso   1.000  C
  H156     1.0000 0.24750  0.54380  0.42150  Biso   1.000  H
  C156     1.0000 0.22410  0.52900  0.35760  Biso   1.000  C
  H157     1.0000 0.24710  0.54500  0.34180  Biso   1.000  H
  C157     1.0000 0.19080  0.50730  0.33400  Biso   1.000  C
  H158     1.0000 0.19020  0.50830  0.30190  Biso   1.000  H
  C158     1.0000 0.15710  0.48320  0.35850  Biso   1.000  C
  C159     1.0000 0.15950  0.48220  0.40550  Biso   1.000  C
  H159     1.0000 0.13700  0.46580  0.42170  Biso   1.000  H
  C160     1.0000 0.11690  0.45890  0.33690  Biso   1.000  C
  C161     1.0000 0.08940  0.40980  0.27460  Biso   1.000  C
  H160     1.0000 0.09600  0.37870  0.28530  Biso   1.000  H
  H161     1.0000 0.05880  0.41820  0.28540  Biso   1.000  H
  O24      1.0000 0.57990  0.95280  0.85850  Biso   1.000  O
  N47      1.0000 0.69300  0.00400  0.92940  Biso   1.000  N
  N48      1.0000 0.62340  0.94160  0.79390  Biso   1.000  N
  H162     1.0000 0.64730  0.94960  0.77810  Biso   1.000  H
  C162     1.0000 0.72460  0.02770  0.90560  Biso   1.000  C
  H163     1.0000 0.74750  0.04380  0.92150  Biso   1.000  H
  C163     1.0000 0.72410  0.02900  0.85760  Biso   1.000  C
  H164     1.0000 0.74710  0.04500  0.84180  Biso   1.000  H
  C164     1.0000 0.69080  0.00730  0.83400  Biso   1.000  C
  H165     1.0000 0.69020  0.00830  0.80190  Biso   1.000  H
  C165     1.0000 0.65710  0.98320  0.85850  Biso   1.000  C
  C166     1.0000 0.65950  0.98220  0.90550  Biso   1.000  C
  H166     1.0000 0.63700  0.96580  0.92170  Biso   1.000  H
  C167     1.0000 0.61690  0.95890  0.83690  Biso   1.000  C
  C168     1.0000 0.58940  0.90980  0.77460  Biso   1.000  C
  H167     1.0000 0.59600  0.87870  0.78530  Biso   1.000  H
  H168     1.0000 0.55880  0.91820  0.78540  Biso   1.000  H
  O25      1.0000 0.92010  0.35850  0.45280  Biso   1.000  O
  N49      1.0000 0.80700  0.42940  0.50400  Biso   1.000  N
  N50      1.0000 0.87660  0.29390  0.44160  Biso   1.000  N
  H169     1.0000 0.85270  0.27810  0.44960  Biso   1.000  H
  C169     1.0000 0.77540  0.40560  0.52770  Biso   1.000  C
  H170     1.0000 0.75250  0.42150  0.54380  Biso   1.000  H
  C170     1.0000 0.77590  0.35760  0.52900  Biso   1.000  C
  H171     1.0000 0.75290  0.34180  0.54500  Biso   1.000  H
  C171     1.0000 0.80920  0.33400  0.50730  Biso   1.000  C
  H172     1.0000 0.80980  0.30190  0.50830  Biso   1.000  H
  C172     1.0000 0.84290  0.35850  0.48320  Biso   1.000  C
  C173     1.0000 0.84050  0.40550  0.48220  Biso   1.000  C
  H173     1.0000 0.86300  0.42170  0.46580  Biso   1.000  H
  C174     1.0000 0.88310  0.33690  0.45890  Biso   1.000  C
  C175     1.0000 0.91060  0.27460  0.40980  Biso   1.000  C
  H174     1.0000 0.90400  0.28530  0.37870  Biso   1.000  H
  H175     1.0000 0.94120  0.28540  0.41820  Biso   1.000  H
  O26      1.0000 0.42010  0.85850  0.95280  Biso   1.000  O
  N51      1.0000 0.30700  0.92940  0.00400  Biso   1.000  N
  N52      1.0000 0.37660  0.79390  0.94160  Biso   1.000  N
  H176     1.0000 0.35270  0.77810  0.94960  Biso   1.000  H
  C176     1.0000 0.27540  0.90560  0.02770  Biso   1.000  C
  H177     1.0000 0.25250  0.92150  0.04380  Biso   1.000  H
  C177     1.0000 0.27590  0.85760  0.02900  Biso   1.000  C
  H178     1.0000 0.25290  0.84180  0.04500  Biso   1.000  H
  C178     1.0000 0.30920  0.83400  0.00730  Biso   1.000  C
  H179     1.0000 0.30980  0.80190  0.00830  Biso   1.000  H
  C179     1.0000 0.34290  0.85850  0.98320  Biso   1.000  C
  C180     1.0000 0.34050  0.90550  0.98220  Biso   1.000  C
  H180     1.0000 0.36300  0.92170  0.96580  Biso   1.000  H
  C181     1.0000 0.38310  0.83690  0.95890  Biso   1.000  C
  C182     1.0000 0.41060  0.77460  0.90980  Biso   1.000  C
  H181     1.0000 0.40400  0.78530  0.87870  Biso   1.000  H
  H182     1.0000 0.44120  0.78540  0.91820  Biso   1.000  H
  O27      1.0000 0.07990  0.64150  0.45280  Biso   1.000  O
  N53      1.0000 0.19300  0.57060  0.50400  Biso   1.000  N
  N54      1.0000 0.12340  0.70610  0.44160  Biso   1.000  N
  H183     1.0000 0.14730  0.72190  0.44960  Biso   1.000  H
  C183     1.0000 0.22460  0.59440  0.52770  Biso   1.000  C
  H184     1.0000 0.24750  0.57850  0.54380  Biso   1.000  H
  C184     1.0000 0.22410  0.64240  0.52900  Biso   1.000  C
  H185     1.0000 0.24710  0.65820  0.54500  Biso   1.000  H
  C185     1.0000 0.19080  0.66600  0.50730  Biso   1.000  C
  H186     1.0000 0.19020  0.69810  0.50830  Biso   1.000  H
  C186     1.0000 0.15710  0.64150  0.48320  Biso   1.000  C
  C187     1.0000 0.15950  0.59450  0.48220  Biso   1.000  C
  H187     1.0000 0.13700  0.57830  0.46580  Biso   1.000  H
  C188     1.0000 0.11690  0.66310  0.45890  Biso   1.000  C
  C189     1.0000 0.08940  0.72540  0.40980  Biso   1.000  C
  H188     1.0000 0.09600  0.71470  0.37870  Biso   1.000  H
  H189     1.0000 0.05880  0.71460  0.41820  Biso   1.000  H
  O28      1.0000 0.57990  0.14150  0.95280  Biso   1.000  O
  N55      1.0000 0.69300  0.07060  0.00400  Biso   1.000  N
  N56      1.0000 0.62340  0.20610  0.94160  Biso   1.000  N
  H190     1.0000 0.64730  0.22190  0.94960  Biso   1.000  H
  C190     1.0000 0.72460  0.09440  0.02770  Biso   1.000  C
  H191     1.0000 0.74750  0.07850  0.04380  Biso   1.000  H
  C191     1.0000 0.72410  0.14240  0.02900  Biso   1.000  C
  H192     1.0000 0.74710  0.15820  0.04500  Biso   1.000  H
  C192     1.0000 0.69080  0.16600  0.00730  Biso   1.000  C
  H193     1.0000 0.69020  0.19810  0.00830  Biso   1.000  H
  C193     1.0000 0.65710  0.14150  0.98320  Biso   1.000  C
  C194     1.0000 0.65950  0.09450  0.98220  Biso   1.000  C
  H194     1.0000 0.63700  0.07830  0.96580  Biso   1.000  H
  C195     1.0000 0.61690  0.16310  0.95890  Biso   1.000  C
  C196     1.0000 0.58940  0.22540  0.90980  Biso   1.000  C
  H195     1.0000 0.59600  0.21470  0.87870  Biso   1.000  H
  H196     1.0000 0.55880  0.21460  0.91820  Biso   1.000  H
  O29      1.0000 0.92010  0.64150  0.54720  Biso   1.000  O
  N57      1.0000 0.80700  0.57060  0.49600  Biso   1.000  N
  N58      1.0000 0.87660  0.70610  0.55840  Biso   1.000  N
  H197     1.0000 0.85270  0.72190  0.55040  Biso   1.000  H
  C197     1.0000 0.77540  0.59440  0.47230  Biso   1.000  C
  H198     1.0000 0.75250  0.57850  0.45620  Biso   1.000  H
  C198     1.0000 0.77590  0.64240  0.47100  Biso   1.000  C
  H199     1.0000 0.75290  0.65820  0.45500  Biso   1.000  H
  C199     1.0000 0.80920  0.66600  0.49270  Biso   1.000  C
  H200     1.0000 0.80980  0.69810  0.49170  Biso   1.000  H
  C200     1.0000 0.84290  0.64150  0.51680  Biso   1.000  C
  C201     1.0000 0.84050  0.59450  0.51780  Biso   1.000  C
  H201     1.0000 0.86300  0.57830  0.53420  Biso   1.000  H
  C202     1.0000 0.88310  0.66310  0.54110  Biso   1.000  C
  C203     1.0000 0.91060  0.72540  0.59020  Biso   1.000  C
  H202     1.0000 0.90400  0.71470  0.62130  Biso   1.000  H
  H203     1.0000 0.94120  0.71460  0.58180  Biso   1.000  H
  O30      1.0000 0.42010  0.14150  0.04720  Biso   1.000  O
  N59      1.0000 0.30700  0.07060  0.99600  Biso   1.000  N
  N60      1.0000 0.37660  0.20610  0.05840  Biso   1.000  N
  H204     1.0000 0.35270  0.22190  0.05040  Biso   1.000  H
  C204     1.0000 0.27540  0.09440  0.97230  Biso   1.000  C
  H205     1.0000 0.25250  0.07850  0.95620  Biso   1.000  H
  C205     1.0000 0.27590  0.14240  0.97100  Biso   1.000  C
  H206     1.0000 0.25290  0.15820  0.95500  Biso   1.000  H
  C206     1.0000 0.30920  0.16600  0.99270  Biso   1.000  C
  H207     1.0000 0.30980  0.19810  0.99170  Biso   1.000  H
  C207     1.0000 0.34290  0.14150  0.01680  Biso   1.000  C
  C208     1.0000 0.34050  0.09450  0.01780  Biso   1.000  C
  H208     1.0000 0.36300  0.07830  0.03420  Biso   1.000  H
  C209     1.0000 0.38310  0.16310  0.04110  Biso   1.000  C
  C210     1.0000 0.41060  0.22540  0.09020  Biso   1.000  C
  H209     1.0000 0.40400  0.21470  0.12130  Biso   1.000  H
  H210     1.0000 0.44120  0.21460  0.08180  Biso   1.000  H
  O31      1.0000 0.07990  0.35850  0.54720  Biso   1.000  O
  N61      1.0000 0.19300  0.42940  0.49600  Biso   1.000  N
  N62      1.0000 0.12340  0.29390  0.55840  Biso   1.000  N
  H211     1.0000 0.14730  0.27810  0.55040  Biso   1.000  H
  C211     1.0000 0.22460  0.40560  0.47230  Biso   1.000  C
  H212     1.0000 0.24750  0.42150  0.45620  Biso   1.000  H
  C212     1.0000 0.22410  0.35760  0.47100  Biso   1.000  C
  H213     1.0000 0.24710  0.34180  0.45500  Biso   1.000  H
  C213     1.0000 0.19080  0.33400  0.49270  Biso   1.000  C
  H214     1.0000 0.19020  0.30190  0.49170  Biso   1.000  H
  C214     1.0000 0.15710  0.35850  0.51680  Biso   1.000  C
  C215     1.0000 0.15950  0.40550  0.51780  Biso   1.000  C
  H215     1.0000 0.13700  0.42170  0.53420  Biso   1.000  H
  C216     1.0000 0.11690  0.33690  0.54110  Biso   1.000  C
  C217     1.0000 0.08940  0.27460  0.59020  Biso   1.000  C
  H216     1.0000 0.09600  0.28530  0.62130  Biso   1.000  H
  H217     1.0000 0.05880  0.28540  0.58180  Biso   1.000  H
  O32      1.0000 0.57990  0.85850  0.04720  Biso   1.000  O
  N63      1.0000 0.69300  0.92940  0.99600  Biso   1.000  N
  N64      1.0000 0.62340  0.79390  0.05840  Biso   1.000  N
  H218     1.0000 0.64730  0.77810  0.05040  Biso   1.000  H
  C218     1.0000 0.72460  0.90560  0.97230  Biso   1.000  C
  H219     1.0000 0.74750  0.92150  0.95620  Biso   1.000  H
  C219     1.0000 0.72410  0.85760  0.97100  Biso   1.000  C
  H220     1.0000 0.74710  0.84180  0.95500  Biso   1.000  H
  C220     1.0000 0.69080  0.83400  0.99270  Biso   1.000  C
  H221     1.0000 0.69020  0.80190  0.99170  Biso   1.000  H
  C221     1.0000 0.65710  0.85850  0.01680  Biso   1.000  C
  C222     1.0000 0.65950  0.90550  0.01780  Biso   1.000  C
  H222     1.0000 0.63700  0.92170  0.03420  Biso   1.000  H
  C223     1.0000 0.61690  0.83690  0.04110  Biso   1.000  C
  C224     1.0000 0.58940  0.77460  0.09020  Biso   1.000  C
  H223     1.0000 0.59600  0.78530  0.12130  Biso   1.000  H
  H224     1.0000 0.55880  0.78540  0.08180  Biso   1.000  H
  O33      1.0000 0.35850  0.54720  0.07990  Biso   1.000  O
  N65      1.0000 0.42940  0.49600  0.19300  Biso   1.000  N
  N66      1.0000 0.29390  0.55840  0.12340  Biso   1.000  N
  H225     1.0000 0.27810  0.55040  0.14730  Biso   1.000  H
  C225     1.0000 0.40560  0.47230  0.22460  Biso   1.000  C
  H226     1.0000 0.42150  0.45620  0.24750  Biso   1.000  H
  C226     1.0000 0.35760  0.47100  0.22410  Biso   1.000  C
  H227     1.0000 0.34180  0.45500  0.24710  Biso   1.000  H
  C227     1.0000 0.33400  0.49270  0.19080  Biso   1.000  C
  H228     1.0000 0.30190  0.49170  0.19020  Biso   1.000  H
  C228     1.0000 0.35850  0.51680  0.15710  Biso   1.000  C
  C229     1.0000 0.40550  0.51780  0.15950  Biso   1.000  C
  H229     1.0000 0.42170  0.53420  0.13700  Biso   1.000  H
  C230     1.0000 0.33690  0.54110  0.11690  Biso   1.000  C
  C231     1.0000 0.27460  0.59020  0.08940  Biso   1.000  C
  H230     1.0000 0.28530  0.62130  0.09600  Biso   1.000  H
  H231     1.0000 0.28540  0.58180  0.05880  Biso   1.000  H
  O34      1.0000 0.85850  0.04720  0.57990  Biso   1.000  O
  N67      1.0000 0.92940  0.99600  0.69300  Biso   1.000  N
  N68      1.0000 0.79390  0.05840  0.62340  Biso   1.000  N
  H232     1.0000 0.77810  0.05040  0.64730  Biso   1.000  H
  C232     1.0000 0.90560  0.97230  0.72460  Biso   1.000  C
  H233     1.0000 0.92150  0.95620  0.74750  Biso   1.000  H
  C233     1.0000 0.85760  0.97100  0.72410  Biso   1.000  C
  H234     1.0000 0.84180  0.95500  0.74710  Biso   1.000  H
  C234     1.0000 0.83400  0.99270  0.69080  Biso   1.000  C
  H235     1.0000 0.80190  0.99170  0.69020  Biso   1.000  H
  C235     1.0000 0.85850  0.01680  0.65710  Biso   1.000  C
  C236     1.0000 0.90550  0.01780  0.65950  Biso   1.000  C
  H236     1.0000 0.92170  0.03420  0.63700  Biso   1.000  H
  C237     1.0000 0.83690  0.04110  0.61690  Biso   1.000  C
  C238     1.0000 0.77460  0.09020  0.58940  Biso   1.000  C
  H237     1.0000 0.78530  0.12130  0.59600  Biso   1.000  H
  H238     1.0000 0.78540  0.08180  0.55880  Biso   1.000  H
  O35      1.0000 0.64150  0.54720  0.92010  Biso   1.000  O
  N69      1.0000 0.57060  0.49600  0.80700  Biso   1.000  N
  N70      1.0000 0.70610  0.55840  0.87660  Biso   1.000  N
  H239     1.0000 0.72190  0.55040  0.85270  Biso   1.000  H
  C239     1.0000 0.59440  0.47230  0.77540  Biso   1.000  C
  H240     1.0000 0.57850  0.45620  0.75250  Biso   1.000  H
  C240     1.0000 0.64240  0.47100  0.77590  Biso   1.000  C
  H241     1.0000 0.65820  0.45500  0.75290  Biso   1.000  H
  C241     1.0000 0.66600  0.49270  0.80920  Biso   1.000  C
  H242     1.0000 0.69810  0.49170  0.80980  Biso   1.000  H
  C242     1.0000 0.64150  0.51680  0.84290  Biso   1.000  C
  C243     1.0000 0.59450  0.51780  0.84050  Biso   1.000  C
  H243     1.0000 0.57830  0.53420  0.86300  Biso   1.000  H
  C244     1.0000 0.66310  0.54110  0.88310  Biso   1.000  C
  C245     1.0000 0.72540  0.59020  0.91060  Biso   1.000  C
  H244     1.0000 0.71470  0.62130  0.90400  Biso   1.000  H
  H245     1.0000 0.71460  0.58180  0.94120  Biso   1.000  H
  O36      1.0000 0.14150  0.04720  0.42010  Biso   1.000  O
  N71      1.0000 0.07060  0.99600  0.30700  Biso   1.000  N
  N72      1.0000 0.20610  0.05840  0.37660  Biso   1.000  N
  H246     1.0000 0.22190  0.05040  0.35270  Biso   1.000  H
  C246     1.0000 0.09440  0.97230  0.27540  Biso   1.000  C
  H247     1.0000 0.07850  0.95620  0.25250  Biso   1.000  H
  C247     1.0000 0.14240  0.97100  0.27590  Biso   1.000  C
  H248     1.0000 0.15820  0.95500  0.25290  Biso   1.000  H
  C248     1.0000 0.16600  0.99270  0.30920  Biso   1.000  C
  H249     1.0000 0.19810  0.99170  0.30980  Biso   1.000  H
  C249     1.0000 0.14150  0.01680  0.34290  Biso   1.000  C
  C250     1.0000 0.09450  0.01780  0.34050  Biso   1.000  C
  H250     1.0000 0.07830  0.03420  0.36300  Biso   1.000  H
  C251     1.0000 0.16310  0.04110  0.38310  Biso   1.000  C
  C252     1.0000 0.22540  0.09020  0.41060  Biso   1.000  C
  H251     1.0000 0.21470  0.12130  0.40400  Biso   1.000  H
  H252     1.0000 0.21460  0.08180  0.44120  Biso   1.000  H
  O37      1.0000 0.64150  0.45280  0.07990  Biso   1.000  O
  N73      1.0000 0.57060  0.50400  0.19300  Biso   1.000  N
  N74      1.0000 0.70610  0.44160  0.12340  Biso   1.000  N
  H253     1.0000 0.72190  0.44960  0.14730  Biso   1.000  H
  C253     1.0000 0.59440  0.52770  0.22460  Biso   1.000  C
  H254     1.0000 0.57850  0.54380  0.24750  Biso   1.000  H
  C254     1.0000 0.64240  0.52900  0.22410  Biso   1.000  C
  H255     1.0000 0.65820  0.54500  0.24710  Biso   1.000  H
  C255     1.0000 0.66600  0.50730  0.19080  Biso   1.000  C
  H256     1.0000 0.69810  0.50830  0.19020  Biso   1.000  H
  C256     1.0000 0.64150  0.48320  0.15710  Biso   1.000  C
  C257     1.0000 0.59450  0.48220  0.15950  Biso   1.000  C
  H257     1.0000 0.57830  0.46580  0.13700  Biso   1.000  H
  C258     1.0000 0.66310  0.45890  0.11690  Biso   1.000  C
  C259     1.0000 0.72540  0.40980  0.08940  Biso   1.000  C
  H258     1.0000 0.71470  0.37870  0.09600  Biso   1.000  H
  H259     1.0000 0.71460  0.41820  0.05880  Biso   1.000  H
  O38      1.0000 0.14150  0.95280  0.57990  Biso   1.000  O
  N75      1.0000 0.07060  0.00400  0.69300  Biso   1.000  N
  N76      1.0000 0.20610  0.94160  0.62340  Biso   1.000  N
  H260     1.0000 0.22190  0.94960  0.64730  Biso   1.000  H
  C260     1.0000 0.09440  0.02770  0.72460  Biso   1.000  C
  H261     1.0000 0.07850  0.04380  0.74750  Biso   1.000  H
  C261     1.0000 0.14240  0.02900  0.72410  Biso   1.000  C
  H262     1.0000 0.15820  0.04500  0.74710  Biso   1.000  H
  C262     1.0000 0.16600  0.00730  0.69080  Biso   1.000  C
  H263     1.0000 0.19810  0.00830  0.69020  Biso   1.000  H
  C263     1.0000 0.14150  0.98320  0.65710  Biso   1.000  C
  C264     1.0000 0.09450  0.98220  0.65950  Biso   1.000  C
  H264     1.0000 0.07830  0.96580  0.63700  Biso   1.000  H
  C265     1.0000 0.16310  0.95890  0.61690  Biso   1.000  C
  C266     1.0000 0.22540  0.90980  0.58940  Biso   1.000  C
  H265     1.0000 0.21470  0.87870  0.59600  Biso   1.000  H
  H266     1.0000 0.21460  0.91820  0.55880  Biso   1.000  H
  O39      1.0000 0.35850  0.45280  0.92010  Biso   1.000  O
  N77      1.0000 0.42940  0.50400  0.80700  Biso   1.000  N
  N78      1.0000 0.29390  0.44160  0.87660  Biso   1.000  N
  H267     1.0000 0.27810  0.44960  0.85270  Biso   1.000  H
  C267     1.0000 0.40560  0.52770  0.77540  Biso   1.000  C
  H268     1.0000 0.42150  0.54380  0.75250  Biso   1.000  H
  C268     1.0000 0.35760  0.52900  0.77590  Biso   1.000  C
  H269     1.0000 0.34180  0.54500  0.75290  Biso   1.000  H
  C269     1.0000 0.33400  0.50730  0.80920  Biso   1.000  C
  H270     1.0000 0.30190  0.50830  0.80980  Biso   1.000  H
  C270     1.0000 0.35850  0.48320  0.84290  Biso   1.000  C
  C271     1.0000 0.40550  0.48220  0.84050  Biso   1.000  C
  H271     1.0000 0.42170  0.46580  0.86300  Biso   1.000  H
  C272     1.0000 0.33690  0.45890  0.88310  Biso   1.000  C
  C273     1.0000 0.27460  0.40980  0.91060  Biso   1.000  C
  H272     1.0000 0.28530  0.37870  0.90400  Biso   1.000  H
  H273     1.0000 0.28540  0.41820  0.94120  Biso   1.000  H
  O40      1.0000 0.85850  0.95280  0.42010  Biso   1.000  O
  N79      1.0000 0.92940  0.00400  0.30700  Biso   1.000  N
  N80      1.0000 0.79390  0.94160  0.37660  Biso   1.000  N
  H274     1.0000 0.77810  0.94960  0.35270  Biso   1.000  H
  C274     1.0000 0.90560  0.02770  0.27540  Biso   1.000  C
  H275     1.0000 0.92150  0.04380  0.25250  Biso   1.000  H
  C275     1.0000 0.85760  0.02900  0.27590  Biso   1.000  C
  H276     1.0000 0.84180  0.04500  0.25290  Biso   1.000  H
  C276     1.0000 0.83400  0.00730  0.30920  Biso   1.000  C
  H277     1.0000 0.80190  0.00830  0.30980  Biso   1.000  H
  C277     1.0000 0.85850  0.98320  0.34290  Biso   1.000  C
  C278     1.0000 0.90550  0.98220  0.34050  Biso   1.000  C
  H278     1.0000 0.92170  0.96580  0.36300  Biso   1.000  H
  C279     1.0000 0.83690  0.95890  0.38310  Biso   1.000  C
  C280     1.0000 0.77460  0.90980  0.41060  Biso   1.000  C
  H279     1.0000 0.78530  0.87870  0.40400  Biso   1.000  H
  H280     1.0000 0.78540  0.91820  0.44120  Biso   1.000  H
  O41      1.0000 0.54720  0.92010  0.64150  Biso   1.000  O
  N81      1.0000 0.49600  0.80700  0.57060  Biso   1.000  N
  N82      1.0000 0.55840  0.87660  0.70610  Biso   1.000  N
  H281     1.0000 0.55040  0.85270  0.72190  Biso   1.000  H
  C281     1.0000 0.47230  0.77540  0.59440  Biso   1.000  C
  H282     1.0000 0.45620  0.75250  0.57850  Biso   1.000  H
  C282     1.0000 0.47100  0.77590  0.64240  Biso   1.000  C
  H283     1.0000 0.45500  0.75290  0.65820  Biso   1.000  H
  C283     1.0000 0.49270  0.80920  0.66600  Biso   1.000  C
  H284     1.0000 0.49170  0.80980  0.69810  Biso   1.000  H
  C284     1.0000 0.51680  0.84290  0.64150  Biso   1.000  C
  C285     1.0000 0.51780  0.84050  0.59450  Biso   1.000  C
  H285     1.0000 0.53420  0.86300  0.57830  Biso   1.000  H
  C286     1.0000 0.54110  0.88310  0.66310  Biso   1.000  C
  C287     1.0000 0.59020  0.91060  0.72540  Biso   1.000  C
  H286     1.0000 0.62130  0.90400  0.71470  Biso   1.000  H
  H287     1.0000 0.58180  0.94120  0.71460  Biso   1.000  H
  O42      1.0000 0.04720  0.42010  0.14150  Biso   1.000  O
  N83      1.0000 0.99600  0.30700  0.07060  Biso   1.000  N
  N84      1.0000 0.05840  0.37660  0.20610  Biso   1.000  N
  H288     1.0000 0.05040  0.35270  0.22190  Biso   1.000  H
  C288     1.0000 0.97230  0.27540  0.09440  Biso   1.000  C
  H289     1.0000 0.95620  0.25250  0.07850  Biso   1.000  H
  C289     1.0000 0.97100  0.27590  0.14240  Biso   1.000  C
  H290     1.0000 0.95500  0.25290  0.15820  Biso   1.000  H
  C290     1.0000 0.99270  0.30920  0.16600  Biso   1.000  C
  H291     1.0000 0.99170  0.30980  0.19810  Biso   1.000  H
  C291     1.0000 0.01680  0.34290  0.14150  Biso   1.000  C
  C292     1.0000 0.01780  0.34050  0.09450  Biso   1.000  C
  H292     1.0000 0.03420  0.36300  0.07830  Biso   1.000  H
  C293     1.0000 0.04110  0.38310  0.16310  Biso   1.000  C
  C294     1.0000 0.09020  0.41060  0.22540  Biso   1.000  C
  H293     1.0000 0.12130  0.40400  0.21470  Biso   1.000  H
  H294     1.0000 0.08180  0.44120  0.21460  Biso   1.000  H
  O43      1.0000 0.54720  0.07990  0.35850  Biso   1.000  O
  N85      1.0000 0.49600  0.19300  0.42940  Biso   1.000  N
  N86      1.0000 0.55840  0.12340  0.29390  Biso   1.000  N
  H295     1.0000 0.55040  0.14730  0.27810  Biso   1.000  H
  C295     1.0000 0.47230  0.22460  0.40560  Biso   1.000  C
  H296     1.0000 0.45620  0.24750  0.42150  Biso   1.000  H
  C296     1.0000 0.47100  0.22410  0.35760  Biso   1.000  C
  H297     1.0000 0.45500  0.24710  0.34180  Biso   1.000  H
  C297     1.0000 0.49270  0.19080  0.33400  Biso   1.000  C
  H298     1.0000 0.49170  0.19020  0.30190  Biso   1.000  H
  C298     1.0000 0.51680  0.15710  0.35850  Biso   1.000  C
  C299     1.0000 0.51780  0.15950  0.40550  Biso   1.000  C
  H299     1.0000 0.53420  0.13700  0.42170  Biso   1.000  H
  C300     1.0000 0.54110  0.11690  0.33690  Biso   1.000  C
  C301     1.0000 0.59020  0.08940  0.27460  Biso   1.000  C
  H300     1.0000 0.62130  0.09600  0.28530  Biso   1.000  H
  H301     1.0000 0.58180  0.05880  0.28540  Biso   1.000  H
  O44      1.0000 0.04720  0.57990  0.85850  Biso   1.000  O
  N87      1.0000 0.99600  0.69300  0.92940  Biso   1.000  N
  N88      1.0000 0.05840  0.62340  0.79390  Biso   1.000  N
  H302     1.0000 0.05040  0.64730  0.77810  Biso   1.000  H
  C302     1.0000 0.97230  0.72460  0.90560  Biso   1.000  C
  H303     1.0000 0.95620  0.74750  0.92150  Biso   1.000  H
  C303     1.0000 0.97100  0.72410  0.85760  Biso   1.000  C
  H304     1.0000 0.95500  0.74710  0.84180  Biso   1.000  H
  C304     1.0000 0.99270  0.69080  0.83400  Biso   1.000  C
  H305     1.0000 0.99170  0.69020  0.80190  Biso   1.000  H
  C305     1.0000 0.01680  0.65710  0.85850  Biso   1.000  C
  C306     1.0000 0.01780  0.65950  0.90550  Biso   1.000  C
  H306     1.0000 0.03420  0.63700  0.92170  Biso   1.000  H
  C307     1.0000 0.04110  0.61690  0.83690  Biso   1.000  C
  C308     1.0000 0.09020  0.58940  0.77460  Biso   1.000  C
  H307     1.0000 0.12130  0.59600  0.78530  Biso   1.000  H
  H308     1.0000 0.08180  0.55880  0.78540  Biso   1.000  H
  O45      1.0000 0.45280  0.92010  0.35850  Biso   1.000  O
  N89      1.0000 0.50400  0.80700  0.42940  Biso   1.000  N
  N90      1.0000 0.44160  0.87660  0.29390  Biso   1.000  N
  H309     1.0000 0.44960  0.85270  0.27810  Biso   1.000  H
  C309     1.0000 0.52770  0.77540  0.40560  Biso   1.000  C
  H310     1.0000 0.54380  0.75250  0.42150  Biso   1.000  H
  C310     1.0000 0.52900  0.77590  0.35760  Biso   1.000  C
  H311     1.0000 0.54500  0.75290  0.34180  Biso   1.000  H
  C311     1.0000 0.50730  0.80920  0.33400  Biso   1.000  C
  H312     1.0000 0.50830  0.80980  0.30190  Biso   1.000  H
  C312     1.0000 0.48320  0.84290  0.35850  Biso   1.000  C
  C313     1.0000 0.48220  0.84050  0.40550  Biso   1.000  C
  H313     1.0000 0.46580  0.86300  0.42170  Biso   1.000  H
  C314     1.0000 0.45890  0.88310  0.33690  Biso   1.000  C
  C315     1.0000 0.40980  0.91060  0.27460  Biso   1.000  C
  H314     1.0000 0.37870  0.90400  0.28530  Biso   1.000  H
  H315     1.0000 0.41820  0.94120  0.28540  Biso   1.000  H
  O46      1.0000 0.95280  0.42010  0.85850  Biso   1.000  O
  N91      1.0000 0.00400  0.30700  0.92940  Biso   1.000  N
  N92      1.0000 0.94160  0.37660  0.79390  Biso   1.000  N
  H316     1.0000 0.94960  0.35270  0.77810  Biso   1.000  H
  C316     1.0000 0.02770  0.27540  0.90560  Biso   1.000  C
  H317     1.0000 0.04380  0.25250  0.92150  Biso   1.000  H
  C317     1.0000 0.02900  0.27590  0.85760  Biso   1.000  C
  H318     1.0000 0.04500  0.25290  0.84180  Biso   1.000  H
  C318     1.0000 0.00730  0.30920  0.83400  Biso   1.000  C
  H319     1.0000 0.00830  0.30980  0.80190  Biso   1.000  H
  C319     1.0000 0.98320  0.34290  0.85850  Biso   1.000  C
  C320     1.0000 0.98220  0.34050  0.90550  Biso   1.000  C
  H320     1.0000 0.96580  0.36300  0.92170  Biso   1.000  H
  C321     1.0000 0.95890  0.38310  0.83690  Biso   1.000  C
  C322     1.0000 0.90980  0.41060  0.77460  Biso   1.000  C
  H321     1.0000 0.87870  0.40400  0.78530  Biso   1.000  H
  H322     1.0000 0.91820  0.44120  0.78540  Biso   1.000  H
  O47      1.0000 0.45280  0.07990  0.64150  Biso   1.000  O
  N93      1.0000 0.50400  0.19300  0.57060  Biso   1.000  N
  N94      1.0000 0.44160  0.12340  0.70610  Biso   1.000  N
  H323     1.0000 0.44960  0.14730  0.72190  Biso   1.000  H
  C323     1.0000 0.52770  0.22460  0.59440  Biso   1.000  C
  H324     1.0000 0.54380  0.24750  0.57850  Biso   1.000  H
  C324     1.0000 0.52900  0.22410  0.64240  Biso   1.000  C
  H325     1.0000 0.54500  0.24710  0.65820  Biso   1.000  H
  C325     1.0000 0.50730  0.19080  0.66600  Biso   1.000  C
  H326     1.0000 0.50830  0.19020  0.69810  Biso   1.000  H
  C326     1.0000 0.48320  0.15710  0.64150  Biso   1.000  C
  C327     1.0000 0.48220  0.15950  0.59450  Biso   1.000  C
  H327     1.0000 0.46580  0.13700  0.57830  Biso   1.000  H
  C328     1.0000 0.45890  0.11690  0.66310  Biso   1.000  C
  C329     1.0000 0.40980  0.08940  0.72540  Biso   1.000  C
  H328     1.0000 0.37870  0.09600  0.71470  Biso   1.000  H
  H329     1.0000 0.41820  0.05880  0.71460  Biso   1.000  H
  O48      1.0000 0.95280  0.57990  0.14150  Biso   1.000  O
  N95      1.0000 0.00400  0.69300  0.07060  Biso   1.000  N
  N96      1.0000 0.94160  0.62340  0.20610  Biso   1.000  N
  H330     1.0000 0.94960  0.64730  0.22190  Biso   1.000  H
  C330     1.0000 0.02770  0.72460  0.09440  Biso   1.000  C
  H331     1.0000 0.04380  0.74750  0.07850  Biso   1.000  H
  C331     1.0000 0.02900  0.72410  0.14240  Biso   1.000  C
  H332     1.0000 0.04500  0.74710  0.15820  Biso   1.000  H
  C332     1.0000 0.00730  0.69080  0.16600  Biso   1.000  C
  H333     1.0000 0.00830  0.69020  0.19810  Biso   1.000  H
  C333     1.0000 0.98320  0.65710  0.14150  Biso   1.000  C
  C334     1.0000 0.98220  0.65950  0.09450  Biso   1.000  C
  H334     1.0000 0.96580  0.63700  0.07830  Biso   1.000  H
  C335     1.0000 0.95890  0.61690  0.16310  Biso   1.000  C
  C336     1.0000 0.90980  0.58940  0.22540  Biso   1.000  C
  H335     1.0000 0.87870  0.59600  0.21470  Biso   1.000  H
  H336     1.0000 0.91820  0.55880  0.21460  Biso   1.000  H
  Cu1      1.0000 0.50000  0.80544  0.50000  Biso   1.000  Cu
  Cu2      1.0000 0.00000  0.30544  0.00000  Biso   1.000  Cu
  Cu3      1.0000 0.50000  0.19456  0.50000  Biso   1.000  Cu
  Cu4      1.0000 0.00000  0.69456  0.00000  Biso   1.000  Cu
  Cu5      1.0000 0.50000  0.50000  0.80544  Biso   1.000  Cu
  Cu6      1.0000 0.00000  0.00000  0.30544  Biso   1.000  Cu
  Cu7      1.0000 0.50000  0.50000  0.19456  Biso   1.000  Cu
  Cu8      1.0000 0.00000  0.00000  0.69456  Biso   1.000  Cu
  Cu9      1.0000 0.80544  0.50000  0.50000  Biso   1.000  Cu
  Cu10     1.0000 0.30544  0.00000  0.00000  Biso   1.000  Cu
  Cu11     1.0000 0.19456  0.50000  0.50000  Biso   1.000  Cu
  Cu12     1.0000 0.69456  0.00000  0.00000  Biso   1.000  Cu
