data_image0
_cell_length_a       44.0612
_cell_length_b       44.0612
_cell_length_c       44.0612
_cell_angle_alpha    60
_cell_angle_beta     60
_cell_angle_gamma    60

_symmetry_space_group_name_H-M    P 1
_symmetry_int_tables_number       1

loop_
  _symmetry_equiv_pos_as_xyz
  'x, y, z'

loop_
  _atom_site_label
  _atom_site_occupancy
  _atom_site_fract_x
  _atom_site_fract_y
  _atom_site_fract_z
  _atom_site_thermal_displace_type
  _atom_site_B_iso_or_equiv
  _atom_site_type_symbol
  Cu1      1.0000 0.99474  0.85230  0.24016  Biso   1.000  Cu
  Cu2      1.0000 0.35230  0.49474  0.91280  Biso   1.000  Cu
  Cu3      1.0000 0.74016  0.91280  0.49474  Biso   1.000  Cu
  Cu4      1.0000 0.41280  0.24016  0.85230  Biso   1.000  Cu
  Cu5      1.0000 0.99474  0.24016  0.91280  Biso   1.000  Cu
  Cu6      1.0000 0.35230  0.91280  0.24016  Biso   1.000  Cu
  Cu7      1.0000 0.74016  0.49474  0.85230  Biso   1.000  Cu
  Cu8      1.0000 0.41280  0.85230  0.49474  Biso   1.000  Cu
  Cu9      1.0000 0.99474  0.91280  0.85230  Biso   1.000  Cu
  Cu10     1.0000 0.35230  0.24016  0.49474  Biso   1.000  Cu
  Cu11     1.0000 0.74016  0.85230  0.91280  Biso   1.000  Cu
  Cu12     1.0000 0.41280  0.49474  0.24016  Biso   1.000  Cu
  Cu13     1.0000 0.64770  0.50526  0.75984  Biso   1.000  Cu
  Cu14     1.0000 0.00526  0.14770  0.08720  Biso   1.000  Cu
  Cu15     1.0000 0.58720  0.75984  0.50526  Biso   1.000  Cu
  Cu16     1.0000 0.25984  0.08720  0.14770  Biso   1.000  Cu
  Cu17     1.0000 0.25984  0.50526  0.08720  Biso   1.000  Cu
  Cu18     1.0000 0.58720  0.14770  0.75984  Biso   1.000  Cu
  Cu19     1.0000 0.00526  0.75984  0.14770  Biso   1.000  Cu
  Cu20     1.0000 0.64770  0.08720  0.50526  Biso   1.000  Cu
  Cu21     1.0000 0.58720  0.50526  0.14770  Biso   1.000  Cu
  Cu22     1.0000 0.25984  0.14770  0.50526  Biso   1.000  Cu
  Cu23     1.0000 0.64770  0.75984  0.08720  Biso   1.000  Cu
  Cu24     1.0000 0.00526  0.08720  0.75984  Biso   1.000  Cu
  Cu25     1.0000 0.00526  0.14770  0.75984  Biso   1.000  Cu
  Cu26     1.0000 0.64770  0.50526  0.08720  Biso   1.000  Cu
  Cu27     1.0000 0.25984  0.08720  0.50526  Biso   1.000  Cu
  Cu28     1.0000 0.58720  0.75984  0.14770  Biso   1.000  Cu
  Cu29     1.0000 0.00526  0.75984  0.08720  Biso   1.000  Cu
  Cu30     1.0000 0.64770  0.08720  0.75984  Biso   1.000  Cu
  Cu31     1.0000 0.25984  0.50526  0.14770  Biso   1.000  Cu
  Cu32     1.0000 0.58720  0.14770  0.50526  Biso   1.000  Cu
  Cu33     1.0000 0.00526  0.08720  0.14770  Biso   1.000  Cu
  Cu34     1.0000 0.64770  0.75984  0.50526  Biso   1.000  Cu
  Cu35     1.0000 0.25984  0.14770  0.08720  Biso   1.000  Cu
  Cu36     1.0000 0.58720  0.50526  0.75984  Biso   1.000  Cu
  Cu37     1.0000 0.35230  0.49474  0.24016  Biso   1.000  Cu
  Cu38     1.0000 0.99474  0.85230  0.91280  Biso   1.000  Cu
  Cu39     1.0000 0.41280  0.24016  0.49474  Biso   1.000  Cu
  Cu40     1.0000 0.74016  0.91280  0.85230  Biso   1.000  Cu
  Cu41     1.0000 0.74016  0.49474  0.91280  Biso   1.000  Cu
  Cu42     1.0000 0.41280  0.85230  0.24016  Biso   1.000  Cu
  Cu43     1.0000 0.99474  0.24016  0.85230  Biso   1.000  Cu
  Cu44     1.0000 0.35230  0.91280  0.49474  Biso   1.000  Cu
  Cu45     1.0000 0.41280  0.49474  0.85230  Biso   1.000  Cu
  Cu46     1.0000 0.74016  0.85230  0.49474  Biso   1.000  Cu
  Cu47     1.0000 0.35230  0.24016  0.91280  Biso   1.000  Cu
  Cu48     1.0000 0.99474  0.91280  0.24016  Biso   1.000  Cu
  Cu49     1.0000 0.14011  0.64011  0.57967  Biso   1.000  Cu
  Cu50     1.0000 0.20256  0.70256  0.39232  Biso   1.000  Cu
  Cu51     1.0000 0.14011  0.64011  0.64011  Biso   1.000  Cu
  Cu52     1.0000 0.20256  0.70256  0.70256  Biso   1.000  Cu
  Cu53     1.0000 0.07967  0.64011  0.64011  Biso   1.000  Cu
  Cu54     1.0000 0.89232  0.70256  0.70256  Biso   1.000  Cu
  Cu55     1.0000 0.14011  0.57967  0.64011  Biso   1.000  Cu
  Cu56     1.0000 0.20256  0.39232  0.70256  Biso   1.000  Cu
  Cu57     1.0000 0.85989  0.35989  0.42033  Biso   1.000  Cu
  Cu58     1.0000 0.79744  0.29744  0.60768  Biso   1.000  Cu
  Cu59     1.0000 0.85989  0.35989  0.35989  Biso   1.000  Cu
  Cu60     1.0000 0.79744  0.29744  0.29744  Biso   1.000  Cu
  Cu61     1.0000 0.85989  0.42033  0.35989  Biso   1.000  Cu
  Cu62     1.0000 0.79744  0.60768  0.29744  Biso   1.000  Cu
  Cu63     1.0000 0.92033  0.35989  0.35989  Biso   1.000  Cu
  Cu64     1.0000 0.10768  0.29744  0.29744  Biso   1.000  Cu
  Cu65     1.0000 0.18281  0.74297  0.33125  Biso   1.000  Cu
  Cu66     1.0000 0.03079  0.84599  0.27723  Biso   1.000  Cu
  Cu67     1.0000 0.95569  0.87153  0.30125  Biso   1.000  Cu
  Cu68     1.0000 0.24297  0.68281  0.74297  Biso   1.000  Cu
  Cu69     1.0000 0.34599  0.53079  0.84599  Biso   1.000  Cu
  Cu70     1.0000 0.37153  0.45569  0.87153  Biso   1.000  Cu
  Cu71     1.0000 0.83125  0.74297  0.68281  Biso   1.000  Cu
  Cu72     1.0000 0.77723  0.84599  0.53079  Biso   1.000  Cu
  Cu73     1.0000 0.80125  0.87153  0.45569  Biso   1.000  Cu
  Cu74     1.0000 0.24297  0.33125  0.74297  Biso   1.000  Cu
  Cu75     1.0000 0.34599  0.27723  0.84599  Biso   1.000  Cu
  Cu76     1.0000 0.37153  0.30125  0.87153  Biso   1.000  Cu
  Cu77     1.0000 0.18281  0.33125  0.74297  Biso   1.000  Cu
  Cu78     1.0000 0.03079  0.27723  0.84599  Biso   1.000  Cu
  Cu79     1.0000 0.95569  0.30125  0.87153  Biso   1.000  Cu
  Cu80     1.0000 0.24297  0.74297  0.33125  Biso   1.000  Cu
  Cu81     1.0000 0.34599  0.84599  0.27723  Biso   1.000  Cu
  Cu82     1.0000 0.37153  0.87153  0.30125  Biso   1.000  Cu
  Cu83     1.0000 0.83125  0.68281  0.74297  Biso   1.000  Cu
  Cu84     1.0000 0.77723  0.53079  0.84599  Biso   1.000  Cu
  Cu85     1.0000 0.80125  0.45569  0.87153  Biso   1.000  Cu
  Cu86     1.0000 0.24297  0.74297  0.68281  Biso   1.000  Cu
  Cu87     1.0000 0.34599  0.84599  0.53079  Biso   1.000  Cu
  Cu88     1.0000 0.37153  0.87153  0.45569  Biso   1.000  Cu
  Cu89     1.0000 0.18281  0.74297  0.74297  Biso   1.000  Cu
  Cu90     1.0000 0.03079  0.84599  0.84599  Biso   1.000  Cu
  Cu91     1.0000 0.95569  0.87153  0.87153  Biso   1.000  Cu
  Cu92     1.0000 0.24297  0.33125  0.68281  Biso   1.000  Cu
  Cu93     1.0000 0.34599  0.27723  0.53079  Biso   1.000  Cu
  Cu94     1.0000 0.37153  0.30125  0.45569  Biso   1.000  Cu
  Cu95     1.0000 0.83125  0.74297  0.74297  Biso   1.000  Cu
  Cu96     1.0000 0.77723  0.84599  0.84599  Biso   1.000  Cu
  Cu97     1.0000 0.80125  0.87153  0.87153  Biso   1.000  Cu
  Cu98     1.0000 0.24297  0.68281  0.33125  Biso   1.000  Cu
  Cu99     1.0000 0.34599  0.53079  0.27723  Biso   1.000  Cu
  Cu100    1.0000 0.37153  0.45569  0.30125  Biso   1.000  Cu
  Cu101    1.0000 0.75703  0.31719  0.66875  Biso   1.000  Cu
  Cu102    1.0000 0.65401  0.46921  0.72277  Biso   1.000  Cu
  Cu103    1.0000 0.62847  0.54431  0.69875  Biso   1.000  Cu
  Cu104    1.0000 0.81719  0.25703  0.25703  Biso   1.000  Cu
  Cu105    1.0000 0.96921  0.15401  0.15401  Biso   1.000  Cu
  Cu106    1.0000 0.04431  0.12847  0.12847  Biso   1.000  Cu
  Cu107    1.0000 0.75703  0.66875  0.31719  Biso   1.000  Cu
  Cu108    1.0000 0.65401  0.72277  0.46921  Biso   1.000  Cu
  Cu109    1.0000 0.62847  0.69875  0.54431  Biso   1.000  Cu
  Cu110    1.0000 0.16875  0.25703  0.25703  Biso   1.000  Cu
  Cu111    1.0000 0.22277  0.15401  0.15401  Biso   1.000  Cu
  Cu112    1.0000 0.19875  0.12847  0.12847  Biso   1.000  Cu
  Cu113    1.0000 0.16875  0.31719  0.25703  Biso   1.000  Cu
  Cu114    1.0000 0.22277  0.46921  0.15401  Biso   1.000  Cu
  Cu115    1.0000 0.19875  0.54431  0.12847  Biso   1.000  Cu
  Cu116    1.0000 0.75703  0.25703  0.66875  Biso   1.000  Cu
  Cu117    1.0000 0.65401  0.15401  0.72277  Biso   1.000  Cu
  Cu118    1.0000 0.62847  0.12847  0.69875  Biso   1.000  Cu
  Cu119    1.0000 0.81719  0.66875  0.25703  Biso   1.000  Cu
  Cu120    1.0000 0.96921  0.72277  0.15401  Biso   1.000  Cu
  Cu121    1.0000 0.04431  0.69875  0.12847  Biso   1.000  Cu
  Cu122    1.0000 0.75703  0.25703  0.31719  Biso   1.000  Cu
  Cu123    1.0000 0.65401  0.15401  0.46921  Biso   1.000  Cu
  Cu124    1.0000 0.62847  0.12847  0.54431  Biso   1.000  Cu
  Cu125    1.0000 0.75703  0.31719  0.25703  Biso   1.000  Cu
  Cu126    1.0000 0.65401  0.46921  0.15401  Biso   1.000  Cu
  Cu127    1.0000 0.62847  0.54431  0.12847  Biso   1.000  Cu
  Cu128    1.0000 0.16875  0.25703  0.31719  Biso   1.000  Cu
  Cu129    1.0000 0.22277  0.15401  0.46921  Biso   1.000  Cu
  Cu130    1.0000 0.19875  0.12847  0.54431  Biso   1.000  Cu
  Cu131    1.0000 0.75703  0.66875  0.25703  Biso   1.000  Cu
  Cu132    1.0000 0.65401  0.72277  0.15401  Biso   1.000  Cu
  Cu133    1.0000 0.62847  0.69875  0.12847  Biso   1.000  Cu
  Cu134    1.0000 0.81719  0.25703  0.66875  Biso   1.000  Cu
  Cu135    1.0000 0.96921  0.15401  0.72277  Biso   1.000  Cu
  Cu136    1.0000 0.04431  0.12847  0.69875  Biso   1.000  Cu
  H1       1.0000 0.20420  0.67020  0.51200  Biso   1.000  H
  H2       1.0000 0.18920  0.72460  0.45120  Biso   1.000  H
  H3       1.0000 0.10080  0.78640  0.36140  Biso   1.000  H
  H4       1.0000 0.13790  0.82750  0.30270  Biso   1.000  H
  H5       1.0000 0.16100  0.81680  0.26620  Biso   1.000  H
  H6       1.0000 0.05220  0.78620  0.34000  Biso   1.000  H
  H7       1.0000 0.11200  0.84920  0.24860  Biso   1.000  H
  H8       1.0000 0.08900  0.85980  0.28480  Biso   1.000  H
  H9       1.0000 0.97850  0.87090  0.16970  Biso   1.000  H
  H10      1.0000 0.02190  0.85530  0.15690  Biso   1.000  H
  H11      1.0000 0.05530  0.80010  0.19530  Biso   1.000  H
  H12      1.0000 0.03310  0.77570  0.23250  Biso   1.000  H
  H13      1.0000 0.94310  0.83570  0.22630  Biso   1.000  H
  H14      1.0000 0.96350  0.79850  0.25170  Biso   1.000  H
  H15      1.0000 0.89660  0.92340  0.35000  Biso   1.000  H
  H16      1.0000 0.87460  0.92820  0.32800  Biso   1.000  H
  H17      1.0000 0.17020  0.70420  0.61360  Biso   1.000  H
  H18      1.0000 0.22460  0.68920  0.63500  Biso   1.000  H
  H19      1.0000 0.28640  0.60080  0.75140  Biso   1.000  H
  H20      1.0000 0.32750  0.63790  0.73190  Biso   1.000  H
  H21      1.0000 0.31680  0.66100  0.75600  Biso   1.000  H
  H22      1.0000 0.28620  0.55220  0.82160  Biso   1.000  H
  H23      1.0000 0.34920  0.61200  0.79020  Biso   1.000  H
  H24      1.0000 0.35980  0.58900  0.76640  Biso   1.000  H
  H25      1.0000 0.37090  0.47850  0.98090  Biso   1.000  H
  H26      1.0000 0.35530  0.52190  0.96590  Biso   1.000  H
  H27      1.0000 0.30010  0.55530  0.94930  Biso   1.000  H
  H28      1.0000 0.27570  0.53310  0.95870  Biso   1.000  H
  H29      1.0000 0.33570  0.44310  0.99490  Biso   1.000  H
  H30      1.0000 0.29850  0.46350  0.98630  Biso   1.000  H
  H31      1.0000 0.42340  0.39660  0.83000  Biso   1.000  H
  H32      1.0000 0.42820  0.37460  0.86920  Biso   1.000  H
  H33      1.0000 0.01200  0.61360  0.70420  Biso   1.000  H
  H34      1.0000 0.95120  0.63500  0.68920  Biso   1.000  H
  H35      1.0000 0.86140  0.75140  0.60080  Biso   1.000  H
  H36      1.0000 0.80270  0.73190  0.63790  Biso   1.000  H
  H37      1.0000 0.76620  0.75600  0.66100  Biso   1.000  H
  H38      1.0000 0.84000  0.82160  0.55220  Biso   1.000  H
  H39      1.0000 0.74860  0.79020  0.61200  Biso   1.000  H
  H40      1.0000 0.78480  0.76640  0.58900  Biso   1.000  H
  H41      1.0000 0.66970  0.98090  0.47850  Biso   1.000  H
  H42      1.0000 0.65690  0.96590  0.52190  Biso   1.000  H
  H43      1.0000 0.69530  0.94930  0.55530  Biso   1.000  H
  H44      1.0000 0.73250  0.95870  0.53310  Biso   1.000  H
  H45      1.0000 0.72630  0.99490  0.44310  Biso   1.000  H
  H46      1.0000 0.75170  0.98630  0.46350  Biso   1.000  H
  H47      1.0000 0.85000  0.83000  0.39660  Biso   1.000  H
  H48      1.0000 0.82800  0.86920  0.37460  Biso   1.000  H
  H49      1.0000 0.11360  0.51200  0.67020  Biso   1.000  H
  H50      1.0000 0.13500  0.45120  0.72460  Biso   1.000  H
  H51      1.0000 0.25140  0.36140  0.78640  Biso   1.000  H
  H52      1.0000 0.23190  0.30270  0.82750  Biso   1.000  H
  H53      1.0000 0.25600  0.26620  0.81680  Biso   1.000  H
  H54      1.0000 0.32160  0.34000  0.78620  Biso   1.000  H
  H55      1.0000 0.29020  0.24860  0.84920  Biso   1.000  H
  H56      1.0000 0.26640  0.28480  0.85980  Biso   1.000  H
  H57      1.0000 0.48090  0.16970  0.87090  Biso   1.000  H
  H58      1.0000 0.46590  0.15690  0.85530  Biso   1.000  H
  H59      1.0000 0.44930  0.19530  0.80010  Biso   1.000  H
  H60      1.0000 0.45870  0.23250  0.77570  Biso   1.000  H
  H61      1.0000 0.49490  0.22630  0.83570  Biso   1.000  H
  H62      1.0000 0.48630  0.25170  0.79850  Biso   1.000  H
  H63      1.0000 0.33000  0.35000  0.92340  Biso   1.000  H
  H64      1.0000 0.36920  0.32800  0.92820  Biso   1.000  H
  H65      1.0000 0.20420  0.51200  0.61360  Biso   1.000  H
  H66      1.0000 0.18920  0.45120  0.63500  Biso   1.000  H
  H67      1.0000 0.10080  0.36140  0.75140  Biso   1.000  H
  H68      1.0000 0.13790  0.30270  0.73190  Biso   1.000  H
  H69      1.0000 0.16100  0.26620  0.75600  Biso   1.000  H
  H70      1.0000 0.05220  0.34000  0.82160  Biso   1.000  H
  H71      1.0000 0.11200  0.24860  0.79020  Biso   1.000  H
  H72      1.0000 0.08900  0.28480  0.76640  Biso   1.000  H
  H73      1.0000 0.97850  0.16970  0.98090  Biso   1.000  H
  H74      1.0000 0.02190  0.15690  0.96590  Biso   1.000  H
  H75      1.0000 0.05530  0.19530  0.94930  Biso   1.000  H
  H76      1.0000 0.03310  0.23250  0.95870  Biso   1.000  H
  H77      1.0000 0.94310  0.22630  0.99490  Biso   1.000  H
  H78      1.0000 0.96350  0.25170  0.98630  Biso   1.000  H
  H79      1.0000 0.89660  0.35000  0.83000  Biso   1.000  H
  H80      1.0000 0.87460  0.32800  0.86920  Biso   1.000  H
  H81      1.0000 0.17020  0.61360  0.51200  Biso   1.000  H
  H82      1.0000 0.22460  0.63500  0.45120  Biso   1.000  H
  H83      1.0000 0.28640  0.75140  0.36140  Biso   1.000  H
  H84      1.0000 0.32750  0.73190  0.30270  Biso   1.000  H
  H85      1.0000 0.31680  0.75600  0.26620  Biso   1.000  H
  H86      1.0000 0.28620  0.82160  0.34000  Biso   1.000  H
  H87      1.0000 0.34920  0.79020  0.24860  Biso   1.000  H
  H88      1.0000 0.35980  0.76640  0.28480  Biso   1.000  H
  H89      1.0000 0.37090  0.98090  0.16970  Biso   1.000  H
  H90      1.0000 0.35530  0.96590  0.15690  Biso   1.000  H
  H91      1.0000 0.30010  0.94930  0.19530  Biso   1.000  H
  H92      1.0000 0.27570  0.95870  0.23250  Biso   1.000  H
  H93      1.0000 0.33570  0.99490  0.22630  Biso   1.000  H
  H94      1.0000 0.29850  0.98630  0.25170  Biso   1.000  H
  H95      1.0000 0.42340  0.83000  0.35000  Biso   1.000  H
  H96      1.0000 0.42820  0.86920  0.32800  Biso   1.000  H
  H97      1.0000 0.01200  0.70420  0.67020  Biso   1.000  H
  H98      1.0000 0.95120  0.68920  0.72460  Biso   1.000  H
  H99      1.0000 0.86140  0.60080  0.78640  Biso   1.000  H
  H100     1.0000 0.80270  0.63790  0.82750  Biso   1.000  H
  H101     1.0000 0.76620  0.66100  0.81680  Biso   1.000  H
  H102     1.0000 0.84000  0.55220  0.78620  Biso   1.000  H
  H103     1.0000 0.74860  0.61200  0.84920  Biso   1.000  H
  H104     1.0000 0.78480  0.58900  0.85980  Biso   1.000  H
  H105     1.0000 0.66970  0.47850  0.87090  Biso   1.000  H
  H106     1.0000 0.65690  0.52190  0.85530  Biso   1.000  H
  H107     1.0000 0.69530  0.55530  0.80010  Biso   1.000  H
  H108     1.0000 0.73250  0.53310  0.77570  Biso   1.000  H
  H109     1.0000 0.72630  0.44310  0.83570  Biso   1.000  H
  H110     1.0000 0.75170  0.46350  0.79850  Biso   1.000  H
  H111     1.0000 0.85000  0.39660  0.92340  Biso   1.000  H
  H112     1.0000 0.82800  0.37460  0.92820  Biso   1.000  H
  H113     1.0000 0.11360  0.67020  0.70420  Biso   1.000  H
  H114     1.0000 0.13500  0.72460  0.68920  Biso   1.000  H
  H115     1.0000 0.25140  0.78640  0.60080  Biso   1.000  H
  H116     1.0000 0.23190  0.82750  0.63790  Biso   1.000  H
  H117     1.0000 0.25600  0.81680  0.66100  Biso   1.000  H
  H118     1.0000 0.32160  0.78620  0.55220  Biso   1.000  H
  H119     1.0000 0.29020  0.84920  0.61200  Biso   1.000  H
  H120     1.0000 0.26640  0.85980  0.58900  Biso   1.000  H
  H121     1.0000 0.48090  0.87090  0.47850  Biso   1.000  H
  H122     1.0000 0.46590  0.85530  0.52190  Biso   1.000  H
  H123     1.0000 0.44930  0.80010  0.55530  Biso   1.000  H
  H124     1.0000 0.45870  0.77570  0.53310  Biso   1.000  H
  H125     1.0000 0.49490  0.83570  0.44310  Biso   1.000  H
  H126     1.0000 0.48630  0.79850  0.46350  Biso   1.000  H
  H127     1.0000 0.33000  0.92340  0.39660  Biso   1.000  H
  H128     1.0000 0.36920  0.92820  0.37460  Biso   1.000  H
  H129     1.0000 0.20420  0.61360  0.67020  Biso   1.000  H
  H130     1.0000 0.18920  0.63500  0.72460  Biso   1.000  H
  H131     1.0000 0.10080  0.75140  0.78640  Biso   1.000  H
  H132     1.0000 0.13790  0.73190  0.82750  Biso   1.000  H
  H133     1.0000 0.16100  0.75600  0.81680  Biso   1.000  H
  H134     1.0000 0.05220  0.82160  0.78620  Biso   1.000  H
  H135     1.0000 0.11200  0.79020  0.84920  Biso   1.000  H
  H136     1.0000 0.08900  0.76640  0.85980  Biso   1.000  H
  H137     1.0000 0.97850  0.98090  0.87090  Biso   1.000  H
  H138     1.0000 0.02190  0.96590  0.85530  Biso   1.000  H
  H139     1.0000 0.05530  0.94930  0.80010  Biso   1.000  H
  H140     1.0000 0.03310  0.95870  0.77570  Biso   1.000  H
  H141     1.0000 0.94310  0.99490  0.83570  Biso   1.000  H
  H142     1.0000 0.96350  0.98630  0.79850  Biso   1.000  H
  H143     1.0000 0.89660  0.83000  0.92340  Biso   1.000  H
  H144     1.0000 0.87460  0.86920  0.92820  Biso   1.000  H
  H145     1.0000 0.17020  0.51200  0.70420  Biso   1.000  H
  H146     1.0000 0.22460  0.45120  0.68920  Biso   1.000  H
  H147     1.0000 0.28640  0.36140  0.60080  Biso   1.000  H
  H148     1.0000 0.32750  0.30270  0.63790  Biso   1.000  H
  H149     1.0000 0.31680  0.26620  0.66100  Biso   1.000  H
  H150     1.0000 0.28620  0.34000  0.55220  Biso   1.000  H
  H151     1.0000 0.34920  0.24860  0.61200  Biso   1.000  H
  H152     1.0000 0.35980  0.28480  0.58900  Biso   1.000  H
  H153     1.0000 0.37090  0.16970  0.47850  Biso   1.000  H
  H154     1.0000 0.35530  0.15690  0.52190  Biso   1.000  H
  H155     1.0000 0.30010  0.19530  0.55530  Biso   1.000  H
  H156     1.0000 0.27570  0.23250  0.53310  Biso   1.000  H
  H157     1.0000 0.33570  0.22630  0.44310  Biso   1.000  H
  H158     1.0000 0.29850  0.25170  0.46350  Biso   1.000  H
  H159     1.0000 0.42340  0.35000  0.39660  Biso   1.000  H
  H160     1.0000 0.42820  0.32800  0.37460  Biso   1.000  H
  H161     1.0000 0.01200  0.67020  0.61360  Biso   1.000  H
  H162     1.0000 0.95120  0.72460  0.63500  Biso   1.000  H
  H163     1.0000 0.86140  0.78640  0.75140  Biso   1.000  H
  H164     1.0000 0.80270  0.82750  0.73190  Biso   1.000  H
  H165     1.0000 0.76620  0.81680  0.75600  Biso   1.000  H
  H166     1.0000 0.84000  0.78620  0.82160  Biso   1.000  H
  H167     1.0000 0.74860  0.84920  0.79020  Biso   1.000  H
  H168     1.0000 0.78480  0.85980  0.76640  Biso   1.000  H
  H169     1.0000 0.66970  0.87090  0.98090  Biso   1.000  H
  H170     1.0000 0.65690  0.85530  0.96590  Biso   1.000  H
  H171     1.0000 0.69530  0.80010  0.94930  Biso   1.000  H
  H172     1.0000 0.73250  0.77570  0.95870  Biso   1.000  H
  H173     1.0000 0.72630  0.83570  0.99490  Biso   1.000  H
  H174     1.0000 0.75170  0.79850  0.98630  Biso   1.000  H
  H175     1.0000 0.85000  0.92340  0.83000  Biso   1.000  H
  H176     1.0000 0.82800  0.92820  0.86920  Biso   1.000  H
  H177     1.0000 0.11360  0.70420  0.51200  Biso   1.000  H
  H178     1.0000 0.13500  0.68920  0.45120  Biso   1.000  H
  H179     1.0000 0.25140  0.60080  0.36140  Biso   1.000  H
  H180     1.0000 0.23190  0.63790  0.30270  Biso   1.000  H
  H181     1.0000 0.25600  0.66100  0.26620  Biso   1.000  H
  H182     1.0000 0.32160  0.55220  0.34000  Biso   1.000  H
  H183     1.0000 0.29020  0.61200  0.24860  Biso   1.000  H
  H184     1.0000 0.26640  0.58900  0.28480  Biso   1.000  H
  H185     1.0000 0.48090  0.47850  0.16970  Biso   1.000  H
  H186     1.0000 0.46590  0.52190  0.15690  Biso   1.000  H
  H187     1.0000 0.44930  0.55530  0.19530  Biso   1.000  H
  H188     1.0000 0.45870  0.53310  0.23250  Biso   1.000  H
  H189     1.0000 0.49490  0.44310  0.22630  Biso   1.000  H
  H190     1.0000 0.48630  0.46350  0.25170  Biso   1.000  H
  H191     1.0000 0.33000  0.39660  0.35000  Biso   1.000  H
  H192     1.0000 0.36920  0.37460  0.32800  Biso   1.000  H
  H193     1.0000 0.82980  0.29580  0.48800  Biso   1.000  H
  H194     1.0000 0.77540  0.31080  0.54880  Biso   1.000  H
  H195     1.0000 0.71360  0.39920  0.63860  Biso   1.000  H
  H196     1.0000 0.67250  0.36210  0.69730  Biso   1.000  H
  H197     1.0000 0.68320  0.33900  0.73380  Biso   1.000  H
  H198     1.0000 0.71380  0.44780  0.66000  Biso   1.000  H
  H199     1.0000 0.65080  0.38800  0.75140  Biso   1.000  H
  H200     1.0000 0.64020  0.41100  0.71520  Biso   1.000  H
  H201     1.0000 0.62910  0.52150  0.83030  Biso   1.000  H
  H202     1.0000 0.64470  0.47810  0.84310  Biso   1.000  H
  H203     1.0000 0.69990  0.44470  0.80470  Biso   1.000  H
  H204     1.0000 0.72430  0.46690  0.76750  Biso   1.000  H
  H205     1.0000 0.66430  0.55690  0.77370  Biso   1.000  H
  H206     1.0000 0.70150  0.53650  0.74830  Biso   1.000  H
  H207     1.0000 0.57660  0.60340  0.65000  Biso   1.000  H
  H208     1.0000 0.57180  0.62540  0.67200  Biso   1.000  H
  H209     1.0000 0.79580  0.32980  0.38640  Biso   1.000  H
  H210     1.0000 0.81080  0.27540  0.36500  Biso   1.000  H
  H211     1.0000 0.89920  0.21360  0.24860  Biso   1.000  H
  H212     1.0000 0.86210  0.17250  0.26810  Biso   1.000  H
  H213     1.0000 0.83900  0.18320  0.24400  Biso   1.000  H
  H214     1.0000 0.94780  0.21380  0.17840  Biso   1.000  H
  H215     1.0000 0.88800  0.15080  0.20980  Biso   1.000  H
  H216     1.0000 0.91100  0.14020  0.23360  Biso   1.000  H
  H217     1.0000 0.02150  0.12910  0.01910  Biso   1.000  H
  H218     1.0000 0.97810  0.14470  0.03410  Biso   1.000  H
  H219     1.0000 0.94470  0.19990  0.05070  Biso   1.000  H
  H220     1.0000 0.96690  0.22430  0.04130  Biso   1.000  H
  H221     1.0000 0.05690  0.16430  0.00510  Biso   1.000  H
  H222     1.0000 0.03650  0.20150  0.01370  Biso   1.000  H
  H223     1.0000 0.10340  0.07660  0.17000  Biso   1.000  H
  H224     1.0000 0.12540  0.07180  0.13080  Biso   1.000  H
  H225     1.0000 0.88640  0.48800  0.29580  Biso   1.000  H
  H226     1.0000 0.86500  0.54880  0.31080  Biso   1.000  H
  H227     1.0000 0.74860  0.63860  0.39920  Biso   1.000  H
  H228     1.0000 0.76810  0.69730  0.36210  Biso   1.000  H
  H229     1.0000 0.74400  0.73380  0.33900  Biso   1.000  H
  H230     1.0000 0.67840  0.66000  0.44780  Biso   1.000  H
  H231     1.0000 0.70980  0.75140  0.38800  Biso   1.000  H
  H232     1.0000 0.73360  0.71520  0.41100  Biso   1.000  H
  H233     1.0000 0.51910  0.83030  0.52150  Biso   1.000  H
  H234     1.0000 0.53410  0.84310  0.47810  Biso   1.000  H
  H235     1.0000 0.55070  0.80470  0.44470  Biso   1.000  H
  H236     1.0000 0.54130  0.76750  0.46690  Biso   1.000  H
  H237     1.0000 0.50510  0.77370  0.55690  Biso   1.000  H
  H238     1.0000 0.51370  0.74830  0.53650  Biso   1.000  H
  H239     1.0000 0.67000  0.65000  0.60340  Biso   1.000  H
  H240     1.0000 0.63080  0.67200  0.62540  Biso   1.000  H
  H241     1.0000 0.98800  0.38640  0.32980  Biso   1.000  H
  H242     1.0000 0.04880  0.36500  0.27540  Biso   1.000  H
  H243     1.0000 0.13860  0.24860  0.21360  Biso   1.000  H
  H244     1.0000 0.19730  0.26810  0.17250  Biso   1.000  H
  H245     1.0000 0.23380  0.24400  0.18320  Biso   1.000  H
  H246     1.0000 0.16000  0.17840  0.21380  Biso   1.000  H
  H247     1.0000 0.25140  0.20980  0.15080  Biso   1.000  H
  H248     1.0000 0.21520  0.23360  0.14020  Biso   1.000  H
  H249     1.0000 0.33030  0.01910  0.12910  Biso   1.000  H
  H250     1.0000 0.34310  0.03410  0.14470  Biso   1.000  H
  H251     1.0000 0.30470  0.05070  0.19990  Biso   1.000  H
  H252     1.0000 0.26750  0.04130  0.22430  Biso   1.000  H
  H253     1.0000 0.27370  0.00510  0.16430  Biso   1.000  H
  H254     1.0000 0.24830  0.01370  0.20150  Biso   1.000  H
  H255     1.0000 0.15000  0.17000  0.07660  Biso   1.000  H
  H256     1.0000 0.17200  0.13080  0.07180  Biso   1.000  H
  H257     1.0000 0.98800  0.29580  0.38640  Biso   1.000  H
  H258     1.0000 0.04880  0.31080  0.36500  Biso   1.000  H
  H259     1.0000 0.13860  0.39920  0.24860  Biso   1.000  H
  H260     1.0000 0.19730  0.36210  0.26810  Biso   1.000  H
  H261     1.0000 0.23380  0.33900  0.24400  Biso   1.000  H
  H262     1.0000 0.16000  0.44780  0.17840  Biso   1.000  H
  H263     1.0000 0.25140  0.38800  0.20980  Biso   1.000  H
  H264     1.0000 0.21520  0.41100  0.23360  Biso   1.000  H
  H265     1.0000 0.33030  0.52150  0.01910  Biso   1.000  H
  H266     1.0000 0.34310  0.47810  0.03410  Biso   1.000  H
  H267     1.0000 0.30470  0.44470  0.05070  Biso   1.000  H
  H268     1.0000 0.26750  0.46690  0.04130  Biso   1.000  H
  H269     1.0000 0.27370  0.55690  0.00510  Biso   1.000  H
  H270     1.0000 0.24830  0.53650  0.01370  Biso   1.000  H
  H271     1.0000 0.15000  0.60340  0.17000  Biso   1.000  H
  H272     1.0000 0.17200  0.62540  0.13080  Biso   1.000  H
  H273     1.0000 0.88640  0.32980  0.48800  Biso   1.000  H
  H274     1.0000 0.86500  0.27540  0.54880  Biso   1.000  H
  H275     1.0000 0.74860  0.21360  0.63860  Biso   1.000  H
  H276     1.0000 0.76810  0.17250  0.69730  Biso   1.000  H
  H277     1.0000 0.74400  0.18320  0.73380  Biso   1.000  H
  H278     1.0000 0.67840  0.21380  0.66000  Biso   1.000  H
  H279     1.0000 0.70980  0.15080  0.75140  Biso   1.000  H
  H280     1.0000 0.73360  0.14020  0.71520  Biso   1.000  H
  H281     1.0000 0.51910  0.12910  0.83030  Biso   1.000  H
  H282     1.0000 0.53410  0.14470  0.84310  Biso   1.000  H
  H283     1.0000 0.55070  0.19990  0.80470  Biso   1.000  H
  H284     1.0000 0.54130  0.22430  0.76750  Biso   1.000  H
  H285     1.0000 0.50510  0.16430  0.77370  Biso   1.000  H
  H286     1.0000 0.51370  0.20150  0.74830  Biso   1.000  H
  H287     1.0000 0.67000  0.07660  0.65000  Biso   1.000  H
  H288     1.0000 0.63080  0.07180  0.67200  Biso   1.000  H
  H289     1.0000 0.79580  0.48800  0.32980  Biso   1.000  H
  H290     1.0000 0.81080  0.54880  0.27540  Biso   1.000  H
  H291     1.0000 0.89920  0.63860  0.21360  Biso   1.000  H
  H292     1.0000 0.86210  0.69730  0.17250  Biso   1.000  H
  H293     1.0000 0.83900  0.73380  0.18320  Biso   1.000  H
  H294     1.0000 0.94780  0.66000  0.21380  Biso   1.000  H
  H295     1.0000 0.88800  0.75140  0.15080  Biso   1.000  H
  H296     1.0000 0.91100  0.71520  0.14020  Biso   1.000  H
  H297     1.0000 0.02150  0.83030  0.12910  Biso   1.000  H
  H298     1.0000 0.97810  0.84310  0.14470  Biso   1.000  H
  H299     1.0000 0.94470  0.80470  0.19990  Biso   1.000  H
  H300     1.0000 0.96690  0.76750  0.22430  Biso   1.000  H
  H301     1.0000 0.05690  0.77370  0.16430  Biso   1.000  H
  H302     1.0000 0.03650  0.74830  0.20150  Biso   1.000  H
  H303     1.0000 0.10340  0.65000  0.07660  Biso   1.000  H
  H304     1.0000 0.12540  0.67200  0.07180  Biso   1.000  H
  H305     1.0000 0.82980  0.38640  0.29580  Biso   1.000  H
  H306     1.0000 0.77540  0.36500  0.31080  Biso   1.000  H
  H307     1.0000 0.71360  0.24860  0.39920  Biso   1.000  H
  H308     1.0000 0.67250  0.26810  0.36210  Biso   1.000  H
  H309     1.0000 0.68320  0.24400  0.33900  Biso   1.000  H
  H310     1.0000 0.71380  0.17840  0.44780  Biso   1.000  H
  H311     1.0000 0.65080  0.20980  0.38800  Biso   1.000  H
  H312     1.0000 0.64020  0.23360  0.41100  Biso   1.000  H
  H313     1.0000 0.62910  0.01910  0.52150  Biso   1.000  H
  H314     1.0000 0.64470  0.03410  0.47810  Biso   1.000  H
  H315     1.0000 0.69990  0.05070  0.44470  Biso   1.000  H
  H316     1.0000 0.72430  0.04130  0.46690  Biso   1.000  H
  H317     1.0000 0.66430  0.00510  0.55690  Biso   1.000  H
  H318     1.0000 0.70150  0.01370  0.53650  Biso   1.000  H
  H319     1.0000 0.57660  0.17000  0.60340  Biso   1.000  H
  H320     1.0000 0.57180  0.13080  0.62540  Biso   1.000  H
  H321     1.0000 0.88640  0.29580  0.32980  Biso   1.000  H
  H322     1.0000 0.86500  0.31080  0.27540  Biso   1.000  H
  H323     1.0000 0.74860  0.39920  0.21360  Biso   1.000  H
  H324     1.0000 0.76810  0.36210  0.17250  Biso   1.000  H
  H325     1.0000 0.74400  0.33900  0.18320  Biso   1.000  H
  H326     1.0000 0.67840  0.44780  0.21380  Biso   1.000  H
  H327     1.0000 0.70980  0.38800  0.15080  Biso   1.000  H
  H328     1.0000 0.73360  0.41100  0.14020  Biso   1.000  H
  H329     1.0000 0.51910  0.52150  0.12910  Biso   1.000  H
  H330     1.0000 0.53410  0.47810  0.14470  Biso   1.000  H
  H331     1.0000 0.55070  0.44470  0.19990  Biso   1.000  H
  H332     1.0000 0.54130  0.46690  0.22430  Biso   1.000  H
  H333     1.0000 0.50510  0.55690  0.16430  Biso   1.000  H
  H334     1.0000 0.51370  0.53650  0.20150  Biso   1.000  H
  H335     1.0000 0.67000  0.60340  0.07660  Biso   1.000  H
  H336     1.0000 0.63080  0.62540  0.07180  Biso   1.000  H
  H337     1.0000 0.98800  0.32980  0.29580  Biso   1.000  H
  H338     1.0000 0.04880  0.27540  0.31080  Biso   1.000  H
  H339     1.0000 0.13860  0.21360  0.39920  Biso   1.000  H
  H340     1.0000 0.19730  0.17250  0.36210  Biso   1.000  H
  H341     1.0000 0.23380  0.18320  0.33900  Biso   1.000  H
  H342     1.0000 0.16000  0.21380  0.44780  Biso   1.000  H
  H343     1.0000 0.25140  0.15080  0.38800  Biso   1.000  H
  H344     1.0000 0.21520  0.14020  0.41100  Biso   1.000  H
  H345     1.0000 0.33030  0.12910  0.52150  Biso   1.000  H
  H346     1.0000 0.34310  0.14470  0.47810  Biso   1.000  H
  H347     1.0000 0.30470  0.19990  0.44470  Biso   1.000  H
  H348     1.0000 0.26750  0.22430  0.46690  Biso   1.000  H
  H349     1.0000 0.27370  0.16430  0.55690  Biso   1.000  H
  H350     1.0000 0.24830  0.20150  0.53650  Biso   1.000  H
  H351     1.0000 0.15000  0.07660  0.60340  Biso   1.000  H
  H352     1.0000 0.17200  0.07180  0.62540  Biso   1.000  H
  H353     1.0000 0.82980  0.48800  0.38640  Biso   1.000  H
  H354     1.0000 0.77540  0.54880  0.36500  Biso   1.000  H
  H355     1.0000 0.71360  0.63860  0.24860  Biso   1.000  H
  H356     1.0000 0.67250  0.69730  0.26810  Biso   1.000  H
  H357     1.0000 0.68320  0.73380  0.24400  Biso   1.000  H
  H358     1.0000 0.71380  0.66000  0.17840  Biso   1.000  H
  H359     1.0000 0.65080  0.75140  0.20980  Biso   1.000  H
  H360     1.0000 0.64020  0.71520  0.23360  Biso   1.000  H
  H361     1.0000 0.62910  0.83030  0.01910  Biso   1.000  H
  H362     1.0000 0.64470  0.84310  0.03410  Biso   1.000  H
  H363     1.0000 0.69990  0.80470  0.05070  Biso   1.000  H
  H364     1.0000 0.72430  0.76750  0.04130  Biso   1.000  H
  H365     1.0000 0.66430  0.77370  0.00510  Biso   1.000  H
  H366     1.0000 0.70150  0.74830  0.01370  Biso   1.000  H
  H367     1.0000 0.57660  0.65000  0.17000  Biso   1.000  H
  H368     1.0000 0.57180  0.67200  0.13080  Biso   1.000  H
  H369     1.0000 0.79580  0.38640  0.48800  Biso   1.000  H
  H370     1.0000 0.81080  0.36500  0.54880  Biso   1.000  H
  H371     1.0000 0.89920  0.24860  0.63860  Biso   1.000  H
  H372     1.0000 0.86210  0.26810  0.69730  Biso   1.000  H
  H373     1.0000 0.83900  0.24400  0.73380  Biso   1.000  H
  H374     1.0000 0.94780  0.17840  0.66000  Biso   1.000  H
  H375     1.0000 0.88800  0.20980  0.75140  Biso   1.000  H
  H376     1.0000 0.91100  0.23360  0.71520  Biso   1.000  H
  H377     1.0000 0.02150  0.01910  0.83030  Biso   1.000  H
  H378     1.0000 0.97810  0.03410  0.84310  Biso   1.000  H
  H379     1.0000 0.94470  0.05070  0.80470  Biso   1.000  H
  H380     1.0000 0.96690  0.04130  0.76750  Biso   1.000  H
  H381     1.0000 0.05690  0.00510  0.77370  Biso   1.000  H
  H382     1.0000 0.03650  0.01370  0.74830  Biso   1.000  H
  H383     1.0000 0.10340  0.17000  0.65000  Biso   1.000  H
  H384     1.0000 0.12540  0.13080  0.67200  Biso   1.000  H
  H385     1.0000 0.79580  0.32980  0.48800  Biso   1.000  H
  H386     1.0000 0.81080  0.27540  0.54880  Biso   1.000  H
  H387     1.0000 0.89920  0.21360  0.63860  Biso   1.000  H
  H388     1.0000 0.86210  0.17250  0.69730  Biso   1.000  H
  H389     1.0000 0.83900  0.18320  0.73380  Biso   1.000  H
  H390     1.0000 0.94780  0.21380  0.66000  Biso   1.000  H
  H391     1.0000 0.88800  0.15080  0.75140  Biso   1.000  H
  H392     1.0000 0.91100  0.14020  0.71520  Biso   1.000  H
  H393     1.0000 0.02150  0.12910  0.83030  Biso   1.000  H
  H394     1.0000 0.97810  0.14470  0.84310  Biso   1.000  H
  H395     1.0000 0.94470  0.19990  0.80470  Biso   1.000  H
  H396     1.0000 0.96690  0.22430  0.76750  Biso   1.000  H
  H397     1.0000 0.05690  0.16430  0.77370  Biso   1.000  H
  H398     1.0000 0.03650  0.20150  0.74830  Biso   1.000  H
  H399     1.0000 0.10340  0.07660  0.65000  Biso   1.000  H
  H400     1.0000 0.12540  0.07180  0.67200  Biso   1.000  H
  H401     1.0000 0.82980  0.29580  0.38640  Biso   1.000  H
  H402     1.0000 0.77540  0.31080  0.36500  Biso   1.000  H
  H403     1.0000 0.71360  0.39920  0.24860  Biso   1.000  H
  H404     1.0000 0.67250  0.36210  0.26810  Biso   1.000  H
  H405     1.0000 0.68320  0.33900  0.24400  Biso   1.000  H
  H406     1.0000 0.71380  0.44780  0.17840  Biso   1.000  H
  H407     1.0000 0.65080  0.38800  0.20980  Biso   1.000  H
  H408     1.0000 0.64020  0.41100  0.23360  Biso   1.000  H
  H409     1.0000 0.62910  0.52150  0.01910  Biso   1.000  H
  H410     1.0000 0.64470  0.47810  0.03410  Biso   1.000  H
  H411     1.0000 0.69990  0.44470  0.05070  Biso   1.000  H
  H412     1.0000 0.72430  0.46690  0.04130  Biso   1.000  H
  H413     1.0000 0.66430  0.55690  0.00510  Biso   1.000  H
  H414     1.0000 0.70150  0.53650  0.01370  Biso   1.000  H
  H415     1.0000 0.57660  0.60340  0.17000  Biso   1.000  H
  H416     1.0000 0.57180  0.62540  0.13080  Biso   1.000  H
  H417     1.0000 0.98800  0.38640  0.29580  Biso   1.000  H
  H418     1.0000 0.04880  0.36500  0.31080  Biso   1.000  H
  H419     1.0000 0.13860  0.24860  0.39920  Biso   1.000  H
  H420     1.0000 0.19730  0.26810  0.36210  Biso   1.000  H
  H421     1.0000 0.23380  0.24400  0.33900  Biso   1.000  H
  H422     1.0000 0.16000  0.17840  0.44780  Biso   1.000  H
  H423     1.0000 0.25140  0.20980  0.38800  Biso   1.000  H
  H424     1.0000 0.21520  0.23360  0.41100  Biso   1.000  H
  H425     1.0000 0.33030  0.01910  0.52150  Biso   1.000  H
  H426     1.0000 0.34310  0.03410  0.47810  Biso   1.000  H
  H427     1.0000 0.30470  0.05070  0.44470  Biso   1.000  H
  H428     1.0000 0.26750  0.04130  0.46690  Biso   1.000  H
  H429     1.0000 0.27370  0.00510  0.55690  Biso   1.000  H
  H430     1.0000 0.24830  0.01370  0.53650  Biso   1.000  H
  H431     1.0000 0.15000  0.17000  0.60340  Biso   1.000  H
  H432     1.0000 0.17200  0.13080  0.62540  Biso   1.000  H
  H433     1.0000 0.88640  0.48800  0.32980  Biso   1.000  H
  H434     1.0000 0.86500  0.54880  0.27540  Biso   1.000  H
  H435     1.0000 0.74860  0.63860  0.21360  Biso   1.000  H
  H436     1.0000 0.76810  0.69730  0.17250  Biso   1.000  H
  H437     1.0000 0.74400  0.73380  0.18320  Biso   1.000  H
  H438     1.0000 0.67840  0.66000  0.21380  Biso   1.000  H
  H439     1.0000 0.70980  0.75140  0.15080  Biso   1.000  H
  H440     1.0000 0.73360  0.71520  0.14020  Biso   1.000  H
  H441     1.0000 0.51910  0.83030  0.12910  Biso   1.000  H
  H442     1.0000 0.53410  0.84310  0.14470  Biso   1.000  H
  H443     1.0000 0.55070  0.80470  0.19990  Biso   1.000  H
  H444     1.0000 0.54130  0.76750  0.22430  Biso   1.000  H
  H445     1.0000 0.50510  0.77370  0.16430  Biso   1.000  H
  H446     1.0000 0.51370  0.74830  0.20150  Biso   1.000  H
  H447     1.0000 0.67000  0.65000  0.07660  Biso   1.000  H
  H448     1.0000 0.63080  0.67200  0.07180  Biso   1.000  H
  H449     1.0000 0.79580  0.48800  0.38640  Biso   1.000  H
  H450     1.0000 0.81080  0.54880  0.36500  Biso   1.000  H
  H451     1.0000 0.89920  0.63860  0.24860  Biso   1.000  H
  H452     1.0000 0.86210  0.69730  0.26810  Biso   1.000  H
  H453     1.0000 0.83900  0.73380  0.24400  Biso   1.000  H
  H454     1.0000 0.94780  0.66000  0.17840  Biso   1.000  H
  H455     1.0000 0.88800  0.75140  0.20980  Biso   1.000  H
  H456     1.0000 0.91100  0.71520  0.23360  Biso   1.000  H
  H457     1.0000 0.02150  0.83030  0.01910  Biso   1.000  H
  H458     1.0000 0.97810  0.84310  0.03410  Biso   1.000  H
  H459     1.0000 0.94470  0.80470  0.05070  Biso   1.000  H
  H460     1.0000 0.96690  0.76750  0.04130  Biso   1.000  H
  H461     1.0000 0.05690  0.77370  0.00510  Biso   1.000  H
  H462     1.0000 0.03650  0.74830  0.01370  Biso   1.000  H
  H463     1.0000 0.10340  0.65000  0.17000  Biso   1.000  H
  H464     1.0000 0.12540  0.67200  0.13080  Biso   1.000  H
  H465     1.0000 0.82980  0.38640  0.48800  Biso   1.000  H
  H466     1.0000 0.77540  0.36500  0.54880  Biso   1.000  H
  H467     1.0000 0.71360  0.24860  0.63860  Biso   1.000  H
  H468     1.0000 0.67250  0.26810  0.69730  Biso   1.000  H
  H469     1.0000 0.68320  0.24400  0.73380  Biso   1.000  H
  H470     1.0000 0.71380  0.17840  0.66000  Biso   1.000  H
  H471     1.0000 0.65080  0.20980  0.75140  Biso   1.000  H
  H472     1.0000 0.64020  0.23360  0.71520  Biso   1.000  H
  H473     1.0000 0.62910  0.01910  0.83030  Biso   1.000  H
  H474     1.0000 0.64470  0.03410  0.84310  Biso   1.000  H
  H475     1.0000 0.69990  0.05070  0.80470  Biso   1.000  H
  H476     1.0000 0.72430  0.04130  0.76750  Biso   1.000  H
  H477     1.0000 0.66430  0.00510  0.77370  Biso   1.000  H
  H478     1.0000 0.70150  0.01370  0.74830  Biso   1.000  H
  H479     1.0000 0.57660  0.17000  0.65000  Biso   1.000  H
  H480     1.0000 0.57180  0.13080  0.67200  Biso   1.000  H
  H481     1.0000 0.98800  0.29580  0.32980  Biso   1.000  H
  H482     1.0000 0.04880  0.31080  0.27540  Biso   1.000  H
  H483     1.0000 0.13860  0.39920  0.21360  Biso   1.000  H
  H484     1.0000 0.19730  0.36210  0.17250  Biso   1.000  H
  H485     1.0000 0.23380  0.33900  0.18320  Biso   1.000  H
  H486     1.0000 0.16000  0.44780  0.21380  Biso   1.000  H
  H487     1.0000 0.25140  0.38800  0.15080  Biso   1.000  H
  H488     1.0000 0.21520  0.41100  0.14020  Biso   1.000  H
  H489     1.0000 0.33030  0.52150  0.12910  Biso   1.000  H
  H490     1.0000 0.34310  0.47810  0.14470  Biso   1.000  H
  H491     1.0000 0.30470  0.44470  0.19990  Biso   1.000  H
  H492     1.0000 0.26750  0.46690  0.22430  Biso   1.000  H
  H493     1.0000 0.27370  0.55690  0.16430  Biso   1.000  H
  H494     1.0000 0.24830  0.53650  0.20150  Biso   1.000  H
  H495     1.0000 0.15000  0.60340  0.07660  Biso   1.000  H
  H496     1.0000 0.17200  0.62540  0.07180  Biso   1.000  H
  H497     1.0000 0.88640  0.32980  0.29580  Biso   1.000  H
  H498     1.0000 0.86500  0.27540  0.31080  Biso   1.000  H
  H499     1.0000 0.74860  0.21360  0.39920  Biso   1.000  H
  H500     1.0000 0.76810  0.17250  0.36210  Biso   1.000  H
  H501     1.0000 0.74400  0.18320  0.33900  Biso   1.000  H
  H502     1.0000 0.67840  0.21380  0.44780  Biso   1.000  H
  H503     1.0000 0.70980  0.15080  0.38800  Biso   1.000  H
  H504     1.0000 0.73360  0.14020  0.41100  Biso   1.000  H
  H505     1.0000 0.51910  0.12910  0.52150  Biso   1.000  H
  H506     1.0000 0.53410  0.14470  0.47810  Biso   1.000  H
  H507     1.0000 0.55070  0.19990  0.44470  Biso   1.000  H
  H508     1.0000 0.54130  0.22430  0.46690  Biso   1.000  H
  H509     1.0000 0.50510  0.16430  0.55690  Biso   1.000  H
  H510     1.0000 0.51370  0.20150  0.53650  Biso   1.000  H
  H511     1.0000 0.67000  0.07660  0.60340  Biso   1.000  H
  H512     1.0000 0.63080  0.07180  0.62540  Biso   1.000  H
  H513     1.0000 0.79580  0.38640  0.32980  Biso   1.000  H
  H514     1.0000 0.81080  0.36500  0.27540  Biso   1.000  H
  H515     1.0000 0.89920  0.24860  0.21360  Biso   1.000  H
  H516     1.0000 0.86210  0.26810  0.17250  Biso   1.000  H
  H517     1.0000 0.83900  0.24400  0.18320  Biso   1.000  H
  H518     1.0000 0.94780  0.17840  0.21380  Biso   1.000  H
  H519     1.0000 0.88800  0.20980  0.15080  Biso   1.000  H
  H520     1.0000 0.91100  0.23360  0.14020  Biso   1.000  H
  H521     1.0000 0.02150  0.01910  0.12910  Biso   1.000  H
  H522     1.0000 0.97810  0.03410  0.14470  Biso   1.000  H
  H523     1.0000 0.94470  0.05070  0.19990  Biso   1.000  H
  H524     1.0000 0.96690  0.04130  0.22430  Biso   1.000  H
  H525     1.0000 0.05690  0.00510  0.16430  Biso   1.000  H
  H526     1.0000 0.03650  0.01370  0.20150  Biso   1.000  H
  H527     1.0000 0.10340  0.17000  0.07660  Biso   1.000  H
  H528     1.0000 0.12540  0.13080  0.07180  Biso   1.000  H
  H529     1.0000 0.82980  0.48800  0.29580  Biso   1.000  H
  H530     1.0000 0.77540  0.54880  0.31080  Biso   1.000  H
  H531     1.0000 0.71360  0.63860  0.39920  Biso   1.000  H
  H532     1.0000 0.67250  0.69730  0.36210  Biso   1.000  H
  H533     1.0000 0.68320  0.73380  0.33900  Biso   1.000  H
  H534     1.0000 0.71380  0.66000  0.44780  Biso   1.000  H
  H535     1.0000 0.65080  0.75140  0.38800  Biso   1.000  H
  H536     1.0000 0.64020  0.71520  0.41100  Biso   1.000  H
  H537     1.0000 0.62910  0.83030  0.52150  Biso   1.000  H
  H538     1.0000 0.64470  0.84310  0.47810  Biso   1.000  H
  H539     1.0000 0.69990  0.80470  0.44470  Biso   1.000  H
  H540     1.0000 0.72430  0.76750  0.46690  Biso   1.000  H
  H541     1.0000 0.66430  0.77370  0.55690  Biso   1.000  H
  H542     1.0000 0.70150  0.74830  0.53650  Biso   1.000  H
  H543     1.0000 0.57660  0.65000  0.60340  Biso   1.000  H
  H544     1.0000 0.57180  0.67200  0.62540  Biso   1.000  H
  H545     1.0000 0.98800  0.32980  0.38640  Biso   1.000  H
  H546     1.0000 0.04880  0.27540  0.36500  Biso   1.000  H
  H547     1.0000 0.13860  0.21360  0.24860  Biso   1.000  H
  H548     1.0000 0.19730  0.17250  0.26810  Biso   1.000  H
  H549     1.0000 0.23380  0.18320  0.24400  Biso   1.000  H
  H550     1.0000 0.16000  0.21380  0.17840  Biso   1.000  H
  H551     1.0000 0.25140  0.15080  0.20980  Biso   1.000  H
  H552     1.0000 0.21520  0.14020  0.23360  Biso   1.000  H
  H553     1.0000 0.33030  0.12910  0.01910  Biso   1.000  H
  H554     1.0000 0.34310  0.14470  0.03410  Biso   1.000  H
  H555     1.0000 0.30470  0.19990  0.05070  Biso   1.000  H
  H556     1.0000 0.26750  0.22430  0.04130  Biso   1.000  H
  H557     1.0000 0.27370  0.16430  0.00510  Biso   1.000  H
  H558     1.0000 0.24830  0.20150  0.01370  Biso   1.000  H
  H559     1.0000 0.15000  0.07660  0.17000  Biso   1.000  H
  H560     1.0000 0.17200  0.07180  0.13080  Biso   1.000  H
  H561     1.0000 0.88640  0.29580  0.48800  Biso   1.000  H
  H562     1.0000 0.86500  0.31080  0.54880  Biso   1.000  H
  H563     1.0000 0.74860  0.39920  0.63860  Biso   1.000  H
  H564     1.0000 0.76810  0.36210  0.69730  Biso   1.000  H
  H565     1.0000 0.74400  0.33900  0.73380  Biso   1.000  H
  H566     1.0000 0.67840  0.44780  0.66000  Biso   1.000  H
  H567     1.0000 0.70980  0.38800  0.75140  Biso   1.000  H
  H568     1.0000 0.73360  0.41100  0.71520  Biso   1.000  H
  H569     1.0000 0.51910  0.52150  0.83030  Biso   1.000  H
  H570     1.0000 0.53410  0.47810  0.84310  Biso   1.000  H
  H571     1.0000 0.55070  0.44470  0.80470  Biso   1.000  H
  H572     1.0000 0.54130  0.46690  0.76750  Biso   1.000  H
  H573     1.0000 0.50510  0.55690  0.77370  Biso   1.000  H
  H574     1.0000 0.51370  0.53650  0.74830  Biso   1.000  H
  H575     1.0000 0.67000  0.60340  0.65000  Biso   1.000  H
  H576     1.0000 0.63080  0.62540  0.67200  Biso   1.000  H
  H577     1.0000 0.17020  0.70420  0.51200  Biso   1.000  H
  H578     1.0000 0.22460  0.68920  0.45120  Biso   1.000  H
  H579     1.0000 0.28640  0.60080  0.36140  Biso   1.000  H
  H580     1.0000 0.32750  0.63790  0.30270  Biso   1.000  H
  H581     1.0000 0.31680  0.66100  0.26620  Biso   1.000  H
  H582     1.0000 0.28620  0.55220  0.34000  Biso   1.000  H
  H583     1.0000 0.34920  0.61200  0.24860  Biso   1.000  H
  H584     1.0000 0.35980  0.58900  0.28480  Biso   1.000  H
  H585     1.0000 0.37090  0.47850  0.16970  Biso   1.000  H
  H586     1.0000 0.35530  0.52190  0.15690  Biso   1.000  H
  H587     1.0000 0.30010  0.55530  0.19530  Biso   1.000  H
  H588     1.0000 0.27570  0.53310  0.23250  Biso   1.000  H
  H589     1.0000 0.33570  0.44310  0.22630  Biso   1.000  H
  H590     1.0000 0.29850  0.46350  0.25170  Biso   1.000  H
  H591     1.0000 0.42340  0.39660  0.35000  Biso   1.000  H
  H592     1.0000 0.42820  0.37460  0.32800  Biso   1.000  H
  H593     1.0000 0.20420  0.67020  0.61360  Biso   1.000  H
  H594     1.0000 0.18920  0.72460  0.63500  Biso   1.000  H
  H595     1.0000 0.10080  0.78640  0.75140  Biso   1.000  H
  H596     1.0000 0.13790  0.82750  0.73190  Biso   1.000  H
  H597     1.0000 0.16100  0.81680  0.75600  Biso   1.000  H
  H598     1.0000 0.05220  0.78620  0.82160  Biso   1.000  H
  H599     1.0000 0.11200  0.84920  0.79020  Biso   1.000  H
  H600     1.0000 0.08900  0.85980  0.76640  Biso   1.000  H
  H601     1.0000 0.97850  0.87090  0.98090  Biso   1.000  H
  H602     1.0000 0.02190  0.85530  0.96590  Biso   1.000  H
  H603     1.0000 0.05530  0.80010  0.94930  Biso   1.000  H
  H604     1.0000 0.03310  0.77570  0.95870  Biso   1.000  H
  H605     1.0000 0.94310  0.83570  0.99490  Biso   1.000  H
  H606     1.0000 0.96350  0.79850  0.98630  Biso   1.000  H
  H607     1.0000 0.89660  0.92340  0.83000  Biso   1.000  H
  H608     1.0000 0.87460  0.92820  0.86920  Biso   1.000  H
  H609     1.0000 0.11360  0.51200  0.70420  Biso   1.000  H
  H610     1.0000 0.13500  0.45120  0.68920  Biso   1.000  H
  H611     1.0000 0.25140  0.36140  0.60080  Biso   1.000  H
  H612     1.0000 0.23190  0.30270  0.63790  Biso   1.000  H
  H613     1.0000 0.25600  0.26620  0.66100  Biso   1.000  H
  H614     1.0000 0.32160  0.34000  0.55220  Biso   1.000  H
  H615     1.0000 0.29020  0.24860  0.61200  Biso   1.000  H
  H616     1.0000 0.26640  0.28480  0.58900  Biso   1.000  H
  H617     1.0000 0.48090  0.16970  0.47850  Biso   1.000  H
  H618     1.0000 0.46590  0.15690  0.52190  Biso   1.000  H
  H619     1.0000 0.44930  0.19530  0.55530  Biso   1.000  H
  H620     1.0000 0.45870  0.23250  0.53310  Biso   1.000  H
  H621     1.0000 0.49490  0.22630  0.44310  Biso   1.000  H
  H622     1.0000 0.48630  0.25170  0.46350  Biso   1.000  H
  H623     1.0000 0.33000  0.35000  0.39660  Biso   1.000  H
  H624     1.0000 0.36920  0.32800  0.37460  Biso   1.000  H
  H625     1.0000 0.01200  0.61360  0.67020  Biso   1.000  H
  H626     1.0000 0.95120  0.63500  0.72460  Biso   1.000  H
  H627     1.0000 0.86140  0.75140  0.78640  Biso   1.000  H
  H628     1.0000 0.80270  0.73190  0.82750  Biso   1.000  H
  H629     1.0000 0.76620  0.75600  0.81680  Biso   1.000  H
  H630     1.0000 0.84000  0.82160  0.78620  Biso   1.000  H
  H631     1.0000 0.74860  0.79020  0.84920  Biso   1.000  H
  H632     1.0000 0.78480  0.76640  0.85980  Biso   1.000  H
  H633     1.0000 0.66970  0.98090  0.87090  Biso   1.000  H
  H634     1.0000 0.65690  0.96590  0.85530  Biso   1.000  H
  H635     1.0000 0.69530  0.94930  0.80010  Biso   1.000  H
  H636     1.0000 0.73250  0.95870  0.77570  Biso   1.000  H
  H637     1.0000 0.72630  0.99490  0.83570  Biso   1.000  H
  H638     1.0000 0.75170  0.98630  0.79850  Biso   1.000  H
  H639     1.0000 0.85000  0.83000  0.92340  Biso   1.000  H
  H640     1.0000 0.82800  0.86920  0.92820  Biso   1.000  H
  H641     1.0000 0.01200  0.70420  0.61360  Biso   1.000  H
  H642     1.0000 0.95120  0.68920  0.63500  Biso   1.000  H
  H643     1.0000 0.86140  0.60080  0.75140  Biso   1.000  H
  H644     1.0000 0.80270  0.63790  0.73190  Biso   1.000  H
  H645     1.0000 0.76620  0.66100  0.75600  Biso   1.000  H
  H646     1.0000 0.84000  0.55220  0.82160  Biso   1.000  H
  H647     1.0000 0.74860  0.61200  0.79020  Biso   1.000  H
  H648     1.0000 0.78480  0.58900  0.76640  Biso   1.000  H
  H649     1.0000 0.66970  0.47850  0.98090  Biso   1.000  H
  H650     1.0000 0.65690  0.52190  0.96590  Biso   1.000  H
  H651     1.0000 0.69530  0.55530  0.94930  Biso   1.000  H
  H652     1.0000 0.73250  0.53310  0.95870  Biso   1.000  H
  H653     1.0000 0.72630  0.44310  0.99490  Biso   1.000  H
  H654     1.0000 0.75170  0.46350  0.98630  Biso   1.000  H
  H655     1.0000 0.85000  0.39660  0.83000  Biso   1.000  H
  H656     1.0000 0.82800  0.37460  0.86920  Biso   1.000  H
  H657     1.0000 0.11360  0.67020  0.51200  Biso   1.000  H
  H658     1.0000 0.13500  0.72460  0.45120  Biso   1.000  H
  H659     1.0000 0.25140  0.78640  0.36140  Biso   1.000  H
  H660     1.0000 0.23190  0.82750  0.30270  Biso   1.000  H
  H661     1.0000 0.25600  0.81680  0.26620  Biso   1.000  H
  H662     1.0000 0.32160  0.78620  0.34000  Biso   1.000  H
  H663     1.0000 0.29020  0.84920  0.24860  Biso   1.000  H
  H664     1.0000 0.26640  0.85980  0.28480  Biso   1.000  H
  H665     1.0000 0.48090  0.87090  0.16970  Biso   1.000  H
  H666     1.0000 0.46590  0.85530  0.15690  Biso   1.000  H
  H667     1.0000 0.44930  0.80010  0.19530  Biso   1.000  H
  H668     1.0000 0.45870  0.77570  0.23250  Biso   1.000  H
  H669     1.0000 0.49490  0.83570  0.22630  Biso   1.000  H
  H670     1.0000 0.48630  0.79850  0.25170  Biso   1.000  H
  H671     1.0000 0.33000  0.92340  0.35000  Biso   1.000  H
  H672     1.0000 0.36920  0.92820  0.32800  Biso   1.000  H
  H673     1.0000 0.20420  0.51200  0.67020  Biso   1.000  H
  H674     1.0000 0.18920  0.45120  0.72460  Biso   1.000  H
  H675     1.0000 0.10080  0.36140  0.78640  Biso   1.000  H
  H676     1.0000 0.13790  0.30270  0.82750  Biso   1.000  H
  H677     1.0000 0.16100  0.26620  0.81680  Biso   1.000  H
  H678     1.0000 0.05220  0.34000  0.78620  Biso   1.000  H
  H679     1.0000 0.11200  0.24860  0.84920  Biso   1.000  H
  H680     1.0000 0.08900  0.28480  0.85980  Biso   1.000  H
  H681     1.0000 0.97850  0.16970  0.87090  Biso   1.000  H
  H682     1.0000 0.02190  0.15690  0.85530  Biso   1.000  H
  H683     1.0000 0.05530  0.19530  0.80010  Biso   1.000  H
  H684     1.0000 0.03310  0.23250  0.77570  Biso   1.000  H
  H685     1.0000 0.94310  0.22630  0.83570  Biso   1.000  H
  H686     1.0000 0.96350  0.25170  0.79850  Biso   1.000  H
  H687     1.0000 0.89660  0.35000  0.92340  Biso   1.000  H
  H688     1.0000 0.87460  0.32800  0.92820  Biso   1.000  H
  H689     1.0000 0.17020  0.61360  0.70420  Biso   1.000  H
  H690     1.0000 0.22460  0.63500  0.68920  Biso   1.000  H
  H691     1.0000 0.28640  0.75140  0.60080  Biso   1.000  H
  H692     1.0000 0.32750  0.73190  0.63790  Biso   1.000  H
  H693     1.0000 0.31680  0.75600  0.66100  Biso   1.000  H
  H694     1.0000 0.28620  0.82160  0.55220  Biso   1.000  H
  H695     1.0000 0.34920  0.79020  0.61200  Biso   1.000  H
  H696     1.0000 0.35980  0.76640  0.58900  Biso   1.000  H
  H697     1.0000 0.37090  0.98090  0.47850  Biso   1.000  H
  H698     1.0000 0.35530  0.96590  0.52190  Biso   1.000  H
  H699     1.0000 0.30010  0.94930  0.55530  Biso   1.000  H
  H700     1.0000 0.27570  0.95870  0.53310  Biso   1.000  H
  H701     1.0000 0.33570  0.99490  0.44310  Biso   1.000  H
  H702     1.0000 0.29850  0.98630  0.46350  Biso   1.000  H
  H703     1.0000 0.42340  0.83000  0.39660  Biso   1.000  H
  H704     1.0000 0.42820  0.86920  0.37460  Biso   1.000  H
  H705     1.0000 0.11360  0.70420  0.67020  Biso   1.000  H
  H706     1.0000 0.13500  0.68920  0.72460  Biso   1.000  H
  H707     1.0000 0.25140  0.60080  0.78640  Biso   1.000  H
  H708     1.0000 0.23190  0.63790  0.82750  Biso   1.000  H
  H709     1.0000 0.25600  0.66100  0.81680  Biso   1.000  H
  H710     1.0000 0.32160  0.55220  0.78620  Biso   1.000  H
  H711     1.0000 0.29020  0.61200  0.84920  Biso   1.000  H
  H712     1.0000 0.26640  0.58900  0.85980  Biso   1.000  H
  H713     1.0000 0.48090  0.47850  0.87090  Biso   1.000  H
  H714     1.0000 0.46590  0.52190  0.85530  Biso   1.000  H
  H715     1.0000 0.44930  0.55530  0.80010  Biso   1.000  H
  H716     1.0000 0.45870  0.53310  0.77570  Biso   1.000  H
  H717     1.0000 0.49490  0.44310  0.83570  Biso   1.000  H
  H718     1.0000 0.48630  0.46350  0.79850  Biso   1.000  H
  H719     1.0000 0.33000  0.39660  0.92340  Biso   1.000  H
  H720     1.0000 0.36920  0.37460  0.92820  Biso   1.000  H
  H721     1.0000 0.01200  0.67020  0.70420  Biso   1.000  H
  H722     1.0000 0.95120  0.72460  0.68920  Biso   1.000  H
  H723     1.0000 0.86140  0.78640  0.60080  Biso   1.000  H
  H724     1.0000 0.80270  0.82750  0.63790  Biso   1.000  H
  H725     1.0000 0.76620  0.81680  0.66100  Biso   1.000  H
  H726     1.0000 0.84000  0.78620  0.55220  Biso   1.000  H
  H727     1.0000 0.74860  0.84920  0.61200  Biso   1.000  H
  H728     1.0000 0.78480  0.85980  0.58900  Biso   1.000  H
  H729     1.0000 0.66970  0.87090  0.47850  Biso   1.000  H
  H730     1.0000 0.65690  0.85530  0.52190  Biso   1.000  H
  H731     1.0000 0.69530  0.80010  0.55530  Biso   1.000  H
  H732     1.0000 0.73250  0.77570  0.53310  Biso   1.000  H
  H733     1.0000 0.72630  0.83570  0.44310  Biso   1.000  H
  H734     1.0000 0.75170  0.79850  0.46350  Biso   1.000  H
  H735     1.0000 0.85000  0.92340  0.39660  Biso   1.000  H
  H736     1.0000 0.82800  0.92820  0.37460  Biso   1.000  H
  H737     1.0000 0.17020  0.51200  0.61360  Biso   1.000  H
  H738     1.0000 0.22460  0.45120  0.63500  Biso   1.000  H
  H739     1.0000 0.28640  0.36140  0.75140  Biso   1.000  H
  H740     1.0000 0.32750  0.30270  0.73190  Biso   1.000  H
  H741     1.0000 0.31680  0.26620  0.75600  Biso   1.000  H
  H742     1.0000 0.28620  0.34000  0.82160  Biso   1.000  H
  H743     1.0000 0.34920  0.24860  0.79020  Biso   1.000  H
  H744     1.0000 0.35980  0.28480  0.76640  Biso   1.000  H
  H745     1.0000 0.37090  0.16970  0.98090  Biso   1.000  H
  H746     1.0000 0.35530  0.15690  0.96590  Biso   1.000  H
  H747     1.0000 0.30010  0.19530  0.94930  Biso   1.000  H
  H748     1.0000 0.27570  0.23250  0.95870  Biso   1.000  H
  H749     1.0000 0.33570  0.22630  0.99490  Biso   1.000  H
  H750     1.0000 0.29850  0.25170  0.98630  Biso   1.000  H
  H751     1.0000 0.42340  0.35000  0.83000  Biso   1.000  H
  H752     1.0000 0.42820  0.32800  0.86920  Biso   1.000  H
  H753     1.0000 0.20420  0.61360  0.51200  Biso   1.000  H
  H754     1.0000 0.18920  0.63500  0.45120  Biso   1.000  H
  H755     1.0000 0.10080  0.75140  0.36140  Biso   1.000  H
  H756     1.0000 0.13790  0.73190  0.30270  Biso   1.000  H
  H757     1.0000 0.16100  0.75600  0.26620  Biso   1.000  H
  H758     1.0000 0.05220  0.82160  0.34000  Biso   1.000  H
  H759     1.0000 0.11200  0.79020  0.24860  Biso   1.000  H
  H760     1.0000 0.08900  0.76640  0.28480  Biso   1.000  H
  H761     1.0000 0.97850  0.98090  0.16970  Biso   1.000  H
  H762     1.0000 0.02190  0.96590  0.15690  Biso   1.000  H
  H763     1.0000 0.05530  0.94930  0.19530  Biso   1.000  H
  H764     1.0000 0.03310  0.95870  0.23250  Biso   1.000  H
  H765     1.0000 0.94310  0.99490  0.22630  Biso   1.000  H
  H766     1.0000 0.96350  0.98630  0.25170  Biso   1.000  H
  H767     1.0000 0.89660  0.83000  0.35000  Biso   1.000  H
  H768     1.0000 0.87460  0.86920  0.32800  Biso   1.000  H
  C1       1.0000 0.13850  0.81670  0.28770  Biso   1.000  C
  C2       1.0000 0.10390  0.83910  0.27550  Biso   1.000  C
  C3       1.0000 0.99980  0.84840  0.17000  Biso   1.000  C
  C4       1.0000 0.03380  0.79240  0.20740  Biso   1.000  C
  C5       1.0000 0.96530  0.81390  0.22610  Biso   1.000  C
  C6       1.0000 0.88210  0.91270  0.34990  Biso   1.000  C
  C7       1.0000 0.31670  0.63850  0.75710  Biso   1.000  C
  C8       1.0000 0.33910  0.60390  0.78150  Biso   1.000  C
  C9       1.0000 0.34840  0.49980  0.98180  Biso   1.000  C
  C10      1.0000 0.29240  0.53380  0.96640  Biso   1.000  C
  C11      1.0000 0.31390  0.46530  0.99470  Biso   1.000  C
  C12      1.0000 0.41270  0.38210  0.85530  Biso   1.000  C
  C13      1.0000 0.78770  0.75710  0.63850  Biso   1.000  C
  C14      1.0000 0.77550  0.78150  0.60390  Biso   1.000  C
  C15      1.0000 0.67000  0.98180  0.49980  Biso   1.000  C
  C16      1.0000 0.70740  0.96640  0.53380  Biso   1.000  C
  C17      1.0000 0.72610  0.99470  0.46530  Biso   1.000  C
  C18      1.0000 0.84990  0.85530  0.38210  Biso   1.000  C
  C19      1.0000 0.25710  0.28770  0.81670  Biso   1.000  C
  C20      1.0000 0.28150  0.27550  0.83910  Biso   1.000  C
  C21      1.0000 0.48180  0.17000  0.84840  Biso   1.000  C
  C22      1.0000 0.46640  0.20740  0.79240  Biso   1.000  C
  C23      1.0000 0.49470  0.22610  0.81390  Biso   1.000  C
  C24      1.0000 0.35530  0.34990  0.91270  Biso   1.000  C
  C25      1.0000 0.13850  0.28770  0.75710  Biso   1.000  C
  C26      1.0000 0.10390  0.27550  0.78150  Biso   1.000  C
  C27      1.0000 0.99980  0.17000  0.98180  Biso   1.000  C
  C28      1.0000 0.03380  0.20740  0.96640  Biso   1.000  C
  C29      1.0000 0.96530  0.22610  0.99470  Biso   1.000  C
  C30      1.0000 0.88210  0.34990  0.85530  Biso   1.000  C
  C31      1.0000 0.31670  0.75710  0.28770  Biso   1.000  C
  C32      1.0000 0.33910  0.78150  0.27550  Biso   1.000  C
  C33      1.0000 0.34840  0.98180  0.17000  Biso   1.000  C
  C34      1.0000 0.29240  0.96640  0.20740  Biso   1.000  C
  C35      1.0000 0.31390  0.99470  0.22610  Biso   1.000  C
  C36      1.0000 0.41270  0.85530  0.34990  Biso   1.000  C
  C37      1.0000 0.78770  0.63850  0.81670  Biso   1.000  C
  C38      1.0000 0.77550  0.60390  0.83910  Biso   1.000  C
  C39      1.0000 0.67000  0.49980  0.84840  Biso   1.000  C
  C40      1.0000 0.70740  0.53380  0.79240  Biso   1.000  C
  C41      1.0000 0.72610  0.46530  0.81390  Biso   1.000  C
  C42      1.0000 0.84990  0.38210  0.91270  Biso   1.000  C
  C43      1.0000 0.25710  0.81670  0.63850  Biso   1.000  C
  C44      1.0000 0.28150  0.83910  0.60390  Biso   1.000  C
  C45      1.0000 0.48180  0.84840  0.49980  Biso   1.000  C
  C46      1.0000 0.46640  0.79240  0.53380  Biso   1.000  C
  C47      1.0000 0.49470  0.81390  0.46530  Biso   1.000  C
  C48      1.0000 0.35530  0.91270  0.38210  Biso   1.000  C
  C49      1.0000 0.13850  0.75710  0.81670  Biso   1.000  C
  C50      1.0000 0.10390  0.78150  0.83910  Biso   1.000  C
  C51      1.0000 0.99980  0.98180  0.84840  Biso   1.000  C
  C52      1.0000 0.03380  0.96640  0.79240  Biso   1.000  C
  C53      1.0000 0.96530  0.99470  0.81390  Biso   1.000  C
  C54      1.0000 0.88210  0.85530  0.91270  Biso   1.000  C
  C55      1.0000 0.31670  0.28770  0.63850  Biso   1.000  C
  C56      1.0000 0.33910  0.27550  0.60390  Biso   1.000  C
  C57      1.0000 0.34840  0.17000  0.49980  Biso   1.000  C
  C58      1.0000 0.29240  0.20740  0.53380  Biso   1.000  C
  C59      1.0000 0.31390  0.22610  0.46530  Biso   1.000  C
  C60      1.0000 0.41270  0.34990  0.38210  Biso   1.000  C
  C61      1.0000 0.78770  0.81670  0.75710  Biso   1.000  C
  C62      1.0000 0.77550  0.83910  0.78150  Biso   1.000  C
  C63      1.0000 0.67000  0.84840  0.98180  Biso   1.000  C
  C64      1.0000 0.70740  0.79240  0.96640  Biso   1.000  C
  C65      1.0000 0.72610  0.81390  0.99470  Biso   1.000  C
  C66      1.0000 0.84990  0.91270  0.85530  Biso   1.000  C
  C67      1.0000 0.25710  0.63850  0.28770  Biso   1.000  C
  C68      1.0000 0.28150  0.60390  0.27550  Biso   1.000  C
  C69      1.0000 0.48180  0.49980  0.17000  Biso   1.000  C
  C70      1.0000 0.46640  0.53380  0.20740  Biso   1.000  C
  C71      1.0000 0.49470  0.46530  0.22610  Biso   1.000  C
  C72      1.0000 0.35530  0.38210  0.34990  Biso   1.000  C
  C73      1.0000 0.68330  0.36150  0.71230  Biso   1.000  C
  C74      1.0000 0.66090  0.39610  0.72450  Biso   1.000  C
  C75      1.0000 0.65160  0.50020  0.83000  Biso   1.000  C
  C76      1.0000 0.70760  0.46620  0.79260  Biso   1.000  C
  C77      1.0000 0.68610  0.53470  0.77390  Biso   1.000  C
  C78      1.0000 0.58730  0.61790  0.65010  Biso   1.000  C
  C79      1.0000 0.86150  0.18330  0.24290  Biso   1.000  C
  C80      1.0000 0.89610  0.16090  0.21850  Biso   1.000  C
  C81      1.0000 0.00020  0.15160  0.01820  Biso   1.000  C
  C82      1.0000 0.96620  0.20760  0.03360  Biso   1.000  C
  C83      1.0000 0.03470  0.18610  0.00530  Biso   1.000  C
  C84      1.0000 0.11790  0.08730  0.14470  Biso   1.000  C
  C85      1.0000 0.74290  0.71230  0.36150  Biso   1.000  C
  C86      1.0000 0.71850  0.72450  0.39610  Biso   1.000  C
  C87      1.0000 0.51820  0.83000  0.50020  Biso   1.000  C
  C88      1.0000 0.53360  0.79260  0.46620  Biso   1.000  C
  C89      1.0000 0.50530  0.77390  0.53470  Biso   1.000  C
  C90      1.0000 0.64470  0.65010  0.61790  Biso   1.000  C
  C91      1.0000 0.21230  0.24290  0.18330  Biso   1.000  C
  C92      1.0000 0.22450  0.21850  0.16090  Biso   1.000  C
  C93      1.0000 0.33000  0.01820  0.15160  Biso   1.000  C
  C94      1.0000 0.29260  0.03360  0.20760  Biso   1.000  C
  C95      1.0000 0.27390  0.00530  0.18610  Biso   1.000  C
  C96      1.0000 0.15010  0.14470  0.08730  Biso   1.000  C
  C97      1.0000 0.21230  0.36150  0.24290  Biso   1.000  C
  C98      1.0000 0.22450  0.39610  0.21850  Biso   1.000  C
  C99      1.0000 0.33000  0.50020  0.01820  Biso   1.000  C
  C100     1.0000 0.29260  0.46620  0.03360  Biso   1.000  C
  C101     1.0000 0.27390  0.53470  0.00530  Biso   1.000  C
  C102     1.0000 0.15010  0.61790  0.14470  Biso   1.000  C
  C103     1.0000 0.74290  0.18330  0.71230  Biso   1.000  C
  C104     1.0000 0.71850  0.16090  0.72450  Biso   1.000  C
  C105     1.0000 0.51820  0.15160  0.83000  Biso   1.000  C
  C106     1.0000 0.53360  0.20760  0.79260  Biso   1.000  C
  C107     1.0000 0.50530  0.18610  0.77390  Biso   1.000  C
  C108     1.0000 0.64470  0.08730  0.65010  Biso   1.000  C
  C109     1.0000 0.86150  0.71230  0.18330  Biso   1.000  C
  C110     1.0000 0.89610  0.72450  0.16090  Biso   1.000  C
  C111     1.0000 0.00020  0.83000  0.15160  Biso   1.000  C
  C112     1.0000 0.96620  0.79260  0.20760  Biso   1.000  C
  C113     1.0000 0.03470  0.77390  0.18610  Biso   1.000  C
  C114     1.0000 0.11790  0.65010  0.08730  Biso   1.000  C
  C115     1.0000 0.68330  0.24290  0.36150  Biso   1.000  C
  C116     1.0000 0.66090  0.21850  0.39610  Biso   1.000  C
  C117     1.0000 0.65160  0.01820  0.50020  Biso   1.000  C
  C118     1.0000 0.70760  0.03360  0.46620  Biso   1.000  C
  C119     1.0000 0.68610  0.00530  0.53470  Biso   1.000  C
  C120     1.0000 0.58730  0.14470  0.61790  Biso   1.000  C
  C121     1.0000 0.74290  0.36150  0.18330  Biso   1.000  C
  C122     1.0000 0.71850  0.39610  0.16090  Biso   1.000  C
  C123     1.0000 0.51820  0.50020  0.15160  Biso   1.000  C
  C124     1.0000 0.53360  0.46620  0.20760  Biso   1.000  C
  C125     1.0000 0.50530  0.53470  0.18610  Biso   1.000  C
  C126     1.0000 0.64470  0.61790  0.08730  Biso   1.000  C
  C127     1.0000 0.21230  0.18330  0.36150  Biso   1.000  C
  C128     1.0000 0.22450  0.16090  0.39610  Biso   1.000  C
  C129     1.0000 0.33000  0.15160  0.50020  Biso   1.000  C
  C130     1.0000 0.29260  0.20760  0.46620  Biso   1.000  C
  C131     1.0000 0.27390  0.18610  0.53470  Biso   1.000  C
  C132     1.0000 0.15010  0.08730  0.61790  Biso   1.000  C
  C133     1.0000 0.68330  0.71230  0.24290  Biso   1.000  C
  C134     1.0000 0.66090  0.72450  0.21850  Biso   1.000  C
  C135     1.0000 0.65160  0.83000  0.01820  Biso   1.000  C
  C136     1.0000 0.70760  0.79260  0.03360  Biso   1.000  C
  C137     1.0000 0.68610  0.77390  0.00530  Biso   1.000  C
  C138     1.0000 0.58730  0.65010  0.14470  Biso   1.000  C
  C139     1.0000 0.86150  0.24290  0.71230  Biso   1.000  C
  C140     1.0000 0.89610  0.21850  0.72450  Biso   1.000  C
  C141     1.0000 0.00020  0.01820  0.83000  Biso   1.000  C
  C142     1.0000 0.96620  0.03360  0.79260  Biso   1.000  C
  C143     1.0000 0.03470  0.00530  0.77390  Biso   1.000  C
  C144     1.0000 0.11790  0.14470  0.65010  Biso   1.000  C
  C145     1.0000 0.86150  0.18330  0.71230  Biso   1.000  C
  C146     1.0000 0.89610  0.16090  0.72450  Biso   1.000  C
  C147     1.0000 0.00020  0.15160  0.83000  Biso   1.000  C
  C148     1.0000 0.96620  0.20760  0.79260  Biso   1.000  C
  C149     1.0000 0.03470  0.18610  0.77390  Biso   1.000  C
  C150     1.0000 0.11790  0.08730  0.65010  Biso   1.000  C
  C151     1.0000 0.68330  0.36150  0.24290  Biso   1.000  C
  C152     1.0000 0.66090  0.39610  0.21850  Biso   1.000  C
  C153     1.0000 0.65160  0.50020  0.01820  Biso   1.000  C
  C154     1.0000 0.70760  0.46620  0.03360  Biso   1.000  C
  C155     1.0000 0.68610  0.53470  0.00530  Biso   1.000  C
  C156     1.0000 0.58730  0.61790  0.14470  Biso   1.000  C
  C157     1.0000 0.21230  0.24290  0.36150  Biso   1.000  C
  C158     1.0000 0.22450  0.21850  0.39610  Biso   1.000  C
  C159     1.0000 0.33000  0.01820  0.50020  Biso   1.000  C
  C160     1.0000 0.29260  0.03360  0.46620  Biso   1.000  C
  C161     1.0000 0.27390  0.00530  0.53470  Biso   1.000  C
  C162     1.0000 0.15010  0.14470  0.61790  Biso   1.000  C
  C163     1.0000 0.74290  0.71230  0.18330  Biso   1.000  C
  C164     1.0000 0.71850  0.72450  0.16090  Biso   1.000  C
  C165     1.0000 0.51820  0.83000  0.15160  Biso   1.000  C
  C166     1.0000 0.53360  0.79260  0.20760  Biso   1.000  C
  C167     1.0000 0.50530  0.77390  0.18610  Biso   1.000  C
  C168     1.0000 0.64470  0.65010  0.08730  Biso   1.000  C
  C169     1.0000 0.86150  0.71230  0.24290  Biso   1.000  C
  C170     1.0000 0.89610  0.72450  0.21850  Biso   1.000  C
  C171     1.0000 0.00020  0.83000  0.01820  Biso   1.000  C
  C172     1.0000 0.96620  0.79260  0.03360  Biso   1.000  C
  C173     1.0000 0.03470  0.77390  0.00530  Biso   1.000  C
  C174     1.0000 0.11790  0.65010  0.14470  Biso   1.000  C
  C175     1.0000 0.68330  0.24290  0.71230  Biso   1.000  C
  C176     1.0000 0.66090  0.21850  0.72450  Biso   1.000  C
  C177     1.0000 0.65160  0.01820  0.83000  Biso   1.000  C
  C178     1.0000 0.70760  0.03360  0.79260  Biso   1.000  C
  C179     1.0000 0.68610  0.00530  0.77390  Biso   1.000  C
  C180     1.0000 0.58730  0.14470  0.65010  Biso   1.000  C
  C181     1.0000 0.21230  0.36150  0.18330  Biso   1.000  C
  C182     1.0000 0.22450  0.39610  0.16090  Biso   1.000  C
  C183     1.0000 0.33000  0.50020  0.15160  Biso   1.000  C
  C184     1.0000 0.29260  0.46620  0.20760  Biso   1.000  C
  C185     1.0000 0.27390  0.53470  0.18610  Biso   1.000  C
  C186     1.0000 0.15010  0.61790  0.08730  Biso   1.000  C
  C187     1.0000 0.74290  0.18330  0.36150  Biso   1.000  C
  C188     1.0000 0.71850  0.16090  0.39610  Biso   1.000  C
  C189     1.0000 0.51820  0.15160  0.50020  Biso   1.000  C
  C190     1.0000 0.53360  0.20760  0.46620  Biso   1.000  C
  C191     1.0000 0.50530  0.18610  0.53470  Biso   1.000  C
  C192     1.0000 0.64470  0.08730  0.61790  Biso   1.000  C
  C193     1.0000 0.86150  0.24290  0.18330  Biso   1.000  C
  C194     1.0000 0.89610  0.21850  0.16090  Biso   1.000  C
  C195     1.0000 0.00020  0.01820  0.15160  Biso   1.000  C
  C196     1.0000 0.96620  0.03360  0.20760  Biso   1.000  C
  C197     1.0000 0.03470  0.00530  0.18610  Biso   1.000  C
  C198     1.0000 0.11790  0.14470  0.08730  Biso   1.000  C
  C199     1.0000 0.68330  0.71230  0.36150  Biso   1.000  C
  C200     1.0000 0.66090  0.72450  0.39610  Biso   1.000  C
  C201     1.0000 0.65160  0.83000  0.50020  Biso   1.000  C
  C202     1.0000 0.70760  0.79260  0.46620  Biso   1.000  C
  C203     1.0000 0.68610  0.77390  0.53470  Biso   1.000  C
  C204     1.0000 0.58730  0.65010  0.61790  Biso   1.000  C
  C205     1.0000 0.21230  0.18330  0.24290  Biso   1.000  C
  C206     1.0000 0.22450  0.16090  0.21850  Biso   1.000  C
  C207     1.0000 0.33000  0.15160  0.01820  Biso   1.000  C
  C208     1.0000 0.29260  0.20760  0.03360  Biso   1.000  C
  C209     1.0000 0.27390  0.18610  0.00530  Biso   1.000  C
  C210     1.0000 0.15010  0.08730  0.14470  Biso   1.000  C
  C211     1.0000 0.74290  0.36150  0.71230  Biso   1.000  C
  C212     1.0000 0.71850  0.39610  0.72450  Biso   1.000  C
  C213     1.0000 0.51820  0.50020  0.83000  Biso   1.000  C
  C214     1.0000 0.53360  0.46620  0.79260  Biso   1.000  C
  C215     1.0000 0.50530  0.53470  0.77390  Biso   1.000  C
  C216     1.0000 0.64470  0.61790  0.65010  Biso   1.000  C
  C217     1.0000 0.31670  0.63850  0.28770  Biso   1.000  C
  C218     1.0000 0.33910  0.60390  0.27550  Biso   1.000  C
  C219     1.0000 0.34840  0.49980  0.17000  Biso   1.000  C
  C220     1.0000 0.29240  0.53380  0.20740  Biso   1.000  C
  C221     1.0000 0.31390  0.46530  0.22610  Biso   1.000  C
  C222     1.0000 0.41270  0.38210  0.34990  Biso   1.000  C
  C223     1.0000 0.13850  0.81670  0.75710  Biso   1.000  C
  C224     1.0000 0.10390  0.83910  0.78150  Biso   1.000  C
  C225     1.0000 0.99980  0.84840  0.98180  Biso   1.000  C
  C226     1.0000 0.03380  0.79240  0.96640  Biso   1.000  C
  C227     1.0000 0.96530  0.81390  0.99470  Biso   1.000  C
  C228     1.0000 0.88210  0.91270  0.85530  Biso   1.000  C
  C229     1.0000 0.25710  0.28770  0.63850  Biso   1.000  C
  C230     1.0000 0.28150  0.27550  0.60390  Biso   1.000  C
  C231     1.0000 0.48180  0.17000  0.49980  Biso   1.000  C
  C232     1.0000 0.46640  0.20740  0.53380  Biso   1.000  C
  C233     1.0000 0.49470  0.22610  0.46530  Biso   1.000  C
  C234     1.0000 0.35530  0.34990  0.38210  Biso   1.000  C
  C235     1.0000 0.78770  0.75710  0.81670  Biso   1.000  C
  C236     1.0000 0.77550  0.78150  0.83910  Biso   1.000  C
  C237     1.0000 0.67000  0.98180  0.84840  Biso   1.000  C
  C238     1.0000 0.70740  0.96640  0.79240  Biso   1.000  C
  C239     1.0000 0.72610  0.99470  0.81390  Biso   1.000  C
  C240     1.0000 0.84990  0.85530  0.91270  Biso   1.000  C
  C241     1.0000 0.78770  0.63850  0.75710  Biso   1.000  C
  C242     1.0000 0.77550  0.60390  0.78150  Biso   1.000  C
  C243     1.0000 0.67000  0.49980  0.98180  Biso   1.000  C
  C244     1.0000 0.70740  0.53380  0.96640  Biso   1.000  C
  C245     1.0000 0.72610  0.46530  0.99470  Biso   1.000  C
  C246     1.0000 0.84990  0.38210  0.85530  Biso   1.000  C
  C247     1.0000 0.25710  0.81670  0.28770  Biso   1.000  C
  C248     1.0000 0.28150  0.83910  0.27550  Biso   1.000  C
  C249     1.0000 0.48180  0.84840  0.17000  Biso   1.000  C
  C250     1.0000 0.46640  0.79240  0.20740  Biso   1.000  C
  C251     1.0000 0.49470  0.81390  0.22610  Biso   1.000  C
  C252     1.0000 0.35530  0.91270  0.34990  Biso   1.000  C
  C253     1.0000 0.13850  0.28770  0.81670  Biso   1.000  C
  C254     1.0000 0.10390  0.27550  0.83910  Biso   1.000  C
  C255     1.0000 0.99980  0.17000  0.84840  Biso   1.000  C
  C256     1.0000 0.03380  0.20740  0.79240  Biso   1.000  C
  C257     1.0000 0.96530  0.22610  0.81390  Biso   1.000  C
  C258     1.0000 0.88210  0.34990  0.91270  Biso   1.000  C
  C259     1.0000 0.31670  0.75710  0.63850  Biso   1.000  C
  C260     1.0000 0.33910  0.78150  0.60390  Biso   1.000  C
  C261     1.0000 0.34840  0.98180  0.49980  Biso   1.000  C
  C262     1.0000 0.29240  0.96640  0.53380  Biso   1.000  C
  C263     1.0000 0.31390  0.99470  0.46530  Biso   1.000  C
  C264     1.0000 0.41270  0.85530  0.38210  Biso   1.000  C
  C265     1.0000 0.25710  0.63850  0.81670  Biso   1.000  C
  C266     1.0000 0.28150  0.60390  0.83910  Biso   1.000  C
  C267     1.0000 0.48180  0.49980  0.84840  Biso   1.000  C
  C268     1.0000 0.46640  0.53380  0.79240  Biso   1.000  C
  C269     1.0000 0.49470  0.46530  0.81390  Biso   1.000  C
  C270     1.0000 0.35530  0.38210  0.91270  Biso   1.000  C
  C271     1.0000 0.78770  0.81670  0.63850  Biso   1.000  C
  C272     1.0000 0.77550  0.83910  0.60390  Biso   1.000  C
  C273     1.0000 0.67000  0.84840  0.49980  Biso   1.000  C
  C274     1.0000 0.70740  0.79240  0.53380  Biso   1.000  C
  C275     1.0000 0.72610  0.81390  0.46530  Biso   1.000  C
  C276     1.0000 0.84990  0.91270  0.38210  Biso   1.000  C
  C277     1.0000 0.31670  0.28770  0.75710  Biso   1.000  C
  C278     1.0000 0.33910  0.27550  0.78150  Biso   1.000  C
  C279     1.0000 0.34840  0.17000  0.98180  Biso   1.000  C
  C280     1.0000 0.29240  0.20740  0.96640  Biso   1.000  C
  C281     1.0000 0.31390  0.22610  0.99470  Biso   1.000  C
  C282     1.0000 0.41270  0.34990  0.85530  Biso   1.000  C
  C283     1.0000 0.13850  0.75710  0.28770  Biso   1.000  C
  C284     1.0000 0.10390  0.78150  0.27550  Biso   1.000  C
  C285     1.0000 0.99980  0.98180  0.17000  Biso   1.000  C
  C286     1.0000 0.03380  0.96640  0.20740  Biso   1.000  C
  C287     1.0000 0.96530  0.99470  0.22610  Biso   1.000  C
  C288     1.0000 0.88210  0.85530  0.34990  Biso   1.000  C
  C289     1.0000 0.18370  0.68370  0.50410  Biso   1.000  C
  C290     1.0000 0.19790  0.69790  0.46050  Biso   1.000  C
  C291     1.0000 0.18370  0.68370  0.62850  Biso   1.000  C
  C292     1.0000 0.19790  0.69790  0.64370  Biso   1.000  C
  C293     1.0000 0.00410  0.62850  0.68370  Biso   1.000  C
  C294     1.0000 0.96050  0.64370  0.69790  Biso   1.000  C
  C295     1.0000 0.12850  0.50410  0.68370  Biso   1.000  C
  C296     1.0000 0.14370  0.46050  0.69790  Biso   1.000  C
  C297     1.0000 0.18370  0.50410  0.62850  Biso   1.000  C
  C298     1.0000 0.19790  0.46050  0.64370  Biso   1.000  C
  C299     1.0000 0.18370  0.62850  0.50410  Biso   1.000  C
  C300     1.0000 0.19790  0.64370  0.46050  Biso   1.000  C
  C301     1.0000 0.00410  0.68370  0.68370  Biso   1.000  C
  C302     1.0000 0.96050  0.69790  0.69790  Biso   1.000  C
  C303     1.0000 0.12850  0.68370  0.68370  Biso   1.000  C
  C304     1.0000 0.14370  0.69790  0.69790  Biso   1.000  C
  C305     1.0000 0.18370  0.62850  0.68370  Biso   1.000  C
  C306     1.0000 0.19790  0.64370  0.69790  Biso   1.000  C
  C307     1.0000 0.18370  0.50410  0.68370  Biso   1.000  C
  C308     1.0000 0.19790  0.46050  0.69790  Biso   1.000  C
  C309     1.0000 0.00410  0.68370  0.62850  Biso   1.000  C
  C310     1.0000 0.96050  0.69790  0.64370  Biso   1.000  C
  C311     1.0000 0.12850  0.68370  0.50410  Biso   1.000  C
  C312     1.0000 0.14370  0.69790  0.46050  Biso   1.000  C
  C313     1.0000 0.81630  0.31630  0.49590  Biso   1.000  C
  C314     1.0000 0.80210  0.30210  0.53950  Biso   1.000  C
  C315     1.0000 0.81630  0.31630  0.37150  Biso   1.000  C
  C316     1.0000 0.80210  0.30210  0.35630  Biso   1.000  C
  C317     1.0000 0.87150  0.49590  0.31630  Biso   1.000  C
  C318     1.0000 0.85630  0.53950  0.30210  Biso   1.000  C
  C319     1.0000 0.99590  0.37150  0.31630  Biso   1.000  C
  C320     1.0000 0.03950  0.35630  0.30210  Biso   1.000  C
  C321     1.0000 0.99590  0.31630  0.37150  Biso   1.000  C
  C322     1.0000 0.03950  0.30210  0.35630  Biso   1.000  C
  C323     1.0000 0.87150  0.31630  0.49590  Biso   1.000  C
  C324     1.0000 0.85630  0.30210  0.53950  Biso   1.000  C
  C325     1.0000 0.81630  0.49590  0.31630  Biso   1.000  C
  C326     1.0000 0.80210  0.53950  0.30210  Biso   1.000  C
  C327     1.0000 0.81630  0.37150  0.31630  Biso   1.000  C
  C328     1.0000 0.80210  0.35630  0.30210  Biso   1.000  C
  C329     1.0000 0.87150  0.31630  0.31630  Biso   1.000  C
  C330     1.0000 0.85630  0.30210  0.30210  Biso   1.000  C
  C331     1.0000 0.99590  0.31630  0.31630  Biso   1.000  C
  C332     1.0000 0.03950  0.30210  0.30210  Biso   1.000  C
  C333     1.0000 0.81630  0.49590  0.37150  Biso   1.000  C
  C334     1.0000 0.80210  0.53950  0.35630  Biso   1.000  C
  C335     1.0000 0.81630  0.37150  0.49590  Biso   1.000  C
  C336     1.0000 0.80210  0.35630  0.53950  Biso   1.000  C
  C337     1.0000 0.10190  0.77590  0.34630  Biso   1.000  C
  C338     1.0000 0.06740  0.80100  0.33060  Biso   1.000  C
  C339     1.0000 0.27590  0.60190  0.77590  Biso   1.000  C
  C340     1.0000 0.30100  0.56740  0.80100  Biso   1.000  C
  C341     1.0000 0.84630  0.77590  0.60190  Biso   1.000  C
  C342     1.0000 0.83060  0.80100  0.56740  Biso   1.000  C
  C343     1.0000 0.27590  0.34630  0.77590  Biso   1.000  C
  C344     1.0000 0.30100  0.33060  0.80100  Biso   1.000  C
  C345     1.0000 0.10190  0.34630  0.77590  Biso   1.000  C
  C346     1.0000 0.06740  0.33060  0.80100  Biso   1.000  C
  C347     1.0000 0.27590  0.77590  0.34630  Biso   1.000  C
  C348     1.0000 0.30100  0.80100  0.33060  Biso   1.000  C
  C349     1.0000 0.84630  0.60190  0.77590  Biso   1.000  C
  C350     1.0000 0.83060  0.56740  0.80100  Biso   1.000  C
  C351     1.0000 0.27590  0.77590  0.60190  Biso   1.000  C
  C352     1.0000 0.30100  0.80100  0.56740  Biso   1.000  C
  C353     1.0000 0.10190  0.77590  0.77590  Biso   1.000  C
  C354     1.0000 0.06740  0.80100  0.80100  Biso   1.000  C
  C355     1.0000 0.27590  0.34630  0.60190  Biso   1.000  C
  C356     1.0000 0.30100  0.33060  0.56740  Biso   1.000  C
  C357     1.0000 0.84630  0.77590  0.77590  Biso   1.000  C
  C358     1.0000 0.83060  0.80100  0.80100  Biso   1.000  C
  C359     1.0000 0.27590  0.60190  0.34630  Biso   1.000  C
  C360     1.0000 0.30100  0.56740  0.33060  Biso   1.000  C
  C361     1.0000 0.72410  0.39810  0.65370  Biso   1.000  C
  C362     1.0000 0.69900  0.43260  0.66940  Biso   1.000  C
  C363     1.0000 0.89810  0.22410  0.22410  Biso   1.000  C
  C364     1.0000 0.93260  0.19900  0.19900  Biso   1.000  C
  C365     1.0000 0.72410  0.65370  0.39810  Biso   1.000  C
  C366     1.0000 0.69900  0.66940  0.43260  Biso   1.000  C
  C367     1.0000 0.15370  0.22410  0.22410  Biso   1.000  C
  C368     1.0000 0.16940  0.19900  0.19900  Biso   1.000  C
  C369     1.0000 0.15370  0.39810  0.22410  Biso   1.000  C
  C370     1.0000 0.16940  0.43260  0.19900  Biso   1.000  C
  C371     1.0000 0.72410  0.22410  0.65370  Biso   1.000  C
  C372     1.0000 0.69900  0.19900  0.66940  Biso   1.000  C
  C373     1.0000 0.89810  0.65370  0.22410  Biso   1.000  C
  C374     1.0000 0.93260  0.66940  0.19900  Biso   1.000  C
  C375     1.0000 0.72410  0.22410  0.39810  Biso   1.000  C
  C376     1.0000 0.69900  0.19900  0.43260  Biso   1.000  C
  C377     1.0000 0.72410  0.39810  0.22410  Biso   1.000  C
  C378     1.0000 0.69900  0.43260  0.19900  Biso   1.000  C
  C379     1.0000 0.15370  0.22410  0.39810  Biso   1.000  C
  C380     1.0000 0.16940  0.19900  0.43260  Biso   1.000  C
  C381     1.0000 0.72410  0.65370  0.22410  Biso   1.000  C
  C382     1.0000 0.69900  0.66940  0.19900  Biso   1.000  C
  C383     1.0000 0.89810  0.22410  0.65370  Biso   1.000  C
  C384     1.0000 0.93260  0.19900  0.66940  Biso   1.000  C
  I1       1.0000 0.99306  0.79904  0.30794  Biso   1.000  I
  I2       1.0000 0.29904  0.49306  0.89996  Biso   1.000  I
  I3       1.0000 0.80794  0.89996  0.49306  Biso   1.000  I
  I4       1.0000 0.39996  0.30794  0.79904  Biso   1.000  I
  I5       1.0000 0.99306  0.30794  0.89996  Biso   1.000  I
  I6       1.0000 0.29904  0.89996  0.30794  Biso   1.000  I
  I7       1.0000 0.80794  0.49306  0.79904  Biso   1.000  I
  I8       1.0000 0.39996  0.79904  0.49306  Biso   1.000  I
  I9       1.0000 0.99306  0.89996  0.79904  Biso   1.000  I
  I10      1.0000 0.29904  0.30794  0.49306  Biso   1.000  I
  I11      1.0000 0.80794  0.79904  0.89996  Biso   1.000  I
  I12      1.0000 0.39996  0.49306  0.30794  Biso   1.000  I
  I13      1.0000 0.70096  0.50694  0.69206  Biso   1.000  I
  I14      1.0000 0.00694  0.20096  0.10004  Biso   1.000  I
  I15      1.0000 0.60004  0.69206  0.50694  Biso   1.000  I
  I16      1.0000 0.19206  0.10004  0.20096  Biso   1.000  I
  I17      1.0000 0.19206  0.50694  0.10004  Biso   1.000  I
  I18      1.0000 0.60004  0.20096  0.69206  Biso   1.000  I
  I19      1.0000 0.00694  0.69206  0.20096  Biso   1.000  I
  I20      1.0000 0.70096  0.10004  0.50694  Biso   1.000  I
  I21      1.0000 0.60004  0.50694  0.20096  Biso   1.000  I
  I22      1.0000 0.19206  0.20096  0.50694  Biso   1.000  I
  I23      1.0000 0.70096  0.69206  0.10004  Biso   1.000  I
  I24      1.0000 0.00694  0.10004  0.69206  Biso   1.000  I
  I25      1.0000 0.00694  0.20096  0.69206  Biso   1.000  I
  I26      1.0000 0.70096  0.50694  0.10004  Biso   1.000  I
  I27      1.0000 0.19206  0.10004  0.50694  Biso   1.000  I
  I28      1.0000 0.60004  0.69206  0.20096  Biso   1.000  I
  I29      1.0000 0.00694  0.69206  0.10004  Biso   1.000  I
  I30      1.0000 0.70096  0.10004  0.69206  Biso   1.000  I
  I31      1.0000 0.19206  0.50694  0.20096  Biso   1.000  I
  I32      1.0000 0.60004  0.20096  0.50694  Biso   1.000  I
  I33      1.0000 0.00694  0.10004  0.20096  Biso   1.000  I
  I34      1.0000 0.70096  0.69206  0.50694  Biso   1.000  I
  I35      1.0000 0.19206  0.20096  0.10004  Biso   1.000  I
  I36      1.0000 0.60004  0.50694  0.69206  Biso   1.000  I
  I37      1.0000 0.29904  0.49306  0.30794  Biso   1.000  I
  I38      1.0000 0.99306  0.79904  0.89996  Biso   1.000  I
  I39      1.0000 0.39996  0.30794  0.49306  Biso   1.000  I
  I40      1.0000 0.80794  0.89996  0.79904  Biso   1.000  I
  I41      1.0000 0.80794  0.49306  0.89996  Biso   1.000  I
  I42      1.0000 0.39996  0.79904  0.30794  Biso   1.000  I
  I43      1.0000 0.99306  0.30794  0.79904  Biso   1.000  I
  I44      1.0000 0.29904  0.89996  0.49306  Biso   1.000  I
  I45      1.0000 0.39996  0.49306  0.79904  Biso   1.000  I
  I46      1.0000 0.80794  0.79904  0.49306  Biso   1.000  I
  I47      1.0000 0.29904  0.30794  0.89996  Biso   1.000  I
  I48      1.0000 0.99306  0.89996  0.30794  Biso   1.000  I
  I49      1.0000 0.09931  0.70207  0.59931  Biso   1.000  I
  I50      1.0000 0.20207  0.59931  0.59931  Biso   1.000  I
  I51      1.0000 0.09931  0.59931  0.59931  Biso   1.000  I
  I52      1.0000 0.09931  0.59931  0.70207  Biso   1.000  I
  I53      1.0000 0.79793  0.40069  0.40069  Biso   1.000  I
  I54      1.0000 0.90069  0.29793  0.40069  Biso   1.000  I
  I55      1.0000 0.90069  0.40069  0.40069  Biso   1.000  I
  I56      1.0000 0.90069  0.40069  0.29793  Biso   1.000  I
  I57      1.0000 0.24339  0.74339  0.26983  Biso   1.000  I
  I58      1.0000 0.24339  0.74339  0.74339  Biso   1.000  I
  I59      1.0000 0.76983  0.74339  0.74339  Biso   1.000  I
  I60      1.0000 0.24339  0.26983  0.74339  Biso   1.000  I
  I61      1.0000 0.75661  0.25661  0.73017  Biso   1.000  I
  I62      1.0000 0.75661  0.25661  0.25661  Biso   1.000  I
  I63      1.0000 0.75661  0.73017  0.25661  Biso   1.000  I
  I64      1.0000 0.23017  0.25661  0.25661  Biso   1.000  I
  I65      1.0000 0.17479  0.77787  0.37255  Biso   1.000  I
  I66      1.0000 0.27787  0.67479  0.67479  Biso   1.000  I
  I67      1.0000 0.87255  0.67479  0.67479  Biso   1.000  I
  I68      1.0000 0.17479  0.37255  0.77787  Biso   1.000  I
  I69      1.0000 0.17479  0.37255  0.67479  Biso   1.000  I
  I70      1.0000 0.27787  0.67479  0.37255  Biso   1.000  I
  I71      1.0000 0.87255  0.67479  0.77787  Biso   1.000  I
  I72      1.0000 0.17479  0.77787  0.67479  Biso   1.000  I
  I73      1.0000 0.17479  0.67479  0.77787  Biso   1.000  I
  I74      1.0000 0.27787  0.37255  0.67479  Biso   1.000  I
  I75      1.0000 0.87255  0.77787  0.67479  Biso   1.000  I
  I76      1.0000 0.17479  0.67479  0.37255  Biso   1.000  I
  I77      1.0000 0.72213  0.32521  0.62745  Biso   1.000  I
  I78      1.0000 0.82521  0.22213  0.32521  Biso   1.000  I
  I79      1.0000 0.82521  0.62745  0.32521  Biso   1.000  I
  I80      1.0000 0.12745  0.32521  0.22213  Biso   1.000  I
  I81      1.0000 0.12745  0.32521  0.32521  Biso   1.000  I
  I82      1.0000 0.82521  0.22213  0.62745  Biso   1.000  I
  I83      1.0000 0.82521  0.62745  0.22213  Biso   1.000  I
  I84      1.0000 0.72213  0.32521  0.32521  Biso   1.000  I
  I85      1.0000 0.82521  0.32521  0.22213  Biso   1.000  I
  I86      1.0000 0.12745  0.22213  0.32521  Biso   1.000  I
  I87      1.0000 0.72213  0.62745  0.32521  Biso   1.000  I
  I88      1.0000 0.82521  0.32521  0.62745  Biso   1.000  I
  I89      1.0000 0.05820  0.86992  0.20196  Biso   1.000  I
  I90      1.0000 0.93357  0.91263  0.24117  Biso   1.000  I
  I91      1.0000 0.36992  0.55820  0.86992  Biso   1.000  I
  I92      1.0000 0.41263  0.43357  0.91263  Biso   1.000  I
  I93      1.0000 0.70196  0.86992  0.55820  Biso   1.000  I
  I94      1.0000 0.74117  0.91263  0.43357  Biso   1.000  I
  I95      1.0000 0.36992  0.20196  0.86992  Biso   1.000  I
  I96      1.0000 0.41263  0.24117  0.91263  Biso   1.000  I
  I97      1.0000 0.05820  0.20196  0.86992  Biso   1.000  I
  I98      1.0000 0.93357  0.24117  0.91263  Biso   1.000  I
  I99      1.0000 0.36992  0.86992  0.20196  Biso   1.000  I
  I100     1.0000 0.41263  0.91263  0.24117  Biso   1.000  I
  I101     1.0000 0.70196  0.55820  0.86992  Biso   1.000  I
  I102     1.0000 0.74117  0.43357  0.91263  Biso   1.000  I
  I103     1.0000 0.36992  0.86992  0.55820  Biso   1.000  I
  I104     1.0000 0.41263  0.91263  0.43357  Biso   1.000  I
  I105     1.0000 0.05820  0.86992  0.86992  Biso   1.000  I
  I106     1.0000 0.93357  0.91263  0.91263  Biso   1.000  I
  I107     1.0000 0.36992  0.20196  0.55820  Biso   1.000  I
  I108     1.0000 0.41263  0.24117  0.43357  Biso   1.000  I
  I109     1.0000 0.70196  0.86992  0.86992  Biso   1.000  I
  I110     1.0000 0.74117  0.91263  0.91263  Biso   1.000  I
  I111     1.0000 0.36992  0.55820  0.20196  Biso   1.000  I
  I112     1.0000 0.41263  0.43357  0.24117  Biso   1.000  I
  I113     1.0000 0.63008  0.44180  0.79804  Biso   1.000  I
  I114     1.0000 0.58737  0.56643  0.75883  Biso   1.000  I
  I115     1.0000 0.94180  0.13008  0.13008  Biso   1.000  I
  I116     1.0000 0.06643  0.08737  0.08737  Biso   1.000  I
  I117     1.0000 0.63008  0.79804  0.44180  Biso   1.000  I
  I118     1.0000 0.58737  0.75883  0.56643  Biso   1.000  I
  I119     1.0000 0.29804  0.13008  0.13008  Biso   1.000  I
  I120     1.0000 0.25883  0.08737  0.08737  Biso   1.000  I
  I121     1.0000 0.29804  0.44180  0.13008  Biso   1.000  I
  I122     1.0000 0.25883  0.56643  0.08737  Biso   1.000  I
  I123     1.0000 0.63008  0.13008  0.79804  Biso   1.000  I
  I124     1.0000 0.58737  0.08737  0.75883  Biso   1.000  I
  I125     1.0000 0.94180  0.79804  0.13008  Biso   1.000  I
  I126     1.0000 0.06643  0.75883  0.08737  Biso   1.000  I
  I127     1.0000 0.63008  0.13008  0.44180  Biso   1.000  I
  I128     1.0000 0.58737  0.08737  0.56643  Biso   1.000  I
  I129     1.0000 0.63008  0.44180  0.13008  Biso   1.000  I
  I130     1.0000 0.58737  0.56643  0.08737  Biso   1.000  I
  I131     1.0000 0.29804  0.13008  0.44180  Biso   1.000  I
  I132     1.0000 0.25883  0.08737  0.56643  Biso   1.000  I
  I133     1.0000 0.63008  0.79804  0.13008  Biso   1.000  I
  I134     1.0000 0.58737  0.75883  0.08737  Biso   1.000  I
  I135     1.0000 0.94180  0.13008  0.79804  Biso   1.000  I
  I136     1.0000 0.06643  0.08737  0.75883  Biso   1.000  I
  N1       1.0000 0.99830  0.82590  0.20790  Biso   1.000  N
  N2       1.0000 0.32590  0.49830  0.96790  Biso   1.000  N
  N3       1.0000 0.70790  0.96790  0.49830  Biso   1.000  N
  N4       1.0000 0.46790  0.20790  0.82590  Biso   1.000  N
  N5       1.0000 0.99830  0.20790  0.96790  Biso   1.000  N
  N6       1.0000 0.32590  0.96790  0.20790  Biso   1.000  N
  N7       1.0000 0.70790  0.49830  0.82590  Biso   1.000  N
  N8       1.0000 0.46790  0.82590  0.49830  Biso   1.000  N
  N9       1.0000 0.99830  0.96790  0.82590  Biso   1.000  N
  N10      1.0000 0.32590  0.20790  0.49830  Biso   1.000  N
  N11      1.0000 0.70790  0.82590  0.96790  Biso   1.000  N
  N12      1.0000 0.46790  0.49830  0.20790  Biso   1.000  N
  N13      1.0000 0.67410  0.50170  0.79210  Biso   1.000  N
  N14      1.0000 0.00170  0.17410  0.03210  Biso   1.000  N
  N15      1.0000 0.53210  0.79210  0.50170  Biso   1.000  N
  N16      1.0000 0.29210  0.03210  0.17410  Biso   1.000  N
  N17      1.0000 0.29210  0.50170  0.03210  Biso   1.000  N
  N18      1.0000 0.53210  0.17410  0.79210  Biso   1.000  N
  N19      1.0000 0.00170  0.79210  0.17410  Biso   1.000  N
  N20      1.0000 0.67410  0.03210  0.50170  Biso   1.000  N
  N21      1.0000 0.53210  0.50170  0.17410  Biso   1.000  N
  N22      1.0000 0.29210  0.17410  0.50170  Biso   1.000  N
  N23      1.0000 0.67410  0.79210  0.03210  Biso   1.000  N
  N24      1.0000 0.00170  0.03210  0.79210  Biso   1.000  N
  N25      1.0000 0.00170  0.17410  0.79210  Biso   1.000  N
  N26      1.0000 0.67410  0.50170  0.03210  Biso   1.000  N
  N27      1.0000 0.29210  0.03210  0.50170  Biso   1.000  N
  N28      1.0000 0.53210  0.79210  0.17410  Biso   1.000  N
  N29      1.0000 0.00170  0.79210  0.03210  Biso   1.000  N
  N30      1.0000 0.67410  0.03210  0.79210  Biso   1.000  N
  N31      1.0000 0.29210  0.50170  0.17410  Biso   1.000  N
  N32      1.0000 0.53210  0.17410  0.50170  Biso   1.000  N
  N33      1.0000 0.00170  0.03210  0.17410  Biso   1.000  N
  N34      1.0000 0.67410  0.79210  0.50170  Biso   1.000  N
  N35      1.0000 0.29210  0.17410  0.03210  Biso   1.000  N
  N36      1.0000 0.53210  0.50170  0.79210  Biso   1.000  N
  N37      1.0000 0.32590  0.49830  0.20790  Biso   1.000  N
  N38      1.0000 0.99830  0.82590  0.96790  Biso   1.000  N
  N39      1.0000 0.46790  0.20790  0.49830  Biso   1.000  N
  N40      1.0000 0.70790  0.96790  0.82590  Biso   1.000  N
  N41      1.0000 0.70790  0.49830  0.96790  Biso   1.000  N
  N42      1.0000 0.46790  0.82590  0.20790  Biso   1.000  N
  N43      1.0000 0.99830  0.20790  0.82590  Biso   1.000  N
  N44      1.0000 0.32590  0.96790  0.49830  Biso   1.000  N
  N45      1.0000 0.46790  0.49830  0.82590  Biso   1.000  N
  N46      1.0000 0.70790  0.82590  0.49830  Biso   1.000  N
  N47      1.0000 0.32590  0.20790  0.96790  Biso   1.000  N
  N48      1.0000 0.99830  0.96790  0.20790  Biso   1.000  N
  N49      1.0000 0.15940  0.65940  0.52180  Biso   1.000  N
  N50      1.0000 0.18400  0.68400  0.44800  Biso   1.000  N
  N51      1.0000 0.15940  0.65940  0.65940  Biso   1.000  N
  N52      1.0000 0.18400  0.68400  0.68400  Biso   1.000  N
  N53      1.0000 0.02180  0.65940  0.65940  Biso   1.000  N
  N54      1.0000 0.94800  0.68400  0.68400  Biso   1.000  N
  N55      1.0000 0.15940  0.52180  0.65940  Biso   1.000  N
  N56      1.0000 0.18400  0.44800  0.68400  Biso   1.000  N
  N57      1.0000 0.84060  0.34060  0.47820  Biso   1.000  N
  N58      1.0000 0.81600  0.31600  0.55200  Biso   1.000  N
  N59      1.0000 0.84060  0.34060  0.34060  Biso   1.000  N
  N60      1.0000 0.81600  0.31600  0.31600  Biso   1.000  N
  N61      1.0000 0.84060  0.47820  0.34060  Biso   1.000  N
  N62      1.0000 0.81600  0.55200  0.31600  Biso   1.000  N
  N63      1.0000 0.97820  0.34060  0.34060  Biso   1.000  N
  N64      1.0000 0.05200  0.31600  0.31600  Biso   1.000  N
  N65      1.0000 0.13730  0.77570  0.31130  Biso   1.000  N
  N66      1.0000 0.07890  0.81590  0.28930  Biso   1.000  N
  N67      1.0000 0.90740  0.87280  0.34700  Biso   1.000  N
  N68      1.0000 0.27570  0.63730  0.77570  Biso   1.000  N
  N69      1.0000 0.31590  0.57890  0.81590  Biso   1.000  N
  N70      1.0000 0.37280  0.40740  0.87280  Biso   1.000  N
  N71      1.0000 0.81130  0.77570  0.63730  Biso   1.000  N
  N72      1.0000 0.78930  0.81590  0.57890  Biso   1.000  N
  N73      1.0000 0.84700  0.87280  0.40740  Biso   1.000  N
  N74      1.0000 0.27570  0.31130  0.77570  Biso   1.000  N
  N75      1.0000 0.31590  0.28930  0.81590  Biso   1.000  N
  N76      1.0000 0.37280  0.34700  0.87280  Biso   1.000  N
  N77      1.0000 0.13730  0.31130  0.77570  Biso   1.000  N
  N78      1.0000 0.07890  0.28930  0.81590  Biso   1.000  N
  N79      1.0000 0.90740  0.34700  0.87280  Biso   1.000  N
  N80      1.0000 0.27570  0.77570  0.31130  Biso   1.000  N
  N81      1.0000 0.31590  0.81590  0.28930  Biso   1.000  N
  N82      1.0000 0.37280  0.87280  0.34700  Biso   1.000  N
  N83      1.0000 0.81130  0.63730  0.77570  Biso   1.000  N
  N84      1.0000 0.78930  0.57890  0.81590  Biso   1.000  N
  N85      1.0000 0.84700  0.40740  0.87280  Biso   1.000  N
  N86      1.0000 0.27570  0.77570  0.63730  Biso   1.000  N
  N87      1.0000 0.31590  0.81590  0.57890  Biso   1.000  N
  N88      1.0000 0.37280  0.87280  0.40740  Biso   1.000  N
  N89      1.0000 0.13730  0.77570  0.77570  Biso   1.000  N
  N90      1.0000 0.07890  0.81590  0.81590  Biso   1.000  N
  N91      1.0000 0.90740  0.87280  0.87280  Biso   1.000  N
  N92      1.0000 0.27570  0.31130  0.63730  Biso   1.000  N
  N93      1.0000 0.31590  0.28930  0.57890  Biso   1.000  N
  N94      1.0000 0.37280  0.34700  0.40740  Biso   1.000  N
  N95      1.0000 0.81130  0.77570  0.77570  Biso   1.000  N
  N96      1.0000 0.78930  0.81590  0.81590  Biso   1.000  N
  N97      1.0000 0.84700  0.87280  0.87280  Biso   1.000  N
  N98      1.0000 0.27570  0.63730  0.31130  Biso   1.000  N
  N99      1.0000 0.31590  0.57890  0.28930  Biso   1.000  N
  N100     1.0000 0.37280  0.40740  0.34700  Biso   1.000  N
  N101     1.0000 0.72430  0.36270  0.68870  Biso   1.000  N
  N102     1.0000 0.68410  0.42110  0.71070  Biso   1.000  N
  N103     1.0000 0.62720  0.59260  0.65300  Biso   1.000  N
  N104     1.0000 0.86270  0.22430  0.22430  Biso   1.000  N
  N105     1.0000 0.92110  0.18410  0.18410  Biso   1.000  N
  N106     1.0000 0.09260  0.12720  0.12720  Biso   1.000  N
  N107     1.0000 0.72430  0.68870  0.36270  Biso   1.000  N
  N108     1.0000 0.68410  0.71070  0.42110  Biso   1.000  N
  N109     1.0000 0.62720  0.65300  0.59260  Biso   1.000  N
  N110     1.0000 0.18870  0.22430  0.22430  Biso   1.000  N
  N111     1.0000 0.21070  0.18410  0.18410  Biso   1.000  N
  N112     1.0000 0.15300  0.12720  0.12720  Biso   1.000  N
  N113     1.0000 0.18870  0.36270  0.22430  Biso   1.000  N
  N114     1.0000 0.21070  0.42110  0.18410  Biso   1.000  N
  N115     1.0000 0.15300  0.59260  0.12720  Biso   1.000  N
  N116     1.0000 0.72430  0.22430  0.68870  Biso   1.000  N
  N117     1.0000 0.68410  0.18410  0.71070  Biso   1.000  N
  N118     1.0000 0.62720  0.12720  0.65300  Biso   1.000  N
  N119     1.0000 0.86270  0.68870  0.22430  Biso   1.000  N
  N120     1.0000 0.92110  0.71070  0.18410  Biso   1.000  N
  N121     1.0000 0.09260  0.65300  0.12720  Biso   1.000  N
  N122     1.0000 0.72430  0.22430  0.36270  Biso   1.000  N
  N123     1.0000 0.68410  0.18410  0.42110  Biso   1.000  N
  N124     1.0000 0.62720  0.12720  0.59260  Biso   1.000  N
  N125     1.0000 0.72430  0.36270  0.22430  Biso   1.000  N
  N126     1.0000 0.68410  0.42110  0.18410  Biso   1.000  N
  N127     1.0000 0.62720  0.59260  0.12720  Biso   1.000  N
  N128     1.0000 0.18870  0.22430  0.36270  Biso   1.000  N
  N129     1.0000 0.21070  0.18410  0.42110  Biso   1.000  N
  N130     1.0000 0.15300  0.12720  0.59260  Biso   1.000  N
  N131     1.0000 0.72430  0.68870  0.22430  Biso   1.000  N
  N132     1.0000 0.68410  0.71070  0.18410  Biso   1.000  N
  N133     1.0000 0.62720  0.65300  0.12720  Biso   1.000  N
  N134     1.0000 0.86270  0.22430  0.68870  Biso   1.000  N
  N135     1.0000 0.92110  0.18410  0.71070  Biso   1.000  N
  N136     1.0000 0.09260  0.12720  0.65300  Biso   1.000  N
