data_image0
_cell_length_a       23.833
_cell_length_b       23.833
_cell_length_c       23.833
_cell_angle_alpha    109.471
_cell_angle_beta     109.471
_cell_angle_gamma    109.471

_symmetry_space_group_name_H-M    P 1
_symmetry_int_tables_number       1

loop_
  _symmetry_equiv_pos_as_xyz
  'x, y, z'

loop_
  _atom_site_label
  _atom_site_occupancy
  _atom_site_fract_x
  _atom_site_fract_y
  _atom_site_fract_z
  _atom_site_thermal_displace_type
  _atom_site_B_iso_or_equiv
  _atom_site_type_symbol
  Eu1      1.0000 0.45234  0.45234  0.95234  Biso   1.000  Eu
  Eu2      1.0000 0.00000  0.50000  0.54766  Biso   1.000  Eu
  Eu3      1.0000 0.50000  0.04766  0.50000  Biso   1.000  Eu
  Eu4      1.0000 0.04766  0.00000  0.00000  Biso   1.000  Eu
  Eu5      1.0000 0.00000  0.50000  0.04766  Biso   1.000  Eu
  Eu6      1.0000 0.95234  0.95234  0.45234  Biso   1.000  Eu
  Eu7      1.0000 0.50000  0.54766  0.50000  Biso   1.000  Eu
  Eu8      1.0000 0.54766  0.00000  0.00000  Biso   1.000  Eu
  H1       1.0000 0.64600  0.50080  0.18080  Biso   1.000  H
  H2       1.0000 0.70120  0.38060  0.22140  Biso   1.000  H
  H3       1.0000 0.63020  0.31250  0.16650  Biso   1.000  H
  H4       1.0000 0.67380  0.31490  0.10450  Biso   1.000  H
  H5       1.0000 0.69090  0.30420  0.00910  Biso   1.000  H
  H6       1.0000 0.65930  0.35640  0.95290  Biso   1.000  H
  H7       1.0000 0.60710  0.41450  0.98320  Biso   1.000  H
  H8       1.0000 0.61850  0.59470  0.17540  Biso   1.000  H
  H9       1.0000 0.54280  0.53280  0.13580  Biso   1.000  H
  H10      1.0000 0.51920  0.46770  0.21190  Biso   1.000  H
  H11      1.0000 0.54700  0.53010  0.33450  Biso   1.000  H
  H12      1.0000 0.65050  0.64870  0.39280  Biso   1.000  H
  H13      1.0000 0.82000  0.46520  0.31920  Biso   1.000  H
  H14      1.0000 0.65920  0.47980  0.27860  Biso   1.000  H
  H15      1.0000 0.64600  0.46370  0.33350  Biso   1.000  H
  H16      1.0000 0.71040  0.56930  0.39550  Biso   1.000  H
  H17      1.0000 0.79510  0.68180  0.49090  Biso   1.000  H
  H18      1.0000 0.90350  0.70640  0.54710  Biso   1.000  H
  H19      1.0000 0.93130  0.62390  0.51680  Biso   1.000  H
  H20      1.0000 0.91930  0.44310  0.32460  Biso   1.000  H
  H21      1.0000 0.89700  0.40700  0.36420  Biso   1.000  H
  H22      1.0000 0.75580  0.30730  0.28810  Biso   1.000  H
  H23      1.0000 0.69560  0.21250  0.16550  Biso   1.000  H
  H24      1.0000 0.75590  0.25770  0.10720  Biso   1.000  H
  H25      1.0000 0.68000  0.99920  0.64520  Biso   1.000  H
  H26      1.0000 0.84080  0.11940  0.82060  Biso   1.000  H
  H27      1.0000 0.85400  0.18750  0.81770  Biso   1.000  H
  H28      1.0000 0.78960  0.18510  0.85890  Biso   1.000  H
  H29      1.0000 0.70490  0.19580  0.88670  Biso   1.000  H
  H30      1.0000 0.59650  0.14360  0.80290  Biso   1.000  H
  H31      1.0000 0.56870  0.08550  0.69260  Biso   1.000  H
  H32      1.0000 0.58070  0.90530  0.52380  Biso   1.000  H
  H33      1.0000 0.60300  0.96720  0.51000  Biso   1.000  H
  H34      1.0000 0.74420  0.03230  0.55150  Biso   1.000  H
  H35      1.0000 0.80440  0.96990  0.51690  Biso   1.000  H
  H36      1.0000 0.74410  0.85130  0.50180  Biso   1.000  H
  H37      1.0000 0.85400  0.03480  0.85480  Biso   1.000  H
  H38      1.0000 0.79880  0.02020  0.67940  Biso   1.000  H
  H39      1.0000 0.86980  0.03630  0.68230  Biso   1.000  H
  H40      1.0000 0.82620  0.93070  0.64110  Biso   1.000  H
  H41      1.0000 0.80910  0.81820  0.61330  Biso   1.000  H
  H42      1.0000 0.84070  0.79360  0.69710  Biso   1.000  H
  H43      1.0000 0.89290  0.87610  0.80740  Biso   1.000  H
  H44      1.0000 0.88150  0.05690  0.97620  Biso   1.000  H
  H45      1.0000 0.95720  0.09300  0.99000  Biso   1.000  H
  H46      1.0000 0.98080  0.19270  0.94850  Biso   1.000  H
  H47      1.0000 0.95300  0.28750  0.98310  Biso   1.000  H
  H48      1.0000 0.84950  0.24230  0.99820  Biso   1.000  H
  H49      1.0000 0.14520  0.68000  0.49920  Biso   1.000  H
  H50      1.0000 0.32060  0.84080  0.61940  Biso   1.000  H
  H51      1.0000 0.31770  0.85400  0.68750  Biso   1.000  H
  H52      1.0000 0.35890  0.78960  0.68510  Biso   1.000  H
  H53      1.0000 0.38670  0.70490  0.69580  Biso   1.000  H
  H54      1.0000 0.30290  0.59650  0.64360  Biso   1.000  H
  H55      1.0000 0.19260  0.56870  0.58550  Biso   1.000  H
  H56      1.0000 0.02380  0.58070  0.40530  Biso   1.000  H
  H57      1.0000 0.01000  0.60300  0.46720  Biso   1.000  H
  H58      1.0000 0.05150  0.74420  0.53230  Biso   1.000  H
  H59      1.0000 0.01690  0.80440  0.46990  Biso   1.000  H
  H60      1.0000 0.00180  0.74410  0.35130  Biso   1.000  H
  H61      1.0000 0.35480  0.85400  0.53480  Biso   1.000  H
  H62      1.0000 0.17940  0.79880  0.52020  Biso   1.000  H
  H63      1.0000 0.18230  0.86980  0.53630  Biso   1.000  H
  H64      1.0000 0.14110  0.82620  0.43070  Biso   1.000  H
  H65      1.0000 0.11330  0.80910  0.31820  Biso   1.000  H
  H66      1.0000 0.19710  0.84070  0.29360  Biso   1.000  H
  H67      1.0000 0.30740  0.89290  0.37610  Biso   1.000  H
  H68      1.0000 0.47620  0.88150  0.55690  Biso   1.000  H
  H69      1.0000 0.49000  0.95720  0.59300  Biso   1.000  H
  H70      1.0000 0.44850  0.98080  0.69270  Biso   1.000  H
  H71      1.0000 0.48310  0.95300  0.78750  Biso   1.000  H
  H72      1.0000 0.49820  0.84950  0.74230  Biso   1.000  H
  H73      1.0000 0.68080  0.64600  0.00080  Biso   1.000  H
  H74      1.0000 0.72140  0.70120  0.88060  Biso   1.000  H
  H75      1.0000 0.66650  0.63020  0.81250  Biso   1.000  H
  H76      1.0000 0.60450  0.67380  0.81490  Biso   1.000  H
  H77      1.0000 0.50910  0.69090  0.80420  Biso   1.000  H
  H78      1.0000 0.45290  0.65930  0.85640  Biso   1.000  H
  H79      1.0000 0.48320  0.60710  0.91450  Biso   1.000  H
  H80      1.0000 0.67540  0.61850  0.09470  Biso   1.000  H
  H81      1.0000 0.63580  0.54280  0.03280  Biso   1.000  H
  H82      1.0000 0.71190  0.51920  0.96770  Biso   1.000  H
  H83      1.0000 0.83450  0.54700  0.03010  Biso   1.000  H
  H84      1.0000 0.89280  0.65050  0.14870  Biso   1.000  H
  H85      1.0000 0.81920  0.82000  0.96520  Biso   1.000  H
  H86      1.0000 0.77860  0.65920  0.97980  Biso   1.000  H
  H87      1.0000 0.83350  0.64600  0.96370  Biso   1.000  H
  H88      1.0000 0.89550  0.71040  0.06930  Biso   1.000  H
  H89      1.0000 0.99090  0.79510  0.18180  Biso   1.000  H
  H90      1.0000 0.04710  0.90350  0.20640  Biso   1.000  H
  H91      1.0000 0.01680  0.93130  0.12390  Biso   1.000  H
  H92      1.0000 0.82460  0.91930  0.94310  Biso   1.000  H
  H93      1.0000 0.86420  0.89700  0.90700  Biso   1.000  H
  H94      1.0000 0.78810  0.75580  0.80730  Biso   1.000  H
  H95      1.0000 0.66550  0.69560  0.71250  Biso   1.000  H
  H96      1.0000 0.60720  0.75590  0.75770  Biso   1.000  H
  H97      1.0000 0.46520  0.81920  0.32000  Biso   1.000  H
  H98      1.0000 0.47980  0.77860  0.15920  Biso   1.000  H
  H99      1.0000 0.46370  0.83350  0.14600  Biso   1.000  H
  H100     1.0000 0.56930  0.89550  0.21040  Biso   1.000  H
  H101     1.0000 0.68180  0.99090  0.29510  Biso   1.000  H
  H102     1.0000 0.70640  0.04710  0.40350  Biso   1.000  H
  H103     1.0000 0.62390  0.01680  0.43130  Biso   1.000  H
  H104     1.0000 0.44310  0.82460  0.41930  Biso   1.000  H
  H105     1.0000 0.40700  0.86420  0.39700  Biso   1.000  H
  H106     1.0000 0.30730  0.78810  0.25580  Biso   1.000  H
  H107     1.0000 0.21250  0.66550  0.19560  Biso   1.000  H
  H108     1.0000 0.25770  0.60720  0.25590  Biso   1.000  H
  H109     1.0000 0.50080  0.68080  0.14600  Biso   1.000  H
  H110     1.0000 0.38060  0.72140  0.20120  Biso   1.000  H
  H111     1.0000 0.31250  0.66650  0.13020  Biso   1.000  H
  H112     1.0000 0.31490  0.60450  0.17380  Biso   1.000  H
  H113     1.0000 0.30420  0.50910  0.19090  Biso   1.000  H
  H114     1.0000 0.35640  0.45290  0.15930  Biso   1.000  H
  H115     1.0000 0.41450  0.48320  0.10710  Biso   1.000  H
  H116     1.0000 0.59470  0.67540  0.11850  Biso   1.000  H
  H117     1.0000 0.53280  0.63580  0.04280  Biso   1.000  H
  H118     1.0000 0.46770  0.71190  0.01920  Biso   1.000  H
  H119     1.0000 0.53010  0.83450  0.04700  Biso   1.000  H
  H120     1.0000 0.64870  0.89280  0.15050  Biso   1.000  H
  H121     1.0000 0.03480  0.35480  0.35400  Biso   1.000  H
  H122     1.0000 0.02020  0.17940  0.29880  Biso   1.000  H
  H123     1.0000 0.03630  0.18230  0.36980  Biso   1.000  H
  H124     1.0000 0.93070  0.14110  0.32620  Biso   1.000  H
  H125     1.0000 0.81820  0.11330  0.30910  Biso   1.000  H
  H126     1.0000 0.79360  0.19710  0.34070  Biso   1.000  H
  H127     1.0000 0.87610  0.30740  0.39290  Biso   1.000  H
  H128     1.0000 0.05690  0.47620  0.38150  Biso   1.000  H
  H129     1.0000 0.09300  0.49000  0.45720  Biso   1.000  H
  H130     1.0000 0.19270  0.44850  0.48080  Biso   1.000  H
  H131     1.0000 0.28750  0.48310  0.45300  Biso   1.000  H
  H132     1.0000 0.24230  0.49820  0.34950  Biso   1.000  H
  H133     1.0000 0.99920  0.14520  0.18000  Biso   1.000  H
  H134     1.0000 0.11940  0.32060  0.34080  Biso   1.000  H
  H135     1.0000 0.18750  0.31770  0.35400  Biso   1.000  H
  H136     1.0000 0.18510  0.35890  0.28960  Biso   1.000  H
  H137     1.0000 0.19580  0.38670  0.20490  Biso   1.000  H
  H138     1.0000 0.14360  0.30290  0.09650  Biso   1.000  H
  H139     1.0000 0.08550  0.19260  0.06870  Biso   1.000  H
  H140     1.0000 0.90530  0.02380  0.08070  Biso   1.000  H
  H141     1.0000 0.96720  0.01000  0.10300  Biso   1.000  H
  H142     1.0000 0.03230  0.05150  0.24420  Biso   1.000  H
  H143     1.0000 0.96990  0.01690  0.30440  Biso   1.000  H
  H144     1.0000 0.85130  0.00180  0.24410  Biso   1.000  H
  H145     1.0000 0.96520  0.32000  0.81920  Biso   1.000  H
  H146     1.0000 0.97980  0.15920  0.77860  Biso   1.000  H
  H147     1.0000 0.96370  0.14600  0.83350  Biso   1.000  H
  H148     1.0000 0.06930  0.21040  0.89550  Biso   1.000  H
  H149     1.0000 0.18180  0.29510  0.99090  Biso   1.000  H
  H150     1.0000 0.20640  0.40350  0.04710  Biso   1.000  H
  H151     1.0000 0.12390  0.43130  0.01680  Biso   1.000  H
  H152     1.0000 0.94310  0.41930  0.82460  Biso   1.000  H
  H153     1.0000 0.90700  0.39700  0.86420  Biso   1.000  H
  H154     1.0000 0.80730  0.25580  0.78810  Biso   1.000  H
  H155     1.0000 0.71250  0.19560  0.66550  Biso   1.000  H
  H156     1.0000 0.75770  0.25590  0.60720  Biso   1.000  H
  H157     1.0000 0.00080  0.14600  0.68080  Biso   1.000  H
  H158     1.0000 0.88060  0.20120  0.72140  Biso   1.000  H
  H159     1.0000 0.81250  0.13020  0.66650  Biso   1.000  H
  H160     1.0000 0.81490  0.17380  0.60450  Biso   1.000  H
  H161     1.0000 0.80420  0.19090  0.50910  Biso   1.000  H
  H162     1.0000 0.85640  0.15930  0.45290  Biso   1.000  H
  H163     1.0000 0.91450  0.10710  0.48320  Biso   1.000  H
  H164     1.0000 0.09470  0.11850  0.67540  Biso   1.000  H
  H165     1.0000 0.03280  0.04280  0.63580  Biso   1.000  H
  H166     1.0000 0.96770  0.01920  0.71190  Biso   1.000  H
  H167     1.0000 0.03010  0.04700  0.83450  Biso   1.000  H
  H168     1.0000 0.14870  0.15050  0.89280  Biso   1.000  H
  H169     1.0000 0.53480  0.35400  0.35480  Biso   1.000  H
  H170     1.0000 0.52020  0.29880  0.17940  Biso   1.000  H
  H171     1.0000 0.53630  0.36980  0.18230  Biso   1.000  H
  H172     1.0000 0.43070  0.32620  0.14110  Biso   1.000  H
  H173     1.0000 0.31820  0.30910  0.11330  Biso   1.000  H
  H174     1.0000 0.29360  0.34070  0.19710  Biso   1.000  H
  H175     1.0000 0.37610  0.39290  0.30740  Biso   1.000  H
  H176     1.0000 0.55690  0.38150  0.47620  Biso   1.000  H
  H177     1.0000 0.59300  0.45720  0.49000  Biso   1.000  H
  H178     1.0000 0.69270  0.48080  0.44850  Biso   1.000  H
  H179     1.0000 0.78750  0.45300  0.48310  Biso   1.000  H
  H180     1.0000 0.74230  0.34950  0.49820  Biso   1.000  H
  H181     1.0000 0.49920  0.18000  0.14520  Biso   1.000  H
  H182     1.0000 0.61940  0.34080  0.32060  Biso   1.000  H
  H183     1.0000 0.68750  0.35400  0.31770  Biso   1.000  H
  H184     1.0000 0.68510  0.28960  0.35890  Biso   1.000  H
  H185     1.0000 0.69580  0.20490  0.38670  Biso   1.000  H
  H186     1.0000 0.64360  0.09650  0.30290  Biso   1.000  H
  H187     1.0000 0.58550  0.06870  0.19260  Biso   1.000  H
  H188     1.0000 0.40530  0.08070  0.02380  Biso   1.000  H
  H189     1.0000 0.46720  0.10300  0.01000  Biso   1.000  H
  H190     1.0000 0.53230  0.24420  0.05150  Biso   1.000  H
  H191     1.0000 0.46990  0.30440  0.01690  Biso   1.000  H
  H192     1.0000 0.35130  0.24410  0.00180  Biso   1.000  H
  H193     1.0000 0.14600  0.18080  0.50080  Biso   1.000  H
  H194     1.0000 0.20120  0.22140  0.38060  Biso   1.000  H
  H195     1.0000 0.13020  0.16650  0.31250  Biso   1.000  H
  H196     1.0000 0.17380  0.10450  0.31490  Biso   1.000  H
  H197     1.0000 0.19090  0.00910  0.30420  Biso   1.000  H
  H198     1.0000 0.15930  0.95290  0.35640  Biso   1.000  H
  H199     1.0000 0.10710  0.98320  0.41450  Biso   1.000  H
  H200     1.0000 0.11850  0.17540  0.59470  Biso   1.000  H
  H201     1.0000 0.04280  0.13580  0.53280  Biso   1.000  H
  H202     1.0000 0.01920  0.21190  0.46770  Biso   1.000  H
  H203     1.0000 0.04700  0.33450  0.53010  Biso   1.000  H
  H204     1.0000 0.15050  0.39280  0.64870  Biso   1.000  H
  H205     1.0000 0.32000  0.31920  0.46520  Biso   1.000  H
  H206     1.0000 0.15920  0.27860  0.47980  Biso   1.000  H
  H207     1.0000 0.14600  0.33350  0.46370  Biso   1.000  H
  H208     1.0000 0.21040  0.39550  0.56930  Biso   1.000  H
  H209     1.0000 0.29510  0.49090  0.68180  Biso   1.000  H
  H210     1.0000 0.40350  0.54710  0.70640  Biso   1.000  H
  H211     1.0000 0.43130  0.51680  0.62390  Biso   1.000  H
  H212     1.0000 0.41930  0.32460  0.44310  Biso   1.000  H
  H213     1.0000 0.39700  0.36420  0.40700  Biso   1.000  H
  H214     1.0000 0.25580  0.28810  0.30730  Biso   1.000  H
  H215     1.0000 0.19560  0.16550  0.21250  Biso   1.000  H
  H216     1.0000 0.25590  0.10720  0.25770  Biso   1.000  H
  H217     1.0000 0.18000  0.64520  0.99920  Biso   1.000  H
  H218     1.0000 0.34080  0.82060  0.11940  Biso   1.000  H
  H219     1.0000 0.35400  0.81770  0.18750  Biso   1.000  H
  H220     1.0000 0.28960  0.85890  0.18510  Biso   1.000  H
  H221     1.0000 0.20490  0.88670  0.19580  Biso   1.000  H
  H222     1.0000 0.09650  0.80290  0.14360  Biso   1.000  H
  H223     1.0000 0.06870  0.69260  0.08550  Biso   1.000  H
  H224     1.0000 0.08070  0.52380  0.90530  Biso   1.000  H
  H225     1.0000 0.10300  0.51000  0.96720  Biso   1.000  H
  H226     1.0000 0.24420  0.55150  0.03230  Biso   1.000  H
  H227     1.0000 0.30440  0.51690  0.96990  Biso   1.000  H
  H228     1.0000 0.24410  0.50180  0.85130  Biso   1.000  H
  H229     1.0000 0.35400  0.85480  0.03480  Biso   1.000  H
  H230     1.0000 0.29880  0.67940  0.02020  Biso   1.000  H
  H231     1.0000 0.36980  0.68230  0.03630  Biso   1.000  H
  H232     1.0000 0.32620  0.64110  0.93070  Biso   1.000  H
  H233     1.0000 0.30910  0.61330  0.81820  Biso   1.000  H
  H234     1.0000 0.34070  0.69710  0.79360  Biso   1.000  H
  H235     1.0000 0.39290  0.80740  0.87610  Biso   1.000  H
  H236     1.0000 0.38150  0.97620  0.05690  Biso   1.000  H
  H237     1.0000 0.45720  0.99000  0.09300  Biso   1.000  H
  H238     1.0000 0.48080  0.94850  0.19270  Biso   1.000  H
  H239     1.0000 0.45300  0.98310  0.28750  Biso   1.000  H
  H240     1.0000 0.34950  0.99820  0.24230  Biso   1.000  H
  H241     1.0000 0.64520  0.49920  0.68000  Biso   1.000  H
  H242     1.0000 0.82060  0.61940  0.84080  Biso   1.000  H
  H243     1.0000 0.81770  0.68750  0.85400  Biso   1.000  H
  H244     1.0000 0.85890  0.68510  0.78960  Biso   1.000  H
  H245     1.0000 0.88670  0.69580  0.70490  Biso   1.000  H
  H246     1.0000 0.80290  0.64360  0.59650  Biso   1.000  H
  H247     1.0000 0.69260  0.58550  0.56870  Biso   1.000  H
  H248     1.0000 0.52380  0.40530  0.58070  Biso   1.000  H
  H249     1.0000 0.51000  0.46720  0.60300  Biso   1.000  H
  H250     1.0000 0.55150  0.53230  0.74420  Biso   1.000  H
  H251     1.0000 0.51690  0.46990  0.80440  Biso   1.000  H
  H252     1.0000 0.50180  0.35130  0.74410  Biso   1.000  H
  H253     1.0000 0.85480  0.53480  0.85400  Biso   1.000  H
  H254     1.0000 0.67940  0.52020  0.79880  Biso   1.000  H
  H255     1.0000 0.68230  0.53630  0.86980  Biso   1.000  H
  H256     1.0000 0.64110  0.43070  0.82620  Biso   1.000  H
  H257     1.0000 0.61330  0.31820  0.80910  Biso   1.000  H
  H258     1.0000 0.69710  0.29360  0.84070  Biso   1.000  H
  H259     1.0000 0.80740  0.37610  0.89290  Biso   1.000  H
  H260     1.0000 0.97620  0.55690  0.88150  Biso   1.000  H
  H261     1.0000 0.99000  0.59300  0.95720  Biso   1.000  H
  H262     1.0000 0.94850  0.69270  0.98080  Biso   1.000  H
  H263     1.0000 0.98310  0.78750  0.95300  Biso   1.000  H
  H264     1.0000 0.99820  0.74230  0.84950  Biso   1.000  H
  H265     1.0000 0.18080  0.00080  0.64600  Biso   1.000  H
  H266     1.0000 0.22140  0.88060  0.70120  Biso   1.000  H
  H267     1.0000 0.16650  0.81250  0.63020  Biso   1.000  H
  H268     1.0000 0.10450  0.81490  0.67380  Biso   1.000  H
  H269     1.0000 0.00910  0.80420  0.69090  Biso   1.000  H
  H270     1.0000 0.95290  0.85640  0.65930  Biso   1.000  H
  H271     1.0000 0.98320  0.91450  0.60710  Biso   1.000  H
  H272     1.0000 0.17540  0.09470  0.61850  Biso   1.000  H
  H273     1.0000 0.13580  0.03280  0.54280  Biso   1.000  H
  H274     1.0000 0.21190  0.96770  0.51920  Biso   1.000  H
  H275     1.0000 0.33450  0.03010  0.54700  Biso   1.000  H
  H276     1.0000 0.39280  0.14870  0.65050  Biso   1.000  H
  H277     1.0000 0.31920  0.96520  0.82000  Biso   1.000  H
  H278     1.0000 0.27860  0.97980  0.65920  Biso   1.000  H
  H279     1.0000 0.33350  0.96370  0.64600  Biso   1.000  H
  H280     1.0000 0.39550  0.06930  0.71040  Biso   1.000  H
  H281     1.0000 0.49090  0.18180  0.79510  Biso   1.000  H
  H282     1.0000 0.54710  0.20640  0.90350  Biso   1.000  H
  H283     1.0000 0.51680  0.12390  0.93130  Biso   1.000  H
  H284     1.0000 0.32460  0.94310  0.91930  Biso   1.000  H
  H285     1.0000 0.36420  0.90700  0.89700  Biso   1.000  H
  H286     1.0000 0.28810  0.80730  0.75580  Biso   1.000  H
  H287     1.0000 0.16550  0.71250  0.69560  Biso   1.000  H
  H288     1.0000 0.10720  0.75770  0.75590  Biso   1.000  H
  C1       1.0000 0.65180  0.36130  0.19750  Biso   1.000  C
  C2       1.0000 0.64280  0.38460  0.10500  Biso   1.000  C
  C3       1.0000 0.66450  0.33900  0.08250  Biso   1.000  C
  C4       1.0000 0.67210  0.33070  0.02340  Biso   1.000  C
  C5       1.0000 0.65290  0.36020  0.99010  Biso   1.000  C
  C6       1.0000 0.62290  0.39670  0.01020  Biso   1.000  C
  C7       1.0000 0.61370  0.40990  0.06480  Biso   1.000  C
  C8       1.0000 0.58700  0.46010  0.08550  Biso   1.000  C
  C9       1.0000 0.58970  0.55130  0.17040  Biso   1.000  C
  C10      1.0000 0.59370  0.56080  0.23110  Biso   1.000  C
  C11      1.0000 0.55210  0.51360  0.24390  Biso   1.000  C
  C12      1.0000 0.56900  0.54800  0.31380  Biso   1.000  C
  C13      1.0000 0.62670  0.61590  0.34640  Biso   1.000  C
  C14      1.0000 0.66380  0.45430  0.30250  Biso   1.000  C
  C15      1.0000 0.77960  0.53780  0.39500  Biso   1.000  C
  C16      1.0000 0.75650  0.58200  0.41750  Biso   1.000  C
  C17      1.0000 0.80730  0.64870  0.47660  Biso   1.000  C
  C18      1.0000 0.87010  0.66280  0.50990  Biso   1.000  C
  C19      1.0000 0.88650  0.61270  0.48980  Biso   1.000  C
  C20      1.0000 0.84510  0.54890  0.43520  Biso   1.000  C
  C21      1.0000 0.87460  0.50150  0.41450  Biso   1.000  C
  C22      1.0000 0.88090  0.41930  0.32960  Biso   1.000  C
  C23      1.0000 0.82970  0.36260  0.26890  Biso   1.000  C
  C24      1.0000 0.76970  0.30820  0.25610  Biso   1.000  C
  C25      1.0000 0.73420  0.25520  0.18620  Biso   1.000  C
  C26      1.0000 0.76950  0.28030  0.15360  Biso   1.000  C
  C27      1.0000 0.83620  0.13870  0.79050  Biso   1.000  C
  C28      1.0000 0.72040  0.11540  0.75820  Biso   1.000  C
  C29      1.0000 0.74350  0.16100  0.82550  Biso   1.000  C
  C30      1.0000 0.69270  0.16930  0.84140  Biso   1.000  C
  C31      1.0000 0.62990  0.13980  0.79270  Biso   1.000  C
  C32      1.0000 0.61350  0.10330  0.72620  Biso   1.000  C
  C33      1.0000 0.65490  0.09010  0.70380  Biso   1.000  C
  C34      1.0000 0.62540  0.03990  0.62690  Biso   1.000  C
  C35      1.0000 0.61910  0.94870  0.53840  Biso   1.000  C
  C36      1.0000 0.67030  0.93920  0.53290  Biso   1.000  C
  C37      1.0000 0.73030  0.98640  0.53850  Biso   1.000  C
  C38      1.0000 0.76580  0.95200  0.52100  Biso   1.000  C
  C39      1.0000 0.73050  0.88410  0.51080  Biso   1.000  C
  C40      1.0000 0.84820  0.04570  0.70950  Biso   1.000  C
  C41      1.0000 0.85720  0.96220  0.74180  Biso   1.000  C
  C42      1.0000 0.83550  0.91800  0.67450  Biso   1.000  C
  C43      1.0000 0.82790  0.85130  0.65860  Biso   1.000  C
  C44      1.0000 0.84710  0.83720  0.70730  Biso   1.000  C
  C45      1.0000 0.87710  0.88730  0.77380  Biso   1.000  C
  C46      1.0000 0.88630  0.95110  0.79620  Biso   1.000  C
  C47      1.0000 0.91300  0.99850  0.87310  Biso   1.000  C
  C48      1.0000 0.91030  0.08070  0.96160  Biso   1.000  C
  C49      1.0000 0.90630  0.13740  0.96710  Biso   1.000  C
  C50      1.0000 0.94790  0.19180  0.96150  Biso   1.000  C
  C51      1.0000 0.93100  0.24480  0.97900  Biso   1.000  C
  C52      1.0000 0.87330  0.21970  0.98920  Biso   1.000  C
  C53      1.0000 0.29050  0.83620  0.63870  Biso   1.000  C
  C54      1.0000 0.25820  0.72040  0.61540  Biso   1.000  C
  C55      1.0000 0.32550  0.74350  0.66100  Biso   1.000  C
  C56      1.0000 0.34140  0.69270  0.66930  Biso   1.000  C
  C57      1.0000 0.29270  0.62990  0.63980  Biso   1.000  C
  C58      1.0000 0.22620  0.61350  0.60330  Biso   1.000  C
  C59      1.0000 0.20380  0.65490  0.59010  Biso   1.000  C
  C60      1.0000 0.12690  0.62540  0.53990  Biso   1.000  C
  C61      1.0000 0.03840  0.61910  0.44870  Biso   1.000  C
  C62      1.0000 0.03290  0.67030  0.43920  Biso   1.000  C
  C63      1.0000 0.03850  0.73030  0.48640  Biso   1.000  C
  C64      1.0000 0.02100  0.76580  0.45200  Biso   1.000  C
  C65      1.0000 0.01080  0.73050  0.38410  Biso   1.000  C
  C66      1.0000 0.20950  0.84820  0.54570  Biso   1.000  C
  C67      1.0000 0.24180  0.85720  0.46220  Biso   1.000  C
  C68      1.0000 0.17450  0.83550  0.41800  Biso   1.000  C
  C69      1.0000 0.15860  0.82790  0.35130  Biso   1.000  C
  C70      1.0000 0.20730  0.84710  0.33720  Biso   1.000  C
  C71      1.0000 0.27380  0.87710  0.38730  Biso   1.000  C
  C72      1.0000 0.29620  0.88630  0.45110  Biso   1.000  C
  C73      1.0000 0.37310  0.91300  0.49850  Biso   1.000  C
  C74      1.0000 0.46160  0.91030  0.58070  Biso   1.000  C
  C75      1.0000 0.46710  0.90630  0.63740  Biso   1.000  C
  C76      1.0000 0.46150  0.94790  0.69180  Biso   1.000  C
  C77      1.0000 0.47900  0.93100  0.74480  Biso   1.000  C
  C78      1.0000 0.48920  0.87330  0.71970  Biso   1.000  C
  C79      1.0000 0.69750  0.65180  0.86130  Biso   1.000  C
  C80      1.0000 0.60500  0.64280  0.88460  Biso   1.000  C
  C81      1.0000 0.58250  0.66450  0.83900  Biso   1.000  C
  C82      1.0000 0.52340  0.67210  0.83070  Biso   1.000  C
  C83      1.0000 0.49010  0.65290  0.86020  Biso   1.000  C
  C84      1.0000 0.51020  0.62290  0.89670  Biso   1.000  C
  C85      1.0000 0.56480  0.61370  0.90990  Biso   1.000  C
  C86      1.0000 0.58550  0.58700  0.96010  Biso   1.000  C
  C87      1.0000 0.67040  0.58970  0.05130  Biso   1.000  C
  C88      1.0000 0.73110  0.59370  0.06080  Biso   1.000  C
  C89      1.0000 0.74390  0.55210  0.01360  Biso   1.000  C
  C90      1.0000 0.81380  0.56900  0.04800  Biso   1.000  C
  C91      1.0000 0.84640  0.62670  0.11590  Biso   1.000  C
  C92      1.0000 0.80250  0.66380  0.95430  Biso   1.000  C
  C93      1.0000 0.89500  0.77960  0.03780  Biso   1.000  C
  C94      1.0000 0.91750  0.75650  0.08200  Biso   1.000  C
  C95      1.0000 0.97660  0.80730  0.14870  Biso   1.000  C
  C96      1.0000 0.00990  0.87010  0.16280  Biso   1.000  C
  C97      1.0000 0.98980  0.88650  0.11270  Biso   1.000  C
  C98      1.0000 0.93520  0.84510  0.04890  Biso   1.000  C
  C99      1.0000 0.91450  0.87460  0.00150  Biso   1.000  C
  C100     1.0000 0.82960  0.88090  0.91930  Biso   1.000  C
  C101     1.0000 0.76890  0.82970  0.86260  Biso   1.000  C
  C102     1.0000 0.75610  0.76970  0.80820  Biso   1.000  C
  C103     1.0000 0.68620  0.73420  0.75520  Biso   1.000  C
  C104     1.0000 0.65360  0.76950  0.78030  Biso   1.000  C
  C105     1.0000 0.45430  0.80250  0.16380  Biso   1.000  C
  C106     1.0000 0.53780  0.89500  0.27960  Biso   1.000  C
  C107     1.0000 0.58200  0.91750  0.25650  Biso   1.000  C
  C108     1.0000 0.64870  0.97660  0.30730  Biso   1.000  C
  C109     1.0000 0.66280  0.00990  0.37010  Biso   1.000  C
  C110     1.0000 0.61270  0.98980  0.38650  Biso   1.000  C
  C111     1.0000 0.54890  0.93520  0.34510  Biso   1.000  C
  C112     1.0000 0.50150  0.91450  0.37460  Biso   1.000  C
  C113     1.0000 0.41930  0.82960  0.38090  Biso   1.000  C
  C114     1.0000 0.36260  0.76890  0.32970  Biso   1.000  C
  C115     1.0000 0.30820  0.75610  0.26970  Biso   1.000  C
  C116     1.0000 0.25520  0.68620  0.23420  Biso   1.000  C
  C117     1.0000 0.28030  0.65360  0.26950  Biso   1.000  C
  C118     1.0000 0.36130  0.69750  0.15180  Biso   1.000  C
  C119     1.0000 0.38460  0.60500  0.14280  Biso   1.000  C
  C120     1.0000 0.33900  0.58250  0.16450  Biso   1.000  C
  C121     1.0000 0.33070  0.52340  0.17210  Biso   1.000  C
  C122     1.0000 0.36020  0.49010  0.15290  Biso   1.000  C
  C123     1.0000 0.39670  0.51020  0.12290  Biso   1.000  C
  C124     1.0000 0.40990  0.56480  0.11370  Biso   1.000  C
  C125     1.0000 0.46010  0.58550  0.08700  Biso   1.000  C
  C126     1.0000 0.55130  0.67040  0.08970  Biso   1.000  C
  C127     1.0000 0.56080  0.73110  0.09370  Biso   1.000  C
  C128     1.0000 0.51360  0.74390  0.05210  Biso   1.000  C
  C129     1.0000 0.54800  0.81380  0.06900  Biso   1.000  C
  C130     1.0000 0.61590  0.84640  0.12670  Biso   1.000  C
  C131     1.0000 0.04570  0.20950  0.34820  Biso   1.000  C
  C132     1.0000 0.96220  0.24180  0.35720  Biso   1.000  C
  C133     1.0000 0.91800  0.17450  0.33550  Biso   1.000  C
  C134     1.0000 0.85130  0.15860  0.32790  Biso   1.000  C
  C135     1.0000 0.83720  0.20730  0.34710  Biso   1.000  C
  C136     1.0000 0.88730  0.27380  0.37710  Biso   1.000  C
  C137     1.0000 0.95110  0.29620  0.38630  Biso   1.000  C
  C138     1.0000 0.99850  0.37310  0.41300  Biso   1.000  C
  C139     1.0000 0.08070  0.46160  0.41030  Biso   1.000  C
  C140     1.0000 0.13740  0.46710  0.40630  Biso   1.000  C
  C141     1.0000 0.19180  0.46150  0.44790  Biso   1.000  C
  C142     1.0000 0.24480  0.47900  0.43100  Biso   1.000  C
  C143     1.0000 0.21970  0.48920  0.37330  Biso   1.000  C
  C144     1.0000 0.13870  0.29050  0.33620  Biso   1.000  C
  C145     1.0000 0.11540  0.25820  0.22040  Biso   1.000  C
  C146     1.0000 0.16100  0.32550  0.24350  Biso   1.000  C
  C147     1.0000 0.16930  0.34140  0.19270  Biso   1.000  C
  C148     1.0000 0.13980  0.29270  0.12990  Biso   1.000  C
  C149     1.0000 0.10330  0.22620  0.11350  Biso   1.000  C
  C150     1.0000 0.09010  0.20380  0.15490  Biso   1.000  C
  C151     1.0000 0.03990  0.12690  0.12540  Biso   1.000  C
  C152     1.0000 0.94870  0.03840  0.11910  Biso   1.000  C
  C153     1.0000 0.93920  0.03290  0.17030  Biso   1.000  C
  C154     1.0000 0.98640  0.03850  0.23030  Biso   1.000  C
  C155     1.0000 0.95200  0.02100  0.26580  Biso   1.000  C
  C156     1.0000 0.88410  0.01080  0.23050  Biso   1.000  C
  C157     1.0000 0.95430  0.16380  0.80250  Biso   1.000  C
  C158     1.0000 0.03780  0.27960  0.89500  Biso   1.000  C
  C159     1.0000 0.08200  0.25650  0.91750  Biso   1.000  C
  C160     1.0000 0.14870  0.30730  0.97660  Biso   1.000  C
  C161     1.0000 0.16280  0.37010  0.00990  Biso   1.000  C
  C162     1.0000 0.11270  0.38650  0.98980  Biso   1.000  C
  C163     1.0000 0.04890  0.34510  0.93520  Biso   1.000  C
  C164     1.0000 0.00150  0.37460  0.91450  Biso   1.000  C
  C165     1.0000 0.91930  0.38090  0.82960  Biso   1.000  C
  C166     1.0000 0.86260  0.32970  0.76890  Biso   1.000  C
  C167     1.0000 0.80820  0.26970  0.75610  Biso   1.000  C
  C168     1.0000 0.75520  0.23420  0.68620  Biso   1.000  C
  C169     1.0000 0.78030  0.26950  0.65360  Biso   1.000  C
  C170     1.0000 0.86130  0.15180  0.69750  Biso   1.000  C
  C171     1.0000 0.88460  0.14280  0.60500  Biso   1.000  C
  C172     1.0000 0.83900  0.16450  0.58250  Biso   1.000  C
  C173     1.0000 0.83070  0.17210  0.52340  Biso   1.000  C
  C174     1.0000 0.86020  0.15290  0.49010  Biso   1.000  C
  C175     1.0000 0.89670  0.12290  0.51020  Biso   1.000  C
  C176     1.0000 0.90990  0.11370  0.56480  Biso   1.000  C
  C177     1.0000 0.96010  0.08700  0.58550  Biso   1.000  C
  C178     1.0000 0.05130  0.08970  0.67040  Biso   1.000  C
  C179     1.0000 0.06080  0.09370  0.73110  Biso   1.000  C
  C180     1.0000 0.01360  0.05210  0.74390  Biso   1.000  C
  C181     1.0000 0.04800  0.06900  0.81380  Biso   1.000  C
  C182     1.0000 0.11590  0.12670  0.84640  Biso   1.000  C
  C183     1.0000 0.54570  0.34820  0.20950  Biso   1.000  C
  C184     1.0000 0.46220  0.35720  0.24180  Biso   1.000  C
  C185     1.0000 0.41800  0.33550  0.17450  Biso   1.000  C
  C186     1.0000 0.35130  0.32790  0.15860  Biso   1.000  C
  C187     1.0000 0.33720  0.34710  0.20730  Biso   1.000  C
  C188     1.0000 0.38730  0.37710  0.27380  Biso   1.000  C
  C189     1.0000 0.45110  0.38630  0.29620  Biso   1.000  C
  C190     1.0000 0.49850  0.41300  0.37310  Biso   1.000  C
  C191     1.0000 0.58070  0.41030  0.46160  Biso   1.000  C
  C192     1.0000 0.63740  0.40630  0.46710  Biso   1.000  C
  C193     1.0000 0.69180  0.44790  0.46150  Biso   1.000  C
  C194     1.0000 0.74480  0.43100  0.47900  Biso   1.000  C
  C195     1.0000 0.71970  0.37330  0.48920  Biso   1.000  C
  C196     1.0000 0.63870  0.33620  0.29050  Biso   1.000  C
  C197     1.0000 0.61540  0.22040  0.25820  Biso   1.000  C
  C198     1.0000 0.66100  0.24350  0.32550  Biso   1.000  C
  C199     1.0000 0.66930  0.19270  0.34140  Biso   1.000  C
  C200     1.0000 0.63980  0.12990  0.29270  Biso   1.000  C
  C201     1.0000 0.60330  0.11350  0.22620  Biso   1.000  C
  C202     1.0000 0.59010  0.15490  0.20380  Biso   1.000  C
  C203     1.0000 0.53990  0.12540  0.12690  Biso   1.000  C
  C204     1.0000 0.44870  0.11910  0.03840  Biso   1.000  C
  C205     1.0000 0.43920  0.17030  0.03290  Biso   1.000  C
  C206     1.0000 0.48640  0.23030  0.03850  Biso   1.000  C
  C207     1.0000 0.45200  0.26580  0.02100  Biso   1.000  C
  C208     1.0000 0.38410  0.23050  0.01080  Biso   1.000  C
  C209     1.0000 0.15180  0.19750  0.36130  Biso   1.000  C
  C210     1.0000 0.14280  0.10500  0.38460  Biso   1.000  C
  C211     1.0000 0.16450  0.08250  0.33900  Biso   1.000  C
  C212     1.0000 0.17210  0.02340  0.33070  Biso   1.000  C
  C213     1.0000 0.15290  0.99010  0.36020  Biso   1.000  C
  C214     1.0000 0.12290  0.01020  0.39670  Biso   1.000  C
  C215     1.0000 0.11370  0.06480  0.40990  Biso   1.000  C
  C216     1.0000 0.08700  0.08550  0.46010  Biso   1.000  C
  C217     1.0000 0.08970  0.17040  0.55130  Biso   1.000  C
  C218     1.0000 0.09370  0.23110  0.56080  Biso   1.000  C
  C219     1.0000 0.05210  0.24390  0.51360  Biso   1.000  C
  C220     1.0000 0.06900  0.31380  0.54800  Biso   1.000  C
  C221     1.0000 0.12670  0.34640  0.61590  Biso   1.000  C
  C222     1.0000 0.16380  0.30250  0.45430  Biso   1.000  C
  C223     1.0000 0.27960  0.39500  0.53780  Biso   1.000  C
  C224     1.0000 0.25650  0.41750  0.58200  Biso   1.000  C
  C225     1.0000 0.30730  0.47660  0.64870  Biso   1.000  C
  C226     1.0000 0.37010  0.50990  0.66280  Biso   1.000  C
  C227     1.0000 0.38650  0.48980  0.61270  Biso   1.000  C
  C228     1.0000 0.34510  0.43520  0.54890  Biso   1.000  C
  C229     1.0000 0.37460  0.41450  0.50150  Biso   1.000  C
  C230     1.0000 0.38090  0.32960  0.41930  Biso   1.000  C
  C231     1.0000 0.32970  0.26890  0.36260  Biso   1.000  C
  C232     1.0000 0.26970  0.25610  0.30820  Biso   1.000  C
  C233     1.0000 0.23420  0.18620  0.25520  Biso   1.000  C
  C234     1.0000 0.26950  0.15360  0.28030  Biso   1.000  C
  C235     1.0000 0.33620  0.79050  0.13870  Biso   1.000  C
  C236     1.0000 0.22040  0.75820  0.11540  Biso   1.000  C
  C237     1.0000 0.24350  0.82550  0.16100  Biso   1.000  C
  C238     1.0000 0.19270  0.84140  0.16930  Biso   1.000  C
  C239     1.0000 0.12990  0.79270  0.13980  Biso   1.000  C
  C240     1.0000 0.11350  0.72620  0.10330  Biso   1.000  C
  C241     1.0000 0.15490  0.70380  0.09010  Biso   1.000  C
  C242     1.0000 0.12540  0.62690  0.03990  Biso   1.000  C
  C243     1.0000 0.11910  0.53840  0.94870  Biso   1.000  C
  C244     1.0000 0.17030  0.53290  0.93920  Biso   1.000  C
  C245     1.0000 0.23030  0.53850  0.98640  Biso   1.000  C
  C246     1.0000 0.26580  0.52100  0.95200  Biso   1.000  C
  C247     1.0000 0.23050  0.51080  0.88410  Biso   1.000  C
  C248     1.0000 0.34820  0.70950  0.04570  Biso   1.000  C
  C249     1.0000 0.35720  0.74180  0.96220  Biso   1.000  C
  C250     1.0000 0.33550  0.67450  0.91800  Biso   1.000  C
  C251     1.0000 0.32790  0.65860  0.85130  Biso   1.000  C
  C252     1.0000 0.34710  0.70730  0.83720  Biso   1.000  C
  C253     1.0000 0.37710  0.77380  0.88730  Biso   1.000  C
  C254     1.0000 0.38630  0.79620  0.95110  Biso   1.000  C
  C255     1.0000 0.41300  0.87310  0.99850  Biso   1.000  C
  C256     1.0000 0.41030  0.96160  0.08070  Biso   1.000  C
  C257     1.0000 0.40630  0.96710  0.13740  Biso   1.000  C
  C258     1.0000 0.44790  0.96150  0.19180  Biso   1.000  C
  C259     1.0000 0.43100  0.97900  0.24480  Biso   1.000  C
  C260     1.0000 0.37330  0.98920  0.21970  Biso   1.000  C
  C261     1.0000 0.79050  0.63870  0.83620  Biso   1.000  C
  C262     1.0000 0.75820  0.61540  0.72040  Biso   1.000  C
  C263     1.0000 0.82550  0.66100  0.74350  Biso   1.000  C
  C264     1.0000 0.84140  0.66930  0.69270  Biso   1.000  C
  C265     1.0000 0.79270  0.63980  0.62990  Biso   1.000  C
  C266     1.0000 0.72620  0.60330  0.61350  Biso   1.000  C
  C267     1.0000 0.70380  0.59010  0.65490  Biso   1.000  C
  C268     1.0000 0.62690  0.53990  0.62540  Biso   1.000  C
  C269     1.0000 0.53840  0.44870  0.61910  Biso   1.000  C
  C270     1.0000 0.53290  0.43920  0.67030  Biso   1.000  C
  C271     1.0000 0.53850  0.48640  0.73030  Biso   1.000  C
  C272     1.0000 0.52100  0.45200  0.76580  Biso   1.000  C
  C273     1.0000 0.51080  0.38410  0.73050  Biso   1.000  C
  C274     1.0000 0.70950  0.54570  0.84820  Biso   1.000  C
  C275     1.0000 0.74180  0.46220  0.85720  Biso   1.000  C
  C276     1.0000 0.67450  0.41800  0.83550  Biso   1.000  C
  C277     1.0000 0.65860  0.35130  0.82790  Biso   1.000  C
  C278     1.0000 0.70730  0.33720  0.84710  Biso   1.000  C
  C279     1.0000 0.77380  0.38730  0.87710  Biso   1.000  C
  C280     1.0000 0.79620  0.45110  0.88630  Biso   1.000  C
  C281     1.0000 0.87310  0.49850  0.91300  Biso   1.000  C
  C282     1.0000 0.96160  0.58070  0.91030  Biso   1.000  C
  C283     1.0000 0.96710  0.63740  0.90630  Biso   1.000  C
  C284     1.0000 0.96150  0.69180  0.94790  Biso   1.000  C
  C285     1.0000 0.97900  0.74480  0.93100  Biso   1.000  C
  C286     1.0000 0.98920  0.71970  0.87330  Biso   1.000  C
  C287     1.0000 0.19750  0.86130  0.65180  Biso   1.000  C
  C288     1.0000 0.10500  0.88460  0.64280  Biso   1.000  C
  C289     1.0000 0.08250  0.83900  0.66450  Biso   1.000  C
  C290     1.0000 0.02340  0.83070  0.67210  Biso   1.000  C
  C291     1.0000 0.99010  0.86020  0.65290  Biso   1.000  C
  C292     1.0000 0.01020  0.89670  0.62290  Biso   1.000  C
  C293     1.0000 0.06480  0.90990  0.61370  Biso   1.000  C
  C294     1.0000 0.08550  0.96010  0.58700  Biso   1.000  C
  C295     1.0000 0.17040  0.05130  0.58970  Biso   1.000  C
  C296     1.0000 0.23110  0.06080  0.59370  Biso   1.000  C
  C297     1.0000 0.24390  0.01360  0.55210  Biso   1.000  C
  C298     1.0000 0.31380  0.04800  0.56900  Biso   1.000  C
  C299     1.0000 0.34640  0.11590  0.62670  Biso   1.000  C
  C300     1.0000 0.30250  0.95430  0.66380  Biso   1.000  C
  C301     1.0000 0.39500  0.03780  0.77960  Biso   1.000  C
  C302     1.0000 0.41750  0.08200  0.75650  Biso   1.000  C
  C303     1.0000 0.47660  0.14870  0.80730  Biso   1.000  C
  C304     1.0000 0.50990  0.16280  0.87010  Biso   1.000  C
  C305     1.0000 0.48980  0.11270  0.88650  Biso   1.000  C
  C306     1.0000 0.43520  0.04890  0.84510  Biso   1.000  C
  C307     1.0000 0.41450  0.00150  0.87460  Biso   1.000  C
  C308     1.0000 0.32960  0.91930  0.88090  Biso   1.000  C
  C309     1.0000 0.26890  0.86260  0.82970  Biso   1.000  C
  C310     1.0000 0.25610  0.80820  0.76970  Biso   1.000  C
  C311     1.0000 0.18620  0.75520  0.73420  Biso   1.000  C
  C312     1.0000 0.15360  0.78030  0.76950  Biso   1.000  C
  C313     1.0000 0.62500  0.37500  0.25000  Biso   1.000  C
  C314     1.0000 0.87500  0.12500  0.75000  Biso   1.000  C
  C315     1.0000 0.25000  0.87500  0.62500  Biso   1.000  C
  C316     1.0000 0.75000  0.62500  0.87500  Biso   1.000  C
  C317     1.0000 0.37500  0.75000  0.12500  Biso   1.000  C
  C318     1.0000 0.12500  0.25000  0.37500  Biso   1.000  C
  N1       1.0000 0.61470  0.50170  0.15040  Biso   1.000  N
  N2       1.0000 0.34740  0.36170  0.96410  Biso   1.000  N
  N3       1.0000 0.85130  0.46430  0.34960  Biso   1.000  N
  N4       1.0000 0.89760  0.38330  0.53590  Biso   1.000  N
  N5       1.0000 0.64870  0.99830  0.61300  Biso   1.000  N
  N6       1.0000 0.60240  0.13830  0.48570  Biso   1.000  N
  N7       1.0000 0.88530  0.03570  0.88700  Biso   1.000  N
  N8       1.0000 0.15260  0.11670  0.01430  Biso   1.000  N
  N9       1.0000 0.11300  0.64870  0.49830  Biso   1.000  N
  N10      1.0000 0.98570  0.60240  0.63830  Biso   1.000  N
  N11      1.0000 0.38700  0.88530  0.53570  Biso   1.000  N
  N12      1.0000 0.51430  0.15260  0.61670  Biso   1.000  N
  N13      1.0000 0.65040  0.61470  0.00170  Biso   1.000  N
  N14      1.0000 0.46410  0.34740  0.86170  Biso   1.000  N
  N15      1.0000 0.84960  0.85130  0.96430  Biso   1.000  N
  N16      1.0000 0.03590  0.89760  0.88330  Biso   1.000  N
  N17      1.0000 0.46430  0.84960  0.35130  Biso   1.000  N
  N18      1.0000 0.38330  0.03590  0.39760  Biso   1.000  N
  N19      1.0000 0.50170  0.65040  0.11470  Biso   1.000  N
  N20      1.0000 0.36170  0.46410  0.84740  Biso   1.000  N
  N21      1.0000 0.03570  0.38700  0.38530  Biso   1.000  N
  N22      1.0000 0.11670  0.51430  0.65260  Biso   1.000  N
  N23      1.0000 0.99830  0.11300  0.14870  Biso   1.000  N
  N24      1.0000 0.13830  0.98570  0.10240  Biso   1.000  N
  N25      1.0000 0.96430  0.35130  0.84960  Biso   1.000  N
  N26      1.0000 0.88330  0.39760  0.03590  Biso   1.000  N
  N27      1.0000 0.00170  0.11470  0.65040  Biso   1.000  N
  N28      1.0000 0.86170  0.84740  0.46410  Biso   1.000  N
  N29      1.0000 0.53570  0.38530  0.38700  Biso   1.000  N
  N30      1.0000 0.61670  0.65260  0.51430  Biso   1.000  N
  N31      1.0000 0.49830  0.14870  0.11300  Biso   1.000  N
  N32      1.0000 0.63830  0.10240  0.98570  Biso   1.000  N
  N33      1.0000 0.11470  0.15040  0.50170  Biso   1.000  N
  N34      1.0000 0.84740  0.96410  0.36170  Biso   1.000  N
  N35      1.0000 0.35130  0.34960  0.46430  Biso   1.000  N
  N36      1.0000 0.39760  0.53590  0.38330  Biso   1.000  N
  N37      1.0000 0.14870  0.61300  0.99830  Biso   1.000  N
  N38      1.0000 0.10240  0.48570  0.13830  Biso   1.000  N
  N39      1.0000 0.38530  0.88700  0.03570  Biso   1.000  N
  N40      1.0000 0.65260  0.01430  0.11670  Biso   1.000  N
  N41      1.0000 0.61300  0.49830  0.64870  Biso   1.000  N
  N42      1.0000 0.48570  0.63830  0.60240  Biso   1.000  N
  N43      1.0000 0.88700  0.53570  0.88530  Biso   1.000  N
  N44      1.0000 0.01430  0.61670  0.15260  Biso   1.000  N
  N45      1.0000 0.15040  0.00170  0.61470  Biso   1.000  N
  N46      1.0000 0.96410  0.86170  0.34740  Biso   1.000  N
  N47      1.0000 0.34960  0.96430  0.85130  Biso   1.000  N
  N48      1.0000 0.53590  0.88330  0.89760  Biso   1.000  N
  O1       1.0000 0.54540  0.46260  0.04060  Biso   1.000  O
  O2       1.0000 0.64070  0.62400  0.29510  Biso   1.000  O
  O3       1.0000 0.63230  0.39580  0.16030  Biso   1.000  O
  O4       1.0000 0.40870  0.38670  0.00600  Biso   1.000  O
  O5       1.0000 0.33250  0.38290  0.92340  Biso   1.000  O
  O6       1.0000 0.30110  0.32180  0.96930  Biso   1.000  O
  O7       1.0000 0.92200  0.50480  0.45940  Biso   1.000  O
  O8       1.0000 0.82890  0.34560  0.20490  Biso   1.000  O
  O9       1.0000 0.73550  0.47200  0.33970  Biso   1.000  O
  O10      1.0000 0.88070  0.40270  0.49400  Biso   1.000  O
  O11      1.0000 0.95950  0.40910  0.57660  Biso   1.000  O
  O12      1.0000 0.85250  0.33180  0.53070  Biso   1.000  O
  O13      1.0000 0.57800  0.03740  0.58280  Biso   1.000  O
  O14      1.0000 0.67110  0.87600  0.51670  Biso   1.000  O
  O15      1.0000 0.76450  0.10420  0.73650  Biso   1.000  O
  O16      1.0000 0.61930  0.11330  0.52200  Biso   1.000  O
  O17      1.0000 0.54050  0.11710  0.44960  Biso   1.000  O
  O18      1.0000 0.64750  0.17820  0.47930  Biso   1.000  O
  O19      1.0000 0.95460  0.99520  0.91720  Biso   1.000  O
  O20      1.0000 0.85930  0.15440  0.98330  Biso   1.000  O
  O21      1.0000 0.86770  0.02800  0.76350  Biso   1.000  O
  O22      1.0000 0.09130  0.09730  0.97800  Biso   1.000  O
  O23      1.0000 0.16750  0.09090  0.05040  Biso   1.000  O
  O24      1.0000 0.19890  0.16820  0.02070  Biso   1.000  O
  O25      1.0000 0.08280  0.57800  0.53740  Biso   1.000  O
  O26      1.0000 0.01670  0.67110  0.37600  Biso   1.000  O
  O27      1.0000 0.23650  0.76450  0.60420  Biso   1.000  O
  O28      1.0000 0.02200  0.61930  0.61330  Biso   1.000  O
  O29      1.0000 0.94960  0.54050  0.61710  Biso   1.000  O
  O30      1.0000 0.97930  0.64750  0.67820  Biso   1.000  O
  O31      1.0000 0.41720  0.95460  0.49520  Biso   1.000  O
  O32      1.0000 0.48330  0.85930  0.65440  Biso   1.000  O
  O33      1.0000 0.26350  0.86770  0.52800  Biso   1.000  O
  O34      1.0000 0.47800  0.09130  0.59730  Biso   1.000  O
  O35      1.0000 0.55040  0.16750  0.59090  Biso   1.000  O
  O36      1.0000 0.52070  0.19890  0.66820  Biso   1.000  O
  O37      1.0000 0.54060  0.54540  0.96260  Biso   1.000  O
  O38      1.0000 0.79510  0.64070  0.12400  Biso   1.000  O
  O39      1.0000 0.66030  0.63230  0.89580  Biso   1.000  O
  O40      1.0000 0.50600  0.40870  0.88670  Biso   1.000  O
  O41      1.0000 0.42340  0.33250  0.88290  Biso   1.000  O
  O42      1.0000 0.46930  0.30110  0.82180  Biso   1.000  O
  O43      1.0000 0.95940  0.92200  0.00480  Biso   1.000  O
  O44      1.0000 0.70490  0.82890  0.84560  Biso   1.000  O
  O45      1.0000 0.83970  0.73550  0.97200  Biso   1.000  O
  O46      1.0000 0.99400  0.88070  0.90270  Biso   1.000  O
  O47      1.0000 0.07660  0.95950  0.90910  Biso   1.000  O
  O48      1.0000 0.03070  0.85250  0.83180  Biso   1.000  O
  O49      1.0000 0.50480  0.95940  0.42200  Biso   1.000  O
  O50      1.0000 0.34560  0.70490  0.32890  Biso   1.000  O
  O51      1.0000 0.47200  0.83970  0.23550  Biso   1.000  O
  O52      1.0000 0.40270  0.99400  0.38070  Biso   1.000  O
  O53      1.0000 0.40910  0.07660  0.45950  Biso   1.000  O
  O54      1.0000 0.33180  0.03070  0.35250  Biso   1.000  O
  O55      1.0000 0.46260  0.54060  0.04540  Biso   1.000  O
  O56      1.0000 0.62400  0.79510  0.14070  Biso   1.000  O
  O57      1.0000 0.39580  0.66030  0.13230  Biso   1.000  O
  O58      1.0000 0.38670  0.50600  0.90870  Biso   1.000  O
  O59      1.0000 0.38290  0.42340  0.83250  Biso   1.000  O
  O60      1.0000 0.32180  0.46930  0.80110  Biso   1.000  O
  O61      1.0000 0.99520  0.41720  0.45460  Biso   1.000  O
  O62      1.0000 0.15440  0.48330  0.35930  Biso   1.000  O
  O63      1.0000 0.02800  0.26350  0.36770  Biso   1.000  O
  O64      1.0000 0.09730  0.47800  0.59130  Biso   1.000  O
  O65      1.0000 0.09090  0.55040  0.66750  Biso   1.000  O
  O66      1.0000 0.16820  0.52070  0.69890  Biso   1.000  O
  O67      1.0000 0.03740  0.08280  0.07800  Biso   1.000  O
  O68      1.0000 0.87600  0.01670  0.17110  Biso   1.000  O
  O69      1.0000 0.10420  0.23650  0.26450  Biso   1.000  O
  O70      1.0000 0.11330  0.02200  0.11930  Biso   1.000  O
  O71      1.0000 0.11710  0.94960  0.04050  Biso   1.000  O
  O72      1.0000 0.17820  0.97930  0.14750  Biso   1.000  O
  O73      1.0000 0.00480  0.42200  0.95940  Biso   1.000  O
  O74      1.0000 0.84560  0.32890  0.70490  Biso   1.000  O
  O75      1.0000 0.97200  0.23550  0.83970  Biso   1.000  O
  O76      1.0000 0.90270  0.38070  0.99400  Biso   1.000  O
  O77      1.0000 0.90910  0.45950  0.07660  Biso   1.000  O
  O78      1.0000 0.83180  0.35250  0.03070  Biso   1.000  O
  O79      1.0000 0.96260  0.04540  0.54060  Biso   1.000  O
  O80      1.0000 0.12400  0.14070  0.79510  Biso   1.000  O
  O81      1.0000 0.89580  0.13230  0.66030  Biso   1.000  O
  O82      1.0000 0.88670  0.90870  0.50600  Biso   1.000  O
  O83      1.0000 0.88290  0.83250  0.42340  Biso   1.000  O
  O84      1.0000 0.82180  0.80110  0.46930  Biso   1.000  O
  O85      1.0000 0.49520  0.45460  0.41720  Biso   1.000  O
  O86      1.0000 0.65440  0.35930  0.48330  Biso   1.000  O
  O87      1.0000 0.52800  0.36770  0.26350  Biso   1.000  O
  O88      1.0000 0.59730  0.59130  0.47800  Biso   1.000  O
  O89      1.0000 0.59090  0.66750  0.55040  Biso   1.000  O
  O90      1.0000 0.66820  0.69890  0.52070  Biso   1.000  O
  O91      1.0000 0.53740  0.07800  0.08280  Biso   1.000  O
  O92      1.0000 0.37600  0.17110  0.01670  Biso   1.000  O
  O93      1.0000 0.60420  0.26450  0.23650  Biso   1.000  O
  O94      1.0000 0.61330  0.11930  0.02200  Biso   1.000  O
  O95      1.0000 0.61710  0.04050  0.94960  Biso   1.000  O
  O96      1.0000 0.67820  0.14750  0.97930  Biso   1.000  O
  O97      1.0000 0.04540  0.04060  0.46260  Biso   1.000  O
  O98      1.0000 0.14070  0.29510  0.62400  Biso   1.000  O
  O99      1.0000 0.13230  0.16030  0.39580  Biso   1.000  O
  O100     1.0000 0.90870  0.00600  0.38670  Biso   1.000  O
  O101     1.0000 0.83250  0.92340  0.38290  Biso   1.000  O
  O102     1.0000 0.80110  0.96930  0.32180  Biso   1.000  O
  O103     1.0000 0.42200  0.45940  0.50480  Biso   1.000  O
  O104     1.0000 0.32890  0.20490  0.34560  Biso   1.000  O
  O105     1.0000 0.23550  0.33970  0.47200  Biso   1.000  O
  O106     1.0000 0.38070  0.49400  0.40270  Biso   1.000  O
  O107     1.0000 0.45950  0.57660  0.40910  Biso   1.000  O
  O108     1.0000 0.35250  0.53070  0.33180  Biso   1.000  O
  O109     1.0000 0.07800  0.58280  0.03740  Biso   1.000  O
  O110     1.0000 0.17110  0.51670  0.87600  Biso   1.000  O
  O111     1.0000 0.26450  0.73650  0.10420  Biso   1.000  O
  O112     1.0000 0.11930  0.52200  0.11330  Biso   1.000  O
  O113     1.0000 0.04050  0.44960  0.11710  Biso   1.000  O
  O114     1.0000 0.14750  0.47930  0.17820  Biso   1.000  O
  O115     1.0000 0.45460  0.91720  0.99520  Biso   1.000  O
  O116     1.0000 0.35930  0.98330  0.15440  Biso   1.000  O
  O117     1.0000 0.36770  0.76350  0.02800  Biso   1.000  O
  O118     1.0000 0.59130  0.97800  0.09730  Biso   1.000  O
  O119     1.0000 0.66750  0.05040  0.09090  Biso   1.000  O
  O120     1.0000 0.69890  0.02070  0.16820  Biso   1.000  O
  O121     1.0000 0.58280  0.53740  0.57800  Biso   1.000  O
  O122     1.0000 0.51670  0.37600  0.67110  Biso   1.000  O
  O123     1.0000 0.73650  0.60420  0.76450  Biso   1.000  O
  O124     1.0000 0.52200  0.61330  0.61930  Biso   1.000  O
  O125     1.0000 0.44960  0.61710  0.54050  Biso   1.000  O
  O126     1.0000 0.47930  0.67820  0.64750  Biso   1.000  O
  O127     1.0000 0.91720  0.49520  0.95460  Biso   1.000  O
  O128     1.0000 0.98330  0.65440  0.85930  Biso   1.000  O
  O129     1.0000 0.76350  0.52800  0.86770  Biso   1.000  O
  O130     1.0000 0.97800  0.59730  0.09130  Biso   1.000  O
  O131     1.0000 0.05040  0.59090  0.16750  Biso   1.000  O
  O132     1.0000 0.02070  0.66820  0.19890  Biso   1.000  O
  O133     1.0000 0.04060  0.96260  0.54540  Biso   1.000  O
  O134     1.0000 0.29510  0.12400  0.64070  Biso   1.000  O
  O135     1.0000 0.16030  0.89580  0.63230  Biso   1.000  O
  O136     1.0000 0.00600  0.88670  0.40870  Biso   1.000  O
  O137     1.0000 0.92340  0.88290  0.33250  Biso   1.000  O
  O138     1.0000 0.96930  0.82180  0.30110  Biso   1.000  O
  O139     1.0000 0.45940  0.00480  0.92200  Biso   1.000  O
  O140     1.0000 0.20490  0.84560  0.82890  Biso   1.000  O
  O141     1.0000 0.33970  0.97200  0.73550  Biso   1.000  O
  O142     1.0000 0.49400  0.90270  0.88070  Biso   1.000  O
  O143     1.0000 0.57660  0.90910  0.95950  Biso   1.000  O
  O144     1.0000 0.53070  0.83180  0.85250  Biso   1.000  O
