data_image0
_cell_length_a       26.0119
_cell_length_b       26.0119
_cell_length_c       26.0119
_cell_angle_alpha    90
_cell_angle_beta     90
_cell_angle_gamma    90

_symmetry_space_group_name_H-M    "P 1"
_symmetry_int_tables_number       1

loop_
  _symmetry_equiv_pos_as_xyz
  'x, y, z'

loop_
  _atom_site_label
  _atom_site_occupancy
  _atom_site_fract_x
  _atom_site_fract_y
  _atom_site_fract_z
  _atom_site_thermal_displace_type
  _atom_site_B_iso_or_equiv
  _atom_site_type_symbol
  Zn1      1.0000 0.45548  0.54749  0.54579  Biso   1.000  Zn
  C1       1.0000 0.37070  0.60150  0.50860  Biso   1.000  C
  C2       1.0000 0.33050  0.61540  0.47000  Biso   1.000  C
  C3       1.0000 0.31770  0.58260  0.42930  Biso   1.000  C
  C4       1.0000 0.27740  0.59570  0.39640  Biso   1.000  C
  H1       1.0000 0.26870  0.57310  0.37010  Biso   1.000  H
  C5       1.0000 0.25020  0.64020  0.40130  Biso   1.000  C
  C6       1.0000 0.26300  0.67200  0.44230  Biso   1.000  C
  H2       1.0000 0.24500  0.70250  0.44720  Biso   1.000  H
  C7       1.0000 0.30180  0.65940  0.47590  Biso   1.000  C
  C8       1.0000 0.20610  0.65400  0.36740  Biso   1.000  C
  C9       1.0000 0.19450  0.62130  0.32570  Biso   1.000  C
  H3       1.0000 0.21510  0.59270  0.31920  Biso   1.000  H
  C10      1.0000 0.15180  0.63170  0.29380  Biso   1.000  C
  C11      1.0000 0.12100  0.67360  0.30550  Biso   1.000  C
  H4       1.0000 0.09220  0.68010  0.28530  Biso   1.000  H
  C12      1.0000 0.13190  0.70570  0.34600  Biso   1.000  C
  C13      1.0000 0.17510  0.69510  0.37640  Biso   1.000  C
  H5       1.0000 0.18290  0.71690  0.40360  Biso   1.000  H
  C14      1.0000 0.13880  0.59620  0.25050  Biso   1.000  C
  C15      1.0000 0.17490  0.56030  0.23320  Biso   1.000  C
  H6       1.0000 0.20720  0.55910  0.24840  Biso   1.000  H
  C16      1.0000 0.16310  0.52670  0.19390  Biso   1.000  C
  C17      1.0000 0.11440  0.52750  0.17020  Biso   1.000  C
  C18      1.0000 0.07830  0.56260  0.18830  Biso   1.000  C
  C19      1.0000 0.09070  0.59650  0.22820  Biso   1.000  C
  H7       1.0000 0.06610  0.61970  0.23980  Biso   1.000  H
  C20      1.0000 0.10050  0.49020  0.12890  Biso   1.000  C
  C21      1.0000 0.09710  0.74850  0.35990  Biso   1.000  C
  C22      1.0000 0.06050  0.76630  0.32380  Biso   1.000  C
  H8       1.0000 0.05940  0.75190  0.29110  Biso   1.000  H
  C23      1.0000 0.02650  0.80470  0.33650  Biso   1.000  C
  C24      1.0000 0.02720  0.82680  0.38530  Biso   1.000  C
  C25      1.0000 0.06330  0.80980  0.42090  Biso   1.000  C
  C26      1.0000 0.09710  0.77120  0.40900  Biso   1.000  C
  H9       1.0000 0.12040  0.75980  0.43370  Biso   1.000  H
  C27      1.0000 0.99020  0.86830  0.39980  Biso   1.000  C
  O1       1.0000 0.39670  0.56020  0.50020  Biso   1.000  O
  O2       1.0000 0.37810  0.63020  0.54540  Biso   1.000  O
  O3       1.0000 0.13170  0.45430  0.12090  Biso   1.000  O
  O4       1.0000 0.06150  0.49820  0.10260  Biso   1.000  O
  O5       1.0000 0.95410  0.87850  0.36880  Biso   1.000  O
  O6       1.0000 0.99820  0.89300  0.44010  Biso   1.000  O
  O7       1.0000 0.31420  0.69500  0.50860  Biso   1.000  O
  H10      1.0000 0.29790  0.69090  0.53530  Biso   1.000  H
  O8       1.0000 0.19960  0.49170  0.18200  Biso   1.000  O
  H11      1.0000 0.18680  0.46880  0.16440  Biso   1.000  H
  O9       1.0000 0.99240  0.81780  0.29920  Biso   1.000  O
  H12      1.0000 0.96660  0.83010  0.31240  Biso   1.000  H
  O10      1.0000 0.03700  0.56100  0.18100  Biso   1.000  O
  O11      1.0000 0.06250  0.82680  0.46880  Biso   1.000  O
  H13      1.0000 0.04310  0.80880  0.48600  Biso   1.000  H
  O12      1.0000 0.35100  0.54720  0.41430  Biso   1.000  O
  H14      1.0000 0.35080  0.52320  0.43470  Biso   1.000  H
  Zn2      1.0000 0.04452  0.45251  0.04579  Biso   1.000  Zn
  C28      1.0000 0.12930  0.39850  0.00860  Biso   1.000  C
  C29      1.0000 0.16950  0.38460  0.97000  Biso   1.000  C
  C30      1.0000 0.18230  0.41740  0.92930  Biso   1.000  C
  C31      1.0000 0.22260  0.40430  0.89640  Biso   1.000  C
  H15      1.0000 0.23130  0.42690  0.87010  Biso   1.000  H
  C32      1.0000 0.24980  0.35980  0.90130  Biso   1.000  C
  C33      1.0000 0.23700  0.32800  0.94230  Biso   1.000  C
  H16      1.0000 0.25500  0.29750  0.94720  Biso   1.000  H
  C34      1.0000 0.19820  0.34060  0.97590  Biso   1.000  C
  C35      1.0000 0.29390  0.34600  0.86740  Biso   1.000  C
  C36      1.0000 0.30550  0.37870  0.82570  Biso   1.000  C
  H17      1.0000 0.28490  0.40730  0.81920  Biso   1.000  H
  C37      1.0000 0.34820  0.36830  0.79380  Biso   1.000  C
  C38      1.0000 0.37900  0.32640  0.80550  Biso   1.000  C
  H18      1.0000 0.40780  0.31990  0.78530  Biso   1.000  H
  C39      1.0000 0.36810  0.29430  0.84600  Biso   1.000  C
  C40      1.0000 0.32490  0.30490  0.87640  Biso   1.000  C
  H19      1.0000 0.31710  0.28310  0.90360  Biso   1.000  H
  C41      1.0000 0.36120  0.40380  0.75050  Biso   1.000  C
  C42      1.0000 0.32510  0.43970  0.73320  Biso   1.000  C
  H20      1.0000 0.29280  0.44090  0.74840  Biso   1.000  H
  C43      1.0000 0.33690  0.47330  0.69390  Biso   1.000  C
  C44      1.0000 0.38560  0.47250  0.67020  Biso   1.000  C
  C45      1.0000 0.42170  0.43740  0.68830  Biso   1.000  C
  C46      1.0000 0.40930  0.40350  0.72820  Biso   1.000  C
  H21      1.0000 0.43390  0.38030  0.73980  Biso   1.000  H
  C47      1.0000 0.39950  0.50980  0.62890  Biso   1.000  C
  C48      1.0000 0.40290  0.25150  0.85990  Biso   1.000  C
  C49      1.0000 0.43950  0.23370  0.82380  Biso   1.000  C
  H22      1.0000 0.44060  0.24810  0.79110  Biso   1.000  H
  C50      1.0000 0.47350  0.19530  0.83650  Biso   1.000  C
  C51      1.0000 0.47280  0.17320  0.88530  Biso   1.000  C
  C52      1.0000 0.43670  0.19020  0.92090  Biso   1.000  C
  C53      1.0000 0.40290  0.22880  0.90900  Biso   1.000  C
  H23      1.0000 0.37960  0.24020  0.93370  Biso   1.000  H
  C54      1.0000 0.50980  0.13170  0.89980  Biso   1.000  C
  O13      1.0000 0.10330  0.43980  0.00020  Biso   1.000  O
  O14      1.0000 0.12190  0.36980  0.04540  Biso   1.000  O
  O15      1.0000 0.36830  0.54570  0.62090  Biso   1.000  O
  O16      1.0000 0.43850  0.50180  0.60260  Biso   1.000  O
  O17      1.0000 0.54590  0.12150  0.86880  Biso   1.000  O
  O18      1.0000 0.50180  0.10700  0.94010  Biso   1.000  O
  O19      1.0000 0.18580  0.30500  0.00860  Biso   1.000  O
  H24      1.0000 0.20210  0.30910  0.03530  Biso   1.000  H
  O20      1.0000 0.30040  0.50830  0.68200  Biso   1.000  O
  H25      1.0000 0.31320  0.53120  0.66440  Biso   1.000  H
  O21      1.0000 0.50760  0.18220  0.79920  Biso   1.000  O
  H26      1.0000 0.53340  0.16990  0.81240  Biso   1.000  H
  O22      1.0000 0.46300  0.43900  0.68100  Biso   1.000  O
  O23      1.0000 0.43750  0.17320  0.96880  Biso   1.000  O
  H27      1.0000 0.45690  0.19120  0.98600  Biso   1.000  H
  O24      1.0000 0.14900  0.45280  0.91430  Biso   1.000  O
  H28      1.0000 0.14920  0.47680  0.93470  Biso   1.000  H
  Zn3      1.0000 0.54452  0.04749  0.95421  Biso   1.000  Zn
  C55      1.0000 0.62930  0.10150  0.99140  Biso   1.000  C
  C56      1.0000 0.66950  0.11540  0.03000  Biso   1.000  C
  C57      1.0000 0.68230  0.08260  0.07070  Biso   1.000  C
  C58      1.0000 0.72260  0.09570  0.10360  Biso   1.000  C
  H29      1.0000 0.73130  0.07310  0.12990  Biso   1.000  H
  C59      1.0000 0.74980  0.14020  0.09870  Biso   1.000  C
  C60      1.0000 0.73700  0.17200  0.05770  Biso   1.000  C
  H30      1.0000 0.75500  0.20250  0.05280  Biso   1.000  H
  C61      1.0000 0.69820  0.15940  0.02410  Biso   1.000  C
  C62      1.0000 0.79390  0.15400  0.13260  Biso   1.000  C
  C63      1.0000 0.80550  0.12130  0.17430  Biso   1.000  C
  H31      1.0000 0.78490  0.09270  0.18080  Biso   1.000  H
  C64      1.0000 0.84820  0.13170  0.20620  Biso   1.000  C
  C65      1.0000 0.87900  0.17360  0.19450  Biso   1.000  C
  H32      1.0000 0.90780  0.18010  0.21470  Biso   1.000  H
  C66      1.0000 0.86810  0.20570  0.15400  Biso   1.000  C
  C67      1.0000 0.82490  0.19510  0.12360  Biso   1.000  C
  H33      1.0000 0.81710  0.21690  0.09640  Biso   1.000  H
  C68      1.0000 0.86120  0.09620  0.24950  Biso   1.000  C
  C69      1.0000 0.82510  0.06030  0.26680  Biso   1.000  C
  H34      1.0000 0.79280  0.05910  0.25160  Biso   1.000  H
  C70      1.0000 0.83690  0.02670  0.30610  Biso   1.000  C
  C71      1.0000 0.88560  0.02750  0.32980  Biso   1.000  C
  C72      1.0000 0.92170  0.06260  0.31170  Biso   1.000  C
  C73      1.0000 0.90930  0.09650  0.27180  Biso   1.000  C
  H35      1.0000 0.93390  0.11970  0.26020  Biso   1.000  H
  C74      1.0000 0.89950  0.99020  0.37110  Biso   1.000  C
  C75      1.0000 0.90290  0.24850  0.14010  Biso   1.000  C
  C76      1.0000 0.93950  0.26630  0.17620  Biso   1.000  C
  H36      1.0000 0.94060  0.25190  0.20890  Biso   1.000  H
  C77      1.0000 0.97350  0.30470  0.16350  Biso   1.000  C
  C78      1.0000 0.97280  0.32680  0.11470  Biso   1.000  C
  C79      1.0000 0.93670  0.30980  0.07910  Biso   1.000  C
  C80      1.0000 0.90290  0.27120  0.09100  Biso   1.000  C
  H37      1.0000 0.87960  0.25980  0.06630  Biso   1.000  H
  C81      1.0000 0.00980  0.36830  0.10020  Biso   1.000  C
  O25      1.0000 0.60330  0.06020  0.99980  Biso   1.000  O
  O26      1.0000 0.62190  0.13020  0.95460  Biso   1.000  O
  O27      1.0000 0.86830  0.95430  0.37910  Biso   1.000  O
  O28      1.0000 0.93850  0.99820  0.39740  Biso   1.000  O
  O29      1.0000 0.04590  0.37850  0.13120  Biso   1.000  O
  O30      1.0000 0.00180  0.39300  0.05990  Biso   1.000  O
  O31      1.0000 0.68580  0.19500  0.99140  Biso   1.000  O
  H38      1.0000 0.70210  0.19090  0.96470  Biso   1.000  H
  O32      1.0000 0.80040  0.99170  0.31800  Biso   1.000  O
  H39      1.0000 0.81320  0.96880  0.33560  Biso   1.000  H
  O33      1.0000 0.00760  0.31780  0.20080  Biso   1.000  O
  H40      1.0000 0.03340  0.33010  0.18760  Biso   1.000  H
  O34      1.0000 0.96300  0.06100  0.31900  Biso   1.000  O
  O35      1.0000 0.93750  0.32680  0.03120  Biso   1.000  O
  H41      1.0000 0.95690  0.30880  0.01400  Biso   1.000  H
  O36      1.0000 0.64900  0.04720  0.08570  Biso   1.000  O
  H42      1.0000 0.64920  0.02320  0.06530  Biso   1.000  H
  Zn4      1.0000 0.95548  0.95251  0.45421  Biso   1.000  Zn
  C82      1.0000 0.87070  0.89850  0.49140  Biso   1.000  C
  C83      1.0000 0.83050  0.88460  0.53000  Biso   1.000  C
  C84      1.0000 0.81770  0.91740  0.57070  Biso   1.000  C
  C85      1.0000 0.77740  0.90430  0.60360  Biso   1.000  C
  H43      1.0000 0.76870  0.92690  0.62990  Biso   1.000  H
  C86      1.0000 0.75020  0.85980  0.59870  Biso   1.000  C
  C87      1.0000 0.76300  0.82800  0.55770  Biso   1.000  C
  H44      1.0000 0.74500  0.79750  0.55280  Biso   1.000  H
  C88      1.0000 0.80180  0.84060  0.52410  Biso   1.000  C
  C89      1.0000 0.70610  0.84600  0.63260  Biso   1.000  C
  C90      1.0000 0.69450  0.87870  0.67430  Biso   1.000  C
  H45      1.0000 0.71510  0.90730  0.68080  Biso   1.000  H
  C91      1.0000 0.65180  0.86830  0.70620  Biso   1.000  C
  C92      1.0000 0.62100  0.82640  0.69450  Biso   1.000  C
  H46      1.0000 0.59220  0.81990  0.71470  Biso   1.000  H
  C93      1.0000 0.63190  0.79430  0.65400  Biso   1.000  C
  C94      1.0000 0.67510  0.80490  0.62360  Biso   1.000  C
  H47      1.0000 0.68290  0.78310  0.59640  Biso   1.000  H
  C95      1.0000 0.63880  0.90380  0.74950  Biso   1.000  C
  C96      1.0000 0.67490  0.93970  0.76680  Biso   1.000  C
  H48      1.0000 0.70720  0.94090  0.75160  Biso   1.000  H
  C97      1.0000 0.66310  0.97330  0.80610  Biso   1.000  C
  C98      1.0000 0.61440  0.97250  0.82980  Biso   1.000  C
  C99      1.0000 0.57830  0.93740  0.81170  Biso   1.000  C
  C100     1.0000 0.59070  0.90350  0.77180  Biso   1.000  C
  H49      1.0000 0.56610  0.88030  0.76020  Biso   1.000  H
  C101     1.0000 0.60050  0.00980  0.87110  Biso   1.000  C
  C102     1.0000 0.59710  0.75150  0.64010  Biso   1.000  C
  C103     1.0000 0.56050  0.73370  0.67620  Biso   1.000  C
  H50      1.0000 0.55940  0.74810  0.70890  Biso   1.000  H
  C104     1.0000 0.52650  0.69530  0.66350  Biso   1.000  C
  C105     1.0000 0.52720  0.67320  0.61470  Biso   1.000  C
  C106     1.0000 0.56330  0.69020  0.57910  Biso   1.000  C
  C107     1.0000 0.59710  0.72880  0.59100  Biso   1.000  C
  H51      1.0000 0.62040  0.74020  0.56630  Biso   1.000  H
  C108     1.0000 0.49020  0.63170  0.60020  Biso   1.000  C
  O37      1.0000 0.89670  0.93980  0.49980  Biso   1.000  O
  O38      1.0000 0.87810  0.86980  0.45460  Biso   1.000  O
  O39      1.0000 0.63170  0.04570  0.87910  Biso   1.000  O
  O40      1.0000 0.56150  0.00180  0.89740  Biso   1.000  O
  O41      1.0000 0.45410  0.62150  0.63120  Biso   1.000  O
  O42      1.0000 0.49820  0.60700  0.55990  Biso   1.000  O
  O43      1.0000 0.81420  0.80500  0.49140  Biso   1.000  O
  H52      1.0000 0.79790  0.80910  0.46470  Biso   1.000  H
  O44      1.0000 0.69960  0.00830  0.81800  Biso   1.000  O
  H53      1.0000 0.68680  0.03120  0.83560  Biso   1.000  H
  O45      1.0000 0.49240  0.68220  0.70080  Biso   1.000  O
  H54      1.0000 0.46660  0.66990  0.68760  Biso   1.000  H
  O46      1.0000 0.53700  0.93900  0.81900  Biso   1.000  O
  O47      1.0000 0.56250  0.67320  0.53120  Biso   1.000  O
  H55      1.0000 0.54310  0.69120  0.51400  Biso   1.000  H
  O48      1.0000 0.85100  0.95280  0.58570  Biso   1.000  O
  H56      1.0000 0.85080  0.97680  0.56530  Biso   1.000  H
  Zn5      1.0000 0.54579  0.45548  0.54749  Biso   1.000  Zn
  C109     1.0000 0.50860  0.37070  0.60150  Biso   1.000  C
  C110     1.0000 0.47000  0.33050  0.61540  Biso   1.000  C
  C111     1.0000 0.42930  0.31770  0.58260  Biso   1.000  C
  C112     1.0000 0.39640  0.27740  0.59570  Biso   1.000  C
  H57      1.0000 0.37010  0.26870  0.57310  Biso   1.000  H
  C113     1.0000 0.40130  0.25020  0.64020  Biso   1.000  C
  C114     1.0000 0.44230  0.26300  0.67200  Biso   1.000  C
  H58      1.0000 0.44720  0.24500  0.70250  Biso   1.000  H
  C115     1.0000 0.47590  0.30180  0.65940  Biso   1.000  C
  C116     1.0000 0.36740  0.20610  0.65400  Biso   1.000  C
  C117     1.0000 0.32570  0.19450  0.62130  Biso   1.000  C
  H59      1.0000 0.31920  0.21510  0.59270  Biso   1.000  H
  C118     1.0000 0.29380  0.15180  0.63170  Biso   1.000  C
  C119     1.0000 0.30550  0.12100  0.67360  Biso   1.000  C
  H60      1.0000 0.28530  0.09220  0.68010  Biso   1.000  H
  C120     1.0000 0.34600  0.13190  0.70570  Biso   1.000  C
  C121     1.0000 0.37640  0.17510  0.69510  Biso   1.000  C
  H61      1.0000 0.40360  0.18290  0.71690  Biso   1.000  H
  C122     1.0000 0.25050  0.13880  0.59620  Biso   1.000  C
  C123     1.0000 0.23320  0.17490  0.56030  Biso   1.000  C
  H62      1.0000 0.24840  0.20720  0.55910  Biso   1.000  H
  C124     1.0000 0.19390  0.16310  0.52670  Biso   1.000  C
  C125     1.0000 0.17020  0.11440  0.52750  Biso   1.000  C
  C126     1.0000 0.18830  0.07830  0.56260  Biso   1.000  C
  C127     1.0000 0.22820  0.09070  0.59650  Biso   1.000  C
  H63      1.0000 0.23980  0.06610  0.61970  Biso   1.000  H
  C128     1.0000 0.12890  0.10050  0.49020  Biso   1.000  C
  C129     1.0000 0.35990  0.09710  0.74850  Biso   1.000  C
  C130     1.0000 0.32380  0.06050  0.76630  Biso   1.000  C
  H64      1.0000 0.29110  0.05940  0.75190  Biso   1.000  H
  C131     1.0000 0.33650  0.02650  0.80470  Biso   1.000  C
  C132     1.0000 0.38530  0.02720  0.82680  Biso   1.000  C
  C133     1.0000 0.42090  0.06330  0.80980  Biso   1.000  C
  C134     1.0000 0.40900  0.09710  0.77120  Biso   1.000  C
  H65      1.0000 0.43370  0.12040  0.75980  Biso   1.000  H
  C135     1.0000 0.39980  0.99020  0.86830  Biso   1.000  C
  O49      1.0000 0.50020  0.39670  0.56020  Biso   1.000  O
  O50      1.0000 0.54540  0.37810  0.63020  Biso   1.000  O
  O51      1.0000 0.12090  0.13170  0.45430  Biso   1.000  O
  O52      1.0000 0.10260  0.06150  0.49820  Biso   1.000  O
  O53      1.0000 0.36880  0.95410  0.87850  Biso   1.000  O
  O54      1.0000 0.44010  0.99820  0.89300  Biso   1.000  O
  O55      1.0000 0.50860  0.31420  0.69500  Biso   1.000  O
  H66      1.0000 0.53530  0.29790  0.69090  Biso   1.000  H
  O56      1.0000 0.18200  0.19960  0.49170  Biso   1.000  O
  H67      1.0000 0.16440  0.18680  0.46880  Biso   1.000  H
  O57      1.0000 0.29920  0.99240  0.81780  Biso   1.000  O
  H68      1.0000 0.31240  0.96660  0.83010  Biso   1.000  H
  O58      1.0000 0.18100  0.03700  0.56100  Biso   1.000  O
  O59      1.0000 0.46880  0.06250  0.82680  Biso   1.000  O
  H69      1.0000 0.48600  0.04310  0.80880  Biso   1.000  H
  O60      1.0000 0.41430  0.35100  0.54720  Biso   1.000  O
  H70      1.0000 0.43470  0.35080  0.52320  Biso   1.000  H
  Zn6      1.0000 0.04579  0.04452  0.45251  Biso   1.000  Zn
  C136     1.0000 0.00860  0.12930  0.39850  Biso   1.000  C
  C137     1.0000 0.97000  0.16950  0.38460  Biso   1.000  C
  C138     1.0000 0.92930  0.18230  0.41740  Biso   1.000  C
  C139     1.0000 0.89640  0.22260  0.40430  Biso   1.000  C
  H71      1.0000 0.87010  0.23130  0.42690  Biso   1.000  H
  C140     1.0000 0.90130  0.24980  0.35980  Biso   1.000  C
  C141     1.0000 0.94230  0.23700  0.32800  Biso   1.000  C
  H72      1.0000 0.94720  0.25500  0.29750  Biso   1.000  H
  C142     1.0000 0.97590  0.19820  0.34060  Biso   1.000  C
  C143     1.0000 0.86740  0.29390  0.34600  Biso   1.000  C
  C144     1.0000 0.82570  0.30550  0.37870  Biso   1.000  C
  H73      1.0000 0.81920  0.28490  0.40730  Biso   1.000  H
  C145     1.0000 0.79380  0.34820  0.36830  Biso   1.000  C
  C146     1.0000 0.80550  0.37900  0.32640  Biso   1.000  C
  H74      1.0000 0.78530  0.40780  0.31990  Biso   1.000  H
  C147     1.0000 0.84600  0.36810  0.29430  Biso   1.000  C
  C148     1.0000 0.87640  0.32490  0.30490  Biso   1.000  C
  H75      1.0000 0.90360  0.31710  0.28310  Biso   1.000  H
  C149     1.0000 0.75050  0.36120  0.40380  Biso   1.000  C
  C150     1.0000 0.73320  0.32510  0.43970  Biso   1.000  C
  H76      1.0000 0.74840  0.29280  0.44090  Biso   1.000  H
  C151     1.0000 0.69390  0.33690  0.47330  Biso   1.000  C
  C152     1.0000 0.67020  0.38560  0.47250  Biso   1.000  C
  C153     1.0000 0.68830  0.42170  0.43740  Biso   1.000  C
  C154     1.0000 0.72820  0.40930  0.40350  Biso   1.000  C
  H77      1.0000 0.73980  0.43390  0.38030  Biso   1.000  H
  C155     1.0000 0.62890  0.39950  0.50980  Biso   1.000  C
  C156     1.0000 0.85990  0.40290  0.25150  Biso   1.000  C
  C157     1.0000 0.82380  0.43950  0.23370  Biso   1.000  C
  H78      1.0000 0.79110  0.44060  0.24810  Biso   1.000  H
  C158     1.0000 0.83650  0.47350  0.19530  Biso   1.000  C
  C159     1.0000 0.88530  0.47280  0.17320  Biso   1.000  C
  C160     1.0000 0.92090  0.43670  0.19020  Biso   1.000  C
  C161     1.0000 0.90900  0.40290  0.22880  Biso   1.000  C
  H79      1.0000 0.93370  0.37960  0.24020  Biso   1.000  H
  C162     1.0000 0.89980  0.50980  0.13170  Biso   1.000  C
  O61      1.0000 0.00020  0.10330  0.43980  Biso   1.000  O
  O62      1.0000 0.04540  0.12190  0.36980  Biso   1.000  O
  O63      1.0000 0.62090  0.36830  0.54570  Biso   1.000  O
  O64      1.0000 0.60260  0.43850  0.50180  Biso   1.000  O
  O65      1.0000 0.86880  0.54590  0.12150  Biso   1.000  O
  O66      1.0000 0.94010  0.50180  0.10700  Biso   1.000  O
  O67      1.0000 0.00860  0.18580  0.30500  Biso   1.000  O
  H80      1.0000 0.03530  0.20210  0.30910  Biso   1.000  H
  O68      1.0000 0.68200  0.30040  0.50830  Biso   1.000  O
  H81      1.0000 0.66440  0.31320  0.53120  Biso   1.000  H
  O69      1.0000 0.79920  0.50760  0.18220  Biso   1.000  O
  H82      1.0000 0.81240  0.53340  0.16990  Biso   1.000  H
  O70      1.0000 0.68100  0.46300  0.43900  Biso   1.000  O
  O71      1.0000 0.96880  0.43750  0.17320  Biso   1.000  O
  H83      1.0000 0.98600  0.45690  0.19120  Biso   1.000  H
  O72      1.0000 0.91430  0.14900  0.45280  Biso   1.000  O
  H84      1.0000 0.93470  0.14920  0.47680  Biso   1.000  H
  Zn7      1.0000 0.95421  0.54452  0.04749  Biso   1.000  Zn
  C163     1.0000 0.99140  0.62930  0.10150  Biso   1.000  C
  C164     1.0000 0.03000  0.66950  0.11540  Biso   1.000  C
  C165     1.0000 0.07070  0.68230  0.08260  Biso   1.000  C
  C166     1.0000 0.10360  0.72260  0.09570  Biso   1.000  C
  H85      1.0000 0.12990  0.73130  0.07310  Biso   1.000  H
  C167     1.0000 0.09870  0.74980  0.14020  Biso   1.000  C
  C168     1.0000 0.05770  0.73700  0.17200  Biso   1.000  C
  H86      1.0000 0.05280  0.75500  0.20250  Biso   1.000  H
  C169     1.0000 0.02410  0.69820  0.15940  Biso   1.000  C
  C170     1.0000 0.13260  0.79390  0.15400  Biso   1.000  C
  C171     1.0000 0.17430  0.80550  0.12130  Biso   1.000  C
  H87      1.0000 0.18080  0.78490  0.09270  Biso   1.000  H
  C172     1.0000 0.20620  0.84820  0.13170  Biso   1.000  C
  C173     1.0000 0.19450  0.87900  0.17360  Biso   1.000  C
  H88      1.0000 0.21470  0.90780  0.18010  Biso   1.000  H
  C174     1.0000 0.15400  0.86810  0.20570  Biso   1.000  C
  C175     1.0000 0.12360  0.82490  0.19510  Biso   1.000  C
  H89      1.0000 0.09640  0.81710  0.21690  Biso   1.000  H
  C176     1.0000 0.24950  0.86120  0.09620  Biso   1.000  C
  C177     1.0000 0.26680  0.82510  0.06030  Biso   1.000  C
  H90      1.0000 0.25160  0.79280  0.05910  Biso   1.000  H
  C178     1.0000 0.30610  0.83690  0.02670  Biso   1.000  C
  C179     1.0000 0.32980  0.88560  0.02750  Biso   1.000  C
  C180     1.0000 0.31170  0.92170  0.06260  Biso   1.000  C
  C181     1.0000 0.27180  0.90930  0.09650  Biso   1.000  C
  H91      1.0000 0.26020  0.93390  0.11970  Biso   1.000  H
  C182     1.0000 0.37110  0.89950  0.99020  Biso   1.000  C
  C183     1.0000 0.14010  0.90290  0.24850  Biso   1.000  C
  C184     1.0000 0.17620  0.93950  0.26630  Biso   1.000  C
  H92      1.0000 0.20890  0.94060  0.25190  Biso   1.000  H
  C185     1.0000 0.16350  0.97350  0.30470  Biso   1.000  C
  C186     1.0000 0.11470  0.97280  0.32680  Biso   1.000  C
  C187     1.0000 0.07910  0.93670  0.30980  Biso   1.000  C
  C188     1.0000 0.09100  0.90290  0.27120  Biso   1.000  C
  H93      1.0000 0.06630  0.87960  0.25980  Biso   1.000  H
  C189     1.0000 0.10020  0.00980  0.36830  Biso   1.000  C
  O73      1.0000 0.99980  0.60330  0.06020  Biso   1.000  O
  O74      1.0000 0.95460  0.62190  0.13020  Biso   1.000  O
  O75      1.0000 0.37910  0.86830  0.95430  Biso   1.000  O
  O76      1.0000 0.39740  0.93850  0.99820  Biso   1.000  O
  O77      1.0000 0.13120  0.04590  0.37850  Biso   1.000  O
  O78      1.0000 0.05990  0.00180  0.39300  Biso   1.000  O
  O79      1.0000 0.99140  0.68580  0.19500  Biso   1.000  O
  H94      1.0000 0.96470  0.70210  0.19090  Biso   1.000  H
  O80      1.0000 0.31800  0.80040  0.99170  Biso   1.000  O
  H95      1.0000 0.33560  0.81320  0.96880  Biso   1.000  H
  O81      1.0000 0.20080  0.00760  0.31780  Biso   1.000  O
  H96      1.0000 0.18760  0.03340  0.33010  Biso   1.000  H
  O82      1.0000 0.31900  0.96300  0.06100  Biso   1.000  O
  O83      1.0000 0.03120  0.93750  0.32680  Biso   1.000  O
  H97      1.0000 0.01400  0.95690  0.30880  Biso   1.000  H
  O84      1.0000 0.08570  0.64900  0.04720  Biso   1.000  O
  H98      1.0000 0.06530  0.64920  0.02320  Biso   1.000  H
  Zn8      1.0000 0.45421  0.95548  0.95251  Biso   1.000  Zn
  C190     1.0000 0.49140  0.87070  0.89850  Biso   1.000  C
  C191     1.0000 0.53000  0.83050  0.88460  Biso   1.000  C
  C192     1.0000 0.57070  0.81770  0.91740  Biso   1.000  C
  C193     1.0000 0.60360  0.77740  0.90430  Biso   1.000  C
  H99      1.0000 0.62990  0.76870  0.92690  Biso   1.000  H
  C194     1.0000 0.59870  0.75020  0.85980  Biso   1.000  C
  C195     1.0000 0.55770  0.76300  0.82800  Biso   1.000  C
  H100     1.0000 0.55280  0.74500  0.79750  Biso   1.000  H
  C196     1.0000 0.52410  0.80180  0.84060  Biso   1.000  C
  C197     1.0000 0.63260  0.70610  0.84600  Biso   1.000  C
  C198     1.0000 0.67430  0.69450  0.87870  Biso   1.000  C
  H101     1.0000 0.68080  0.71510  0.90730  Biso   1.000  H
  C199     1.0000 0.70620  0.65180  0.86830  Biso   1.000  C
  C200     1.0000 0.69450  0.62100  0.82640  Biso   1.000  C
  H102     1.0000 0.71470  0.59220  0.81990  Biso   1.000  H
  C201     1.0000 0.65400  0.63190  0.79430  Biso   1.000  C
  C202     1.0000 0.62360  0.67510  0.80490  Biso   1.000  C
  H103     1.0000 0.59640  0.68290  0.78310  Biso   1.000  H
  C203     1.0000 0.74950  0.63880  0.90380  Biso   1.000  C
  C204     1.0000 0.76680  0.67490  0.93970  Biso   1.000  C
  H104     1.0000 0.75160  0.70720  0.94090  Biso   1.000  H
  C205     1.0000 0.80610  0.66310  0.97330  Biso   1.000  C
  C206     1.0000 0.82980  0.61440  0.97250  Biso   1.000  C
  C207     1.0000 0.81170  0.57830  0.93740  Biso   1.000  C
  C208     1.0000 0.77180  0.59070  0.90350  Biso   1.000  C
  H105     1.0000 0.76020  0.56610  0.88030  Biso   1.000  H
  C209     1.0000 0.87110  0.60050  0.00980  Biso   1.000  C
  C210     1.0000 0.64010  0.59710  0.75150  Biso   1.000  C
  C211     1.0000 0.67620  0.56050  0.73370  Biso   1.000  C
  H106     1.0000 0.70890  0.55940  0.74810  Biso   1.000  H
  C212     1.0000 0.66350  0.52650  0.69530  Biso   1.000  C
  C213     1.0000 0.61470  0.52720  0.67320  Biso   1.000  C
  C214     1.0000 0.57910  0.56330  0.69020  Biso   1.000  C
  C215     1.0000 0.59100  0.59710  0.72880  Biso   1.000  C
  H107     1.0000 0.56630  0.62040  0.74020  Biso   1.000  H
  C216     1.0000 0.60020  0.49020  0.63170  Biso   1.000  C
  O85      1.0000 0.49980  0.89670  0.93980  Biso   1.000  O
  O86      1.0000 0.45460  0.87810  0.86980  Biso   1.000  O
  O87      1.0000 0.87910  0.63170  0.04570  Biso   1.000  O
  O88      1.0000 0.89740  0.56150  0.00180  Biso   1.000  O
  O89      1.0000 0.63120  0.45410  0.62150  Biso   1.000  O
  O90      1.0000 0.55990  0.49820  0.60700  Biso   1.000  O
  O91      1.0000 0.49140  0.81420  0.80500  Biso   1.000  O
  H108     1.0000 0.46470  0.79790  0.80910  Biso   1.000  H
  O92      1.0000 0.81800  0.69960  0.00830  Biso   1.000  O
  H109     1.0000 0.83560  0.68680  0.03120  Biso   1.000  H
  O93      1.0000 0.70080  0.49240  0.68220  Biso   1.000  O
  H110     1.0000 0.68760  0.46660  0.66990  Biso   1.000  H
  O94      1.0000 0.81900  0.53700  0.93900  Biso   1.000  O
  O95      1.0000 0.53120  0.56250  0.67320  Biso   1.000  O
  H111     1.0000 0.51400  0.54310  0.69120  Biso   1.000  H
  O96      1.0000 0.58570  0.85100  0.95280  Biso   1.000  O
  H112     1.0000 0.56530  0.85080  0.97680  Biso   1.000  H
  Zn9      1.0000 0.54749  0.54579  0.45548  Biso   1.000  Zn
  C217     1.0000 0.60150  0.50860  0.37070  Biso   1.000  C
  C218     1.0000 0.61540  0.47000  0.33050  Biso   1.000  C
  C219     1.0000 0.58260  0.42930  0.31770  Biso   1.000  C
  C220     1.0000 0.59570  0.39640  0.27740  Biso   1.000  C
  H113     1.0000 0.57310  0.37010  0.26870  Biso   1.000  H
  C221     1.0000 0.64020  0.40130  0.25020  Biso   1.000  C
  C222     1.0000 0.67200  0.44230  0.26300  Biso   1.000  C
  H114     1.0000 0.70250  0.44720  0.24500  Biso   1.000  H
  C223     1.0000 0.65940  0.47590  0.30180  Biso   1.000  C
  C224     1.0000 0.65400  0.36740  0.20610  Biso   1.000  C
  C225     1.0000 0.62130  0.32570  0.19450  Biso   1.000  C
  H115     1.0000 0.59270  0.31920  0.21510  Biso   1.000  H
  C226     1.0000 0.63170  0.29380  0.15180  Biso   1.000  C
  C227     1.0000 0.67360  0.30550  0.12100  Biso   1.000  C
  H116     1.0000 0.68010  0.28530  0.09220  Biso   1.000  H
  C228     1.0000 0.70570  0.34600  0.13190  Biso   1.000  C
  C229     1.0000 0.69510  0.37640  0.17510  Biso   1.000  C
  H117     1.0000 0.71690  0.40360  0.18290  Biso   1.000  H
  C230     1.0000 0.59620  0.25050  0.13880  Biso   1.000  C
  C231     1.0000 0.56030  0.23320  0.17490  Biso   1.000  C
  H118     1.0000 0.55910  0.24840  0.20720  Biso   1.000  H
  C232     1.0000 0.52670  0.19390  0.16310  Biso   1.000  C
  C233     1.0000 0.52750  0.17020  0.11440  Biso   1.000  C
  C234     1.0000 0.56260  0.18830  0.07830  Biso   1.000  C
  C235     1.0000 0.59650  0.22820  0.09070  Biso   1.000  C
  H119     1.0000 0.61970  0.23980  0.06610  Biso   1.000  H
  C236     1.0000 0.49020  0.12890  0.10050  Biso   1.000  C
  C237     1.0000 0.74850  0.35990  0.09710  Biso   1.000  C
  C238     1.0000 0.76630  0.32380  0.06050  Biso   1.000  C
  H120     1.0000 0.75190  0.29110  0.05940  Biso   1.000  H
  C239     1.0000 0.80470  0.33650  0.02650  Biso   1.000  C
  C240     1.0000 0.82680  0.38530  0.02720  Biso   1.000  C
  C241     1.0000 0.80980  0.42090  0.06330  Biso   1.000  C
  C242     1.0000 0.77120  0.40900  0.09710  Biso   1.000  C
  H121     1.0000 0.75980  0.43370  0.12040  Biso   1.000  H
  C243     1.0000 0.86830  0.39980  0.99020  Biso   1.000  C
  O97      1.0000 0.56020  0.50020  0.39670  Biso   1.000  O
  O98      1.0000 0.63020  0.54540  0.37810  Biso   1.000  O
  O99      1.0000 0.45430  0.12090  0.13170  Biso   1.000  O
  O100     1.0000 0.49820  0.10260  0.06150  Biso   1.000  O
  O101     1.0000 0.87850  0.36880  0.95410  Biso   1.000  O
  O102     1.0000 0.89300  0.44010  0.99820  Biso   1.000  O
  O103     1.0000 0.69500  0.50860  0.31420  Biso   1.000  O
  H122     1.0000 0.69090  0.53530  0.29790  Biso   1.000  H
  O104     1.0000 0.49170  0.18200  0.19960  Biso   1.000  O
  H123     1.0000 0.46880  0.16440  0.18680  Biso   1.000  H
  O105     1.0000 0.81780  0.29920  0.99240  Biso   1.000  O
  H124     1.0000 0.83010  0.31240  0.96660  Biso   1.000  H
  O106     1.0000 0.56100  0.18100  0.03700  Biso   1.000  O
  O107     1.0000 0.82680  0.46880  0.06250  Biso   1.000  O
  H125     1.0000 0.80880  0.48600  0.04310  Biso   1.000  H
  O108     1.0000 0.54720  0.41430  0.35100  Biso   1.000  O
  H126     1.0000 0.52320  0.43470  0.35080  Biso   1.000  H
  Zn10     1.0000 0.45251  0.04579  0.04452  Biso   1.000  Zn
  C244     1.0000 0.39850  0.00860  0.12930  Biso   1.000  C
  C245     1.0000 0.38460  0.97000  0.16950  Biso   1.000  C
  C246     1.0000 0.41740  0.92930  0.18230  Biso   1.000  C
  C247     1.0000 0.40430  0.89640  0.22260  Biso   1.000  C
  H127     1.0000 0.42690  0.87010  0.23130  Biso   1.000  H
  C248     1.0000 0.35980  0.90130  0.24980  Biso   1.000  C
  C249     1.0000 0.32800  0.94230  0.23700  Biso   1.000  C
  H128     1.0000 0.29750  0.94720  0.25500  Biso   1.000  H
  C250     1.0000 0.34060  0.97590  0.19820  Biso   1.000  C
  C251     1.0000 0.34600  0.86740  0.29390  Biso   1.000  C
  C252     1.0000 0.37870  0.82570  0.30550  Biso   1.000  C
  H129     1.0000 0.40730  0.81920  0.28490  Biso   1.000  H
  C253     1.0000 0.36830  0.79380  0.34820  Biso   1.000  C
  C254     1.0000 0.32640  0.80550  0.37900  Biso   1.000  C
  H130     1.0000 0.31990  0.78530  0.40780  Biso   1.000  H
  C255     1.0000 0.29430  0.84600  0.36810  Biso   1.000  C
  C256     1.0000 0.30490  0.87640  0.32490  Biso   1.000  C
  H131     1.0000 0.28310  0.90360  0.31710  Biso   1.000  H
  C257     1.0000 0.40380  0.75050  0.36120  Biso   1.000  C
  C258     1.0000 0.43970  0.73320  0.32510  Biso   1.000  C
  H132     1.0000 0.44090  0.74840  0.29280  Biso   1.000  H
  C259     1.0000 0.47330  0.69390  0.33690  Biso   1.000  C
  C260     1.0000 0.47250  0.67020  0.38560  Biso   1.000  C
  C261     1.0000 0.43740  0.68830  0.42170  Biso   1.000  C
  C262     1.0000 0.40350  0.72820  0.40930  Biso   1.000  C
  H133     1.0000 0.38030  0.73980  0.43390  Biso   1.000  H
  C263     1.0000 0.50980  0.62890  0.39950  Biso   1.000  C
  C264     1.0000 0.25150  0.85990  0.40290  Biso   1.000  C
  C265     1.0000 0.23370  0.82380  0.43950  Biso   1.000  C
  H134     1.0000 0.24810  0.79110  0.44060  Biso   1.000  H
  C266     1.0000 0.19530  0.83650  0.47350  Biso   1.000  C
  C267     1.0000 0.17320  0.88530  0.47280  Biso   1.000  C
  C268     1.0000 0.19020  0.92090  0.43670  Biso   1.000  C
  C269     1.0000 0.22880  0.90900  0.40290  Biso   1.000  C
  H135     1.0000 0.24020  0.93370  0.37960  Biso   1.000  H
  C270     1.0000 0.13170  0.89980  0.50980  Biso   1.000  C
  O109     1.0000 0.43980  0.00020  0.10330  Biso   1.000  O
  O110     1.0000 0.36980  0.04540  0.12190  Biso   1.000  O
  O111     1.0000 0.54570  0.62090  0.36830  Biso   1.000  O
  O112     1.0000 0.50180  0.60260  0.43850  Biso   1.000  O
  O113     1.0000 0.12150  0.86880  0.54590  Biso   1.000  O
  O114     1.0000 0.10700  0.94010  0.50180  Biso   1.000  O
  O115     1.0000 0.30500  0.00860  0.18580  Biso   1.000  O
  H136     1.0000 0.30910  0.03530  0.20210  Biso   1.000  H
  O116     1.0000 0.50830  0.68200  0.30040  Biso   1.000  O
  H137     1.0000 0.53120  0.66440  0.31320  Biso   1.000  H
  O117     1.0000 0.18220  0.79920  0.50760  Biso   1.000  O
  H138     1.0000 0.16990  0.81240  0.53340  Biso   1.000  H
  O118     1.0000 0.43900  0.68100  0.46300  Biso   1.000  O
  O119     1.0000 0.17320  0.96880  0.43750  Biso   1.000  O
  H139     1.0000 0.19120  0.98600  0.45690  Biso   1.000  H
  O120     1.0000 0.45280  0.91430  0.14900  Biso   1.000  O
  H140     1.0000 0.47680  0.93470  0.14920  Biso   1.000  H
  Zn11     1.0000 0.04749  0.95421  0.54452  Biso   1.000  Zn
  C271     1.0000 0.10150  0.99140  0.62930  Biso   1.000  C
  C272     1.0000 0.11540  0.03000  0.66950  Biso   1.000  C
  C273     1.0000 0.08260  0.07070  0.68230  Biso   1.000  C
  C274     1.0000 0.09570  0.10360  0.72260  Biso   1.000  C
  H141     1.0000 0.07310  0.12990  0.73130  Biso   1.000  H
  C275     1.0000 0.14020  0.09870  0.74980  Biso   1.000  C
  C276     1.0000 0.17200  0.05770  0.73700  Biso   1.000  C
  H142     1.0000 0.20250  0.05280  0.75500  Biso   1.000  H
  C277     1.0000 0.15940  0.02410  0.69820  Biso   1.000  C
  C278     1.0000 0.15400  0.13260  0.79390  Biso   1.000  C
  C279     1.0000 0.12130  0.17430  0.80550  Biso   1.000  C
  H143     1.0000 0.09270  0.18080  0.78490  Biso   1.000  H
  C280     1.0000 0.13170  0.20620  0.84820  Biso   1.000  C
  C281     1.0000 0.17360  0.19450  0.87900  Biso   1.000  C
  H144     1.0000 0.18010  0.21470  0.90780  Biso   1.000  H
  C282     1.0000 0.20570  0.15400  0.86810  Biso   1.000  C
  C283     1.0000 0.19510  0.12360  0.82490  Biso   1.000  C
  H145     1.0000 0.21690  0.09640  0.81710  Biso   1.000  H
  C284     1.0000 0.09620  0.24950  0.86120  Biso   1.000  C
  C285     1.0000 0.06030  0.26680  0.82510  Biso   1.000  C
  H146     1.0000 0.05910  0.25160  0.79280  Biso   1.000  H
  C286     1.0000 0.02670  0.30610  0.83690  Biso   1.000  C
  C287     1.0000 0.02750  0.32980  0.88560  Biso   1.000  C
  C288     1.0000 0.06260  0.31170  0.92170  Biso   1.000  C
  C289     1.0000 0.09650  0.27180  0.90930  Biso   1.000  C
  H147     1.0000 0.11970  0.26020  0.93390  Biso   1.000  H
  C290     1.0000 0.99020  0.37110  0.89950  Biso   1.000  C
  C291     1.0000 0.24850  0.14010  0.90290  Biso   1.000  C
  C292     1.0000 0.26630  0.17620  0.93950  Biso   1.000  C
  H148     1.0000 0.25190  0.20890  0.94060  Biso   1.000  H
  C293     1.0000 0.30470  0.16350  0.97350  Biso   1.000  C
  C294     1.0000 0.32680  0.11470  0.97280  Biso   1.000  C
  C295     1.0000 0.30980  0.07910  0.93670  Biso   1.000  C
  C296     1.0000 0.27120  0.09100  0.90290  Biso   1.000  C
  H149     1.0000 0.25980  0.06630  0.87960  Biso   1.000  H
  C297     1.0000 0.36830  0.10020  0.00980  Biso   1.000  C
  O121     1.0000 0.06020  0.99980  0.60330  Biso   1.000  O
  O122     1.0000 0.13020  0.95460  0.62190  Biso   1.000  O
  O123     1.0000 0.95430  0.37910  0.86830  Biso   1.000  O
  O124     1.0000 0.99820  0.39740  0.93850  Biso   1.000  O
  O125     1.0000 0.37850  0.13120  0.04590  Biso   1.000  O
  O126     1.0000 0.39300  0.05990  0.00180  Biso   1.000  O
  O127     1.0000 0.19500  0.99140  0.68580  Biso   1.000  O
  H150     1.0000 0.19090  0.96470  0.70210  Biso   1.000  H
  O128     1.0000 0.99170  0.31800  0.80040  Biso   1.000  O
  H151     1.0000 0.96880  0.33560  0.81320  Biso   1.000  H
  O129     1.0000 0.31780  0.20080  0.00760  Biso   1.000  O
  H152     1.0000 0.33010  0.18760  0.03340  Biso   1.000  H
  O130     1.0000 0.06100  0.31900  0.96300  Biso   1.000  O
  O131     1.0000 0.32680  0.03120  0.93750  Biso   1.000  O
  H153     1.0000 0.30880  0.01400  0.95690  Biso   1.000  H
  O132     1.0000 0.04720  0.08570  0.64900  Biso   1.000  O
  H154     1.0000 0.02320  0.06530  0.64920  Biso   1.000  H
  Zn12     1.0000 0.95251  0.45421  0.95548  Biso   1.000  Zn
  C298     1.0000 0.89850  0.49140  0.87070  Biso   1.000  C
  C299     1.0000 0.88460  0.53000  0.83050  Biso   1.000  C
  C300     1.0000 0.91740  0.57070  0.81770  Biso   1.000  C
  C301     1.0000 0.90430  0.60360  0.77740  Biso   1.000  C
  H155     1.0000 0.92690  0.62990  0.76870  Biso   1.000  H
  C302     1.0000 0.85980  0.59870  0.75020  Biso   1.000  C
  C303     1.0000 0.82800  0.55770  0.76300  Biso   1.000  C
  H156     1.0000 0.79750  0.55280  0.74500  Biso   1.000  H
  C304     1.0000 0.84060  0.52410  0.80180  Biso   1.000  C
  C305     1.0000 0.84600  0.63260  0.70610  Biso   1.000  C
  C306     1.0000 0.87870  0.67430  0.69450  Biso   1.000  C
  H157     1.0000 0.90730  0.68080  0.71510  Biso   1.000  H
  C307     1.0000 0.86830  0.70620  0.65180  Biso   1.000  C
  C308     1.0000 0.82640  0.69450  0.62100  Biso   1.000  C
  H158     1.0000 0.81990  0.71470  0.59220  Biso   1.000  H
  C309     1.0000 0.79430  0.65400  0.63190  Biso   1.000  C
  C310     1.0000 0.80490  0.62360  0.67510  Biso   1.000  C
  H159     1.0000 0.78310  0.59640  0.68290  Biso   1.000  H
  C311     1.0000 0.90380  0.74950  0.63880  Biso   1.000  C
  C312     1.0000 0.93970  0.76680  0.67490  Biso   1.000  C
  H160     1.0000 0.94090  0.75160  0.70720  Biso   1.000  H
  C313     1.0000 0.97330  0.80610  0.66310  Biso   1.000  C
  C314     1.0000 0.97250  0.82980  0.61440  Biso   1.000  C
  C315     1.0000 0.93740  0.81170  0.57830  Biso   1.000  C
  C316     1.0000 0.90350  0.77180  0.59070  Biso   1.000  C
  H161     1.0000 0.88030  0.76020  0.56610  Biso   1.000  H
  C317     1.0000 0.00980  0.87110  0.60050  Biso   1.000  C
  C318     1.0000 0.75150  0.64010  0.59710  Biso   1.000  C
  C319     1.0000 0.73370  0.67620  0.56050  Biso   1.000  C
  H162     1.0000 0.74810  0.70890  0.55940  Biso   1.000  H
  C320     1.0000 0.69530  0.66350  0.52650  Biso   1.000  C
  C321     1.0000 0.67320  0.61470  0.52720  Biso   1.000  C
  C322     1.0000 0.69020  0.57910  0.56330  Biso   1.000  C
  C323     1.0000 0.72880  0.59100  0.59710  Biso   1.000  C
  H163     1.0000 0.74020  0.56630  0.62040  Biso   1.000  H
  C324     1.0000 0.63170  0.60020  0.49020  Biso   1.000  C
  O133     1.0000 0.93980  0.49980  0.89670  Biso   1.000  O
  O134     1.0000 0.86980  0.45460  0.87810  Biso   1.000  O
  O135     1.0000 0.04570  0.87910  0.63170  Biso   1.000  O
  O136     1.0000 0.00180  0.89740  0.56150  Biso   1.000  O
  O137     1.0000 0.62150  0.63120  0.45410  Biso   1.000  O
  O138     1.0000 0.60700  0.55990  0.49820  Biso   1.000  O
  O139     1.0000 0.80500  0.49140  0.81420  Biso   1.000  O
  H164     1.0000 0.80910  0.46470  0.79790  Biso   1.000  H
  O140     1.0000 0.00830  0.81800  0.69960  Biso   1.000  O
  H165     1.0000 0.03120  0.83560  0.68680  Biso   1.000  H
  O141     1.0000 0.68220  0.70080  0.49240  Biso   1.000  O
  H166     1.0000 0.66990  0.68760  0.46660  Biso   1.000  H
  O142     1.0000 0.93900  0.81900  0.53700  Biso   1.000  O
  O143     1.0000 0.67320  0.53120  0.56250  Biso   1.000  O
  H167     1.0000 0.69120  0.51400  0.54310  Biso   1.000  H
  O144     1.0000 0.95280  0.58570  0.85100  Biso   1.000  O
  H168     1.0000 0.97680  0.56530  0.85080  Biso   1.000  H
  Zn13     1.0000 0.29749  0.70548  0.70421  Biso   1.000  Zn
  C325     1.0000 0.35150  0.62070  0.74140  Biso   1.000  C
  C326     1.0000 0.36540  0.58050  0.78000  Biso   1.000  C
  C327     1.0000 0.33260  0.56770  0.82070  Biso   1.000  C
  C328     1.0000 0.34570  0.52740  0.85360  Biso   1.000  C
  H169     1.0000 0.32310  0.51870  0.87990  Biso   1.000  H
  C329     1.0000 0.39020  0.50020  0.84870  Biso   1.000  C
  C330     1.0000 0.42200  0.51300  0.80770  Biso   1.000  C
  H170     1.0000 0.45250  0.49500  0.80280  Biso   1.000  H
  C331     1.0000 0.40940  0.55180  0.77410  Biso   1.000  C
  C332     1.0000 0.40400  0.45610  0.88260  Biso   1.000  C
  C333     1.0000 0.37130  0.44450  0.92430  Biso   1.000  C
  H171     1.0000 0.34270  0.46510  0.93080  Biso   1.000  H
  C334     1.0000 0.38170  0.40180  0.95620  Biso   1.000  C
  C335     1.0000 0.42360  0.37100  0.94450  Biso   1.000  C
  H172     1.0000 0.43010  0.34220  0.96470  Biso   1.000  H
  C336     1.0000 0.45570  0.38190  0.90400  Biso   1.000  C
  C337     1.0000 0.44510  0.42510  0.87360  Biso   1.000  C
  H173     1.0000 0.46690  0.43290  0.84640  Biso   1.000  H
  C338     1.0000 0.34620  0.38880  0.99950  Biso   1.000  C
  C339     1.0000 0.31030  0.42490  0.01680  Biso   1.000  C
  H174     1.0000 0.30910  0.45720  0.00160  Biso   1.000  H
  C340     1.0000 0.27670  0.41310  0.05610  Biso   1.000  C
  C341     1.0000 0.27750  0.36440  0.07980  Biso   1.000  C
  C342     1.0000 0.31260  0.32830  0.06170  Biso   1.000  C
  C343     1.0000 0.34650  0.34070  0.02180  Biso   1.000  C
  H175     1.0000 0.36970  0.31610  0.01020  Biso   1.000  H
  C344     1.0000 0.24020  0.35050  0.12110  Biso   1.000  C
  C345     1.0000 0.49850  0.34710  0.89010  Biso   1.000  C
  C346     1.0000 0.51630  0.31050  0.92620  Biso   1.000  C
  H176     1.0000 0.50190  0.30940  0.95890  Biso   1.000  H
  C347     1.0000 0.55470  0.27650  0.91350  Biso   1.000  C
  C348     1.0000 0.57680  0.27720  0.86470  Biso   1.000  C
  C349     1.0000 0.55980  0.31330  0.82910  Biso   1.000  C
  C350     1.0000 0.52120  0.34710  0.84100  Biso   1.000  C
  H177     1.0000 0.50980  0.37040  0.81630  Biso   1.000  H
  C351     1.0000 0.61830  0.24020  0.85020  Biso   1.000  C
  O145     1.0000 0.31020  0.64670  0.74980  Biso   1.000  O
  O146     1.0000 0.38020  0.62810  0.70460  Biso   1.000  O
  O147     1.0000 0.20430  0.38170  0.12910  Biso   1.000  O
  O148     1.0000 0.24820  0.31150  0.14740  Biso   1.000  O
  O149     1.0000 0.62850  0.20410  0.88120  Biso   1.000  O
  O150     1.0000 0.64300  0.24820  0.80990  Biso   1.000  O
  O151     1.0000 0.44500  0.56420  0.74140  Biso   1.000  O
  H178     1.0000 0.44090  0.54790  0.71470  Biso   1.000  H
  O152     1.0000 0.24170  0.44960  0.06800  Biso   1.000  O
  H179     1.0000 0.21880  0.43680  0.08560  Biso   1.000  H
  O153     1.0000 0.56780  0.24240  0.95080  Biso   1.000  O
  H180     1.0000 0.58010  0.21660  0.93760  Biso   1.000  H
  O154     1.0000 0.31100  0.28700  0.06900  Biso   1.000  O
  O155     1.0000 0.57680  0.31250  0.78120  Biso   1.000  O
  H181     1.0000 0.55880  0.29310  0.76400  Biso   1.000  H
  O156     1.0000 0.29720  0.60100  0.83570  Biso   1.000  O
  H182     1.0000 0.27320  0.60080  0.81530  Biso   1.000  H
  Zn14     1.0000 0.20251  0.29452  0.20421  Biso   1.000  Zn
  C352     1.0000 0.14850  0.37930  0.24140  Biso   1.000  C
  C353     1.0000 0.13460  0.41950  0.28000  Biso   1.000  C
  C354     1.0000 0.16740  0.43230  0.32070  Biso   1.000  C
  C355     1.0000 0.15430  0.47260  0.35360  Biso   1.000  C
  H183     1.0000 0.17690  0.48130  0.37990  Biso   1.000  H
  C356     1.0000 0.10980  0.49980  0.34870  Biso   1.000  C
  C357     1.0000 0.07800  0.48700  0.30770  Biso   1.000  C
  H184     1.0000 0.04750  0.50500  0.30280  Biso   1.000  H
  C358     1.0000 0.09060  0.44820  0.27410  Biso   1.000  C
  C359     1.0000 0.09600  0.54390  0.38260  Biso   1.000  C
  C360     1.0000 0.12870  0.55550  0.42430  Biso   1.000  C
  H185     1.0000 0.15730  0.53490  0.43080  Biso   1.000  H
  C361     1.0000 0.11830  0.59820  0.45620  Biso   1.000  C
  C362     1.0000 0.07640  0.62900  0.44450  Biso   1.000  C
  H186     1.0000 0.06990  0.65780  0.46470  Biso   1.000  H
  C363     1.0000 0.04430  0.61810  0.40400  Biso   1.000  C
  C364     1.0000 0.05490  0.57490  0.37360  Biso   1.000  C
  H187     1.0000 0.03310  0.56710  0.34640  Biso   1.000  H
  C365     1.0000 0.15380  0.61120  0.49950  Biso   1.000  C
  C366     1.0000 0.18970  0.57510  0.51680  Biso   1.000  C
  H188     1.0000 0.19090  0.54280  0.50160  Biso   1.000  H
  C367     1.0000 0.22330  0.58690  0.55610  Biso   1.000  C
  C368     1.0000 0.22250  0.63560  0.57980  Biso   1.000  C
  C369     1.0000 0.18740  0.67170  0.56170  Biso   1.000  C
  C370     1.0000 0.15350  0.65930  0.52180  Biso   1.000  C
  H189     1.0000 0.13030  0.68390  0.51020  Biso   1.000  H
  C371     1.0000 0.25980  0.64950  0.62110  Biso   1.000  C
  C372     1.0000 0.00150  0.65290  0.39010  Biso   1.000  C
  C373     1.0000 0.98370  0.68950  0.42620  Biso   1.000  C
  H190     1.0000 0.99810  0.69060  0.45890  Biso   1.000  H
  C374     1.0000 0.94530  0.72350  0.41350  Biso   1.000  C
  C375     1.0000 0.92320  0.72280  0.36470  Biso   1.000  C
  C376     1.0000 0.94020  0.68670  0.32910  Biso   1.000  C
  C377     1.0000 0.97880  0.65290  0.34100  Biso   1.000  C
  H191     1.0000 0.99020  0.62960  0.31630  Biso   1.000  H
  C378     1.0000 0.88170  0.75980  0.35020  Biso   1.000  C
  O157     1.0000 0.18980  0.35330  0.24980  Biso   1.000  O
  O158     1.0000 0.11980  0.37190  0.20460  Biso   1.000  O
  O159     1.0000 0.29570  0.61830  0.62910  Biso   1.000  O
  O160     1.0000 0.25180  0.68850  0.64740  Biso   1.000  O
  O161     1.0000 0.87150  0.79590  0.38120  Biso   1.000  O
  O162     1.0000 0.85700  0.75180  0.30990  Biso   1.000  O
  O163     1.0000 0.05500  0.43580  0.24140  Biso   1.000  O
  H192     1.0000 0.05910  0.45210  0.21470  Biso   1.000  H
  O164     1.0000 0.25830  0.55040  0.56800  Biso   1.000  O
  H193     1.0000 0.28120  0.56320  0.58560  Biso   1.000  H
  O165     1.0000 0.93220  0.75760  0.45080  Biso   1.000  O
  H194     1.0000 0.91990  0.78340  0.43760  Biso   1.000  H
  O166     1.0000 0.18900  0.71300  0.56900  Biso   1.000  O
  O167     1.0000 0.92320  0.68750  0.28120  Biso   1.000  O
  H195     1.0000 0.94120  0.70690  0.26400  Biso   1.000  H
  O168     1.0000 0.20280  0.39900  0.33570  Biso   1.000  O
  H196     1.0000 0.22680  0.39920  0.31530  Biso   1.000  H
  Zn15     1.0000 0.79749  0.79452  0.29579  Biso   1.000  Zn
  C379     1.0000 0.85150  0.87930  0.25860  Biso   1.000  C
  C380     1.0000 0.86540  0.91950  0.22000  Biso   1.000  C
  C381     1.0000 0.83260  0.93230  0.17930  Biso   1.000  C
  C382     1.0000 0.84570  0.97260  0.14640  Biso   1.000  C
  H197     1.0000 0.82310  0.98130  0.12010  Biso   1.000  H
  C383     1.0000 0.89020  0.99980  0.15130  Biso   1.000  C
  C384     1.0000 0.92200  0.98700  0.19230  Biso   1.000  C
  H198     1.0000 0.95250  0.00500  0.19720  Biso   1.000  H
  C385     1.0000 0.90940  0.94820  0.22590  Biso   1.000  C
  C386     1.0000 0.90400  0.04390  0.11740  Biso   1.000  C
  C387     1.0000 0.87130  0.05550  0.07570  Biso   1.000  C
  H199     1.0000 0.84270  0.03490  0.06920  Biso   1.000  H
  C388     1.0000 0.88170  0.09820  0.04380  Biso   1.000  C
  C389     1.0000 0.92360  0.12900  0.05550  Biso   1.000  C
  H200     1.0000 0.93010  0.15780  0.03530  Biso   1.000  H
  C390     1.0000 0.95570  0.11810  0.09600  Biso   1.000  C
  C391     1.0000 0.94510  0.07490  0.12640  Biso   1.000  C
  H201     1.0000 0.96690  0.06710  0.15360  Biso   1.000  H
  C392     1.0000 0.84620  0.11120  0.00050  Biso   1.000  C
  C393     1.0000 0.81030  0.07510  0.98320  Biso   1.000  C
  H202     1.0000 0.80910  0.04280  0.99840  Biso   1.000  H
  C394     1.0000 0.77670  0.08690  0.94390  Biso   1.000  C
  C395     1.0000 0.77750  0.13560  0.92020  Biso   1.000  C
  C396     1.0000 0.81260  0.17170  0.93830  Biso   1.000  C
  C397     1.0000 0.84650  0.15930  0.97820  Biso   1.000  C
  H203     1.0000 0.86970  0.18390  0.98980  Biso   1.000  H
  C398     1.0000 0.74020  0.14950  0.87890  Biso   1.000  C
  C399     1.0000 0.99850  0.15290  0.10990  Biso   1.000  C
  C400     1.0000 0.01630  0.18950  0.07380  Biso   1.000  C
  H204     1.0000 0.00190  0.19060  0.04110  Biso   1.000  H
  C401     1.0000 0.05470  0.22350  0.08650  Biso   1.000  C
  C402     1.0000 0.07680  0.22280  0.13530  Biso   1.000  C
  C403     1.0000 0.05980  0.18670  0.17090  Biso   1.000  C
  C404     1.0000 0.02120  0.15290  0.15900  Biso   1.000  C
  H205     1.0000 0.00980  0.12960  0.18370  Biso   1.000  H
  C405     1.0000 0.11830  0.25980  0.14980  Biso   1.000  C
  O169     1.0000 0.81020  0.85330  0.25020  Biso   1.000  O
  O170     1.0000 0.88020  0.87190  0.29540  Biso   1.000  O
  O171     1.0000 0.70430  0.11830  0.87090  Biso   1.000  O
  O172     1.0000 0.74820  0.18850  0.85260  Biso   1.000  O
  O173     1.0000 0.12850  0.29590  0.11880  Biso   1.000  O
  O174     1.0000 0.14300  0.25180  0.19010  Biso   1.000  O
  O175     1.0000 0.94500  0.93580  0.25860  Biso   1.000  O
  H206     1.0000 0.94090  0.95210  0.28530  Biso   1.000  H
  O176     1.0000 0.74170  0.05040  0.93200  Biso   1.000  O
  H207     1.0000 0.71880  0.06320  0.91440  Biso   1.000  H
  O177     1.0000 0.06780  0.25760  0.04920  Biso   1.000  O
  H208     1.0000 0.08010  0.28340  0.06240  Biso   1.000  H
  O178     1.0000 0.81100  0.21300  0.93100  Biso   1.000  O
  O179     1.0000 0.07680  0.18750  0.21880  Biso   1.000  O
  H209     1.0000 0.05880  0.20690  0.23600  Biso   1.000  H
  O180     1.0000 0.79720  0.89900  0.16430  Biso   1.000  O
  H210     1.0000 0.77320  0.89920  0.18470  Biso   1.000  H
  Zn16     1.0000 0.70251  0.20548  0.79579  Biso   1.000  Zn
  C406     1.0000 0.64850  0.12070  0.75860  Biso   1.000  C
  C407     1.0000 0.63460  0.08050  0.72000  Biso   1.000  C
  C408     1.0000 0.66740  0.06770  0.67930  Biso   1.000  C
  C409     1.0000 0.65430  0.02740  0.64640  Biso   1.000  C
  H211     1.0000 0.67690  0.01870  0.62010  Biso   1.000  H
  C410     1.0000 0.60980  0.00020  0.65130  Biso   1.000  C
  C411     1.0000 0.57800  0.01300  0.69230  Biso   1.000  C
  H212     1.0000 0.54750  0.99500  0.69720  Biso   1.000  H
  C412     1.0000 0.59060  0.05180  0.72590  Biso   1.000  C
  C413     1.0000 0.59600  0.95610  0.61740  Biso   1.000  C
  C414     1.0000 0.62870  0.94450  0.57570  Biso   1.000  C
  H213     1.0000 0.65730  0.96510  0.56920  Biso   1.000  H
  C415     1.0000 0.61830  0.90180  0.54380  Biso   1.000  C
  C416     1.0000 0.57640  0.87100  0.55550  Biso   1.000  C
  H214     1.0000 0.56990  0.84220  0.53530  Biso   1.000  H
  C417     1.0000 0.54430  0.88190  0.59600  Biso   1.000  C
  C418     1.0000 0.55490  0.92510  0.62640  Biso   1.000  C
  H215     1.0000 0.53310  0.93290  0.65360  Biso   1.000  H
  C419     1.0000 0.65380  0.88880  0.50050  Biso   1.000  C
  C420     1.0000 0.68970  0.92490  0.48320  Biso   1.000  C
  H216     1.0000 0.69090  0.95720  0.49840  Biso   1.000  H
  C421     1.0000 0.72330  0.91310  0.44390  Biso   1.000  C
  C422     1.0000 0.72250  0.86440  0.42020  Biso   1.000  C
  C423     1.0000 0.68740  0.82830  0.43830  Biso   1.000  C
  C424     1.0000 0.65350  0.84070  0.47820  Biso   1.000  C
  H217     1.0000 0.63030  0.81610  0.48980  Biso   1.000  H
  C425     1.0000 0.75980  0.85050  0.37890  Biso   1.000  C
  C426     1.0000 0.50150  0.84710  0.60990  Biso   1.000  C
  C427     1.0000 0.48370  0.81050  0.57380  Biso   1.000  C
  H218     1.0000 0.49810  0.80940  0.54110  Biso   1.000  H
  C428     1.0000 0.44530  0.77650  0.58650  Biso   1.000  C
  C429     1.0000 0.42320  0.77720  0.63530  Biso   1.000  C
  C430     1.0000 0.44020  0.81330  0.67090  Biso   1.000  C
  C431     1.0000 0.47880  0.84710  0.65900  Biso   1.000  C
  H219     1.0000 0.49020  0.87040  0.68370  Biso   1.000  H
  C432     1.0000 0.38170  0.74020  0.64980  Biso   1.000  C
  O181     1.0000 0.68980  0.14670  0.75020  Biso   1.000  O
  O182     1.0000 0.61980  0.12810  0.79540  Biso   1.000  O
  O183     1.0000 0.79570  0.88170  0.37090  Biso   1.000  O
  O184     1.0000 0.75180  0.81150  0.35260  Biso   1.000  O
  O185     1.0000 0.37150  0.70410  0.61880  Biso   1.000  O
  O186     1.0000 0.35700  0.74820  0.69010  Biso   1.000  O
  O187     1.0000 0.55500  0.06420  0.75860  Biso   1.000  O
  H220     1.0000 0.55910  0.04790  0.78530  Biso   1.000  H
  O188     1.0000 0.75830  0.94960  0.43200  Biso   1.000  O
  H221     1.0000 0.78120  0.93680  0.41440  Biso   1.000  H
  O189     1.0000 0.43220  0.74240  0.54920  Biso   1.000  O
  H222     1.0000 0.41990  0.71660  0.56240  Biso   1.000  H
  O190     1.0000 0.68900  0.78700  0.43100  Biso   1.000  O
  O191     1.0000 0.42320  0.81250  0.71880  Biso   1.000  O
  H223     1.0000 0.44120  0.79310  0.73600  Biso   1.000  H
  O192     1.0000 0.70280  0.10100  0.66430  Biso   1.000  O
  H224     1.0000 0.72680  0.10080  0.68470  Biso   1.000  H
  Zn17     1.0000 0.20548  0.79579  0.70251  Biso   1.000  Zn
  C433     1.0000 0.12070  0.75860  0.64850  Biso   1.000  C
  C434     1.0000 0.08050  0.72000  0.63460  Biso   1.000  C
  C435     1.0000 0.06770  0.67930  0.66740  Biso   1.000  C
  C436     1.0000 0.02740  0.64640  0.65430  Biso   1.000  C
  H225     1.0000 0.01870  0.62010  0.67690  Biso   1.000  H
  C437     1.0000 0.00020  0.65130  0.60980  Biso   1.000  C
  C438     1.0000 0.01300  0.69230  0.57800  Biso   1.000  C
  H226     1.0000 0.99500  0.69720  0.54750  Biso   1.000  H
  C439     1.0000 0.05180  0.72590  0.59060  Biso   1.000  C
  C440     1.0000 0.95610  0.61740  0.59600  Biso   1.000  C
  C441     1.0000 0.94450  0.57570  0.62870  Biso   1.000  C
  H227     1.0000 0.96510  0.56920  0.65730  Biso   1.000  H
  C442     1.0000 0.90180  0.54380  0.61830  Biso   1.000  C
  C443     1.0000 0.87100  0.55550  0.57640  Biso   1.000  C
  H228     1.0000 0.84220  0.53530  0.56990  Biso   1.000  H
  C444     1.0000 0.88190  0.59600  0.54430  Biso   1.000  C
  C445     1.0000 0.92510  0.62640  0.55490  Biso   1.000  C
  H229     1.0000 0.93290  0.65360  0.53310  Biso   1.000  H
  C446     1.0000 0.88880  0.50050  0.65380  Biso   1.000  C
  C447     1.0000 0.92490  0.48320  0.68970  Biso   1.000  C
  H230     1.0000 0.95720  0.49840  0.69090  Biso   1.000  H
  C448     1.0000 0.91310  0.44390  0.72330  Biso   1.000  C
  C449     1.0000 0.86440  0.42020  0.72250  Biso   1.000  C
  C450     1.0000 0.82830  0.43830  0.68740  Biso   1.000  C
  C451     1.0000 0.84070  0.47820  0.65350  Biso   1.000  C
  H231     1.0000 0.81610  0.48980  0.63030  Biso   1.000  H
  C452     1.0000 0.85050  0.37890  0.75980  Biso   1.000  C
  C453     1.0000 0.84710  0.60990  0.50150  Biso   1.000  C
  C454     1.0000 0.81050  0.57380  0.48370  Biso   1.000  C
  H232     1.0000 0.80940  0.54110  0.49810  Biso   1.000  H
  C455     1.0000 0.77650  0.58650  0.44530  Biso   1.000  C
  C456     1.0000 0.77720  0.63530  0.42320  Biso   1.000  C
  C457     1.0000 0.81330  0.67090  0.44020  Biso   1.000  C
  C458     1.0000 0.84710  0.65900  0.47880  Biso   1.000  C
  H233     1.0000 0.87040  0.68370  0.49020  Biso   1.000  H
  C459     1.0000 0.74020  0.64980  0.38170  Biso   1.000  C
  O193     1.0000 0.14670  0.75020  0.68980  Biso   1.000  O
  O194     1.0000 0.12810  0.79540  0.61980  Biso   1.000  O
  O195     1.0000 0.88170  0.37090  0.79570  Biso   1.000  O
  O196     1.0000 0.81150  0.35260  0.75180  Biso   1.000  O
  O197     1.0000 0.70410  0.61880  0.37150  Biso   1.000  O
  O198     1.0000 0.74820  0.69010  0.35700  Biso   1.000  O
  O199     1.0000 0.06420  0.75860  0.55500  Biso   1.000  O
  H234     1.0000 0.04790  0.78530  0.55910  Biso   1.000  H
  O200     1.0000 0.94960  0.43200  0.75830  Biso   1.000  O
  H235     1.0000 0.93680  0.41440  0.78120  Biso   1.000  H
  O201     1.0000 0.74240  0.54920  0.43220  Biso   1.000  O
  H236     1.0000 0.71660  0.56240  0.41990  Biso   1.000  H
  O202     1.0000 0.78700  0.43100  0.68900  Biso   1.000  O
  O203     1.0000 0.81250  0.71880  0.42320  Biso   1.000  O
  H237     1.0000 0.79310  0.73600  0.44120  Biso   1.000  H
  O204     1.0000 0.10100  0.66430  0.70280  Biso   1.000  O
  H238     1.0000 0.10080  0.68470  0.72680  Biso   1.000  H
  Zn18     1.0000 0.79452  0.29579  0.79749  Biso   1.000  Zn
  C460     1.0000 0.87930  0.25860  0.85150  Biso   1.000  C
  C461     1.0000 0.91950  0.22000  0.86540  Biso   1.000  C
  C462     1.0000 0.93230  0.17930  0.83260  Biso   1.000  C
  C463     1.0000 0.97260  0.14640  0.84570  Biso   1.000  C
  H239     1.0000 0.98130  0.12010  0.82310  Biso   1.000  H
  C464     1.0000 0.99980  0.15130  0.89020  Biso   1.000  C
  C465     1.0000 0.98700  0.19230  0.92200  Biso   1.000  C
  H240     1.0000 0.00500  0.19720  0.95250  Biso   1.000  H
  C466     1.0000 0.94820  0.22590  0.90940  Biso   1.000  C
  C467     1.0000 0.04390  0.11740  0.90400  Biso   1.000  C
  C468     1.0000 0.05550  0.07570  0.87130  Biso   1.000  C
  H241     1.0000 0.03490  0.06920  0.84270  Biso   1.000  H
  C469     1.0000 0.09820  0.04380  0.88170  Biso   1.000  C
  C470     1.0000 0.12900  0.05550  0.92360  Biso   1.000  C
  H242     1.0000 0.15780  0.03530  0.93010  Biso   1.000  H
  C471     1.0000 0.11810  0.09600  0.95570  Biso   1.000  C
  C472     1.0000 0.07490  0.12640  0.94510  Biso   1.000  C
  H243     1.0000 0.06710  0.15360  0.96690  Biso   1.000  H
  C473     1.0000 0.11120  0.00050  0.84620  Biso   1.000  C
  C474     1.0000 0.07510  0.98320  0.81030  Biso   1.000  C
  H244     1.0000 0.04280  0.99840  0.80910  Biso   1.000  H
  C475     1.0000 0.08690  0.94390  0.77670  Biso   1.000  C
  C476     1.0000 0.13560  0.92020  0.77750  Biso   1.000  C
  C477     1.0000 0.17170  0.93830  0.81260  Biso   1.000  C
  C478     1.0000 0.15930  0.97820  0.84650  Biso   1.000  C
  H245     1.0000 0.18390  0.98980  0.86970  Biso   1.000  H
  C479     1.0000 0.14950  0.87890  0.74020  Biso   1.000  C
  C480     1.0000 0.15290  0.10990  0.99850  Biso   1.000  C
  C481     1.0000 0.18950  0.07380  0.01630  Biso   1.000  C
  H246     1.0000 0.19060  0.04110  0.00190  Biso   1.000  H
  C482     1.0000 0.22350  0.08650  0.05470  Biso   1.000  C
  C483     1.0000 0.22280  0.13530  0.07680  Biso   1.000  C
  C484     1.0000 0.18670  0.17090  0.05980  Biso   1.000  C
  C485     1.0000 0.15290  0.15900  0.02120  Biso   1.000  C
  H247     1.0000 0.12960  0.18370  0.00980  Biso   1.000  H
  C486     1.0000 0.25980  0.14980  0.11830  Biso   1.000  C
  O205     1.0000 0.85330  0.25020  0.81020  Biso   1.000  O
  O206     1.0000 0.87190  0.29540  0.88020  Biso   1.000  O
  O207     1.0000 0.11830  0.87090  0.70430  Biso   1.000  O
  O208     1.0000 0.18850  0.85260  0.74820  Biso   1.000  O
  O209     1.0000 0.29590  0.11880  0.12850  Biso   1.000  O
  O210     1.0000 0.25180  0.19010  0.14300  Biso   1.000  O
  O211     1.0000 0.93580  0.25860  0.94500  Biso   1.000  O
  H248     1.0000 0.95210  0.28530  0.94090  Biso   1.000  H
  O212     1.0000 0.05040  0.93200  0.74170  Biso   1.000  O
  H249     1.0000 0.06320  0.91440  0.71880  Biso   1.000  H
  O213     1.0000 0.25760  0.04920  0.06780  Biso   1.000  O
  H250     1.0000 0.28340  0.06240  0.08010  Biso   1.000  H
  O214     1.0000 0.21300  0.93100  0.81100  Biso   1.000  O
  O215     1.0000 0.18750  0.21880  0.07680  Biso   1.000  O
  H251     1.0000 0.20690  0.23600  0.05880  Biso   1.000  H
  O216     1.0000 0.89900  0.16430  0.79720  Biso   1.000  O
  H252     1.0000 0.89920  0.18470  0.77320  Biso   1.000  H
  Zn19     1.0000 0.29452  0.20421  0.20251  Biso   1.000  Zn
  C487     1.0000 0.37930  0.24140  0.14850  Biso   1.000  C
  C488     1.0000 0.41950  0.28000  0.13460  Biso   1.000  C
  C489     1.0000 0.43230  0.32070  0.16740  Biso   1.000  C
  C490     1.0000 0.47260  0.35360  0.15430  Biso   1.000  C
  H253     1.0000 0.48130  0.37990  0.17690  Biso   1.000  H
  C491     1.0000 0.49980  0.34870  0.10980  Biso   1.000  C
  C492     1.0000 0.48700  0.30770  0.07800  Biso   1.000  C
  H254     1.0000 0.50500  0.30280  0.04750  Biso   1.000  H
  C493     1.0000 0.44820  0.27410  0.09060  Biso   1.000  C
  C494     1.0000 0.54390  0.38260  0.09600  Biso   1.000  C
  C495     1.0000 0.55550  0.42430  0.12870  Biso   1.000  C
  H255     1.0000 0.53490  0.43080  0.15730  Biso   1.000  H
  C496     1.0000 0.59820  0.45620  0.11830  Biso   1.000  C
  C497     1.0000 0.62900  0.44450  0.07640  Biso   1.000  C
  H256     1.0000 0.65780  0.46470  0.06990  Biso   1.000  H
  C498     1.0000 0.61810  0.40400  0.04430  Biso   1.000  C
  C499     1.0000 0.57490  0.37360  0.05490  Biso   1.000  C
  H257     1.0000 0.56710  0.34640  0.03310  Biso   1.000  H
  C500     1.0000 0.61120  0.49950  0.15380  Biso   1.000  C
  C501     1.0000 0.57510  0.51680  0.18970  Biso   1.000  C
  H258     1.0000 0.54280  0.50160  0.19090  Biso   1.000  H
  C502     1.0000 0.58690  0.55610  0.22330  Biso   1.000  C
  C503     1.0000 0.63560  0.57980  0.22250  Biso   1.000  C
  C504     1.0000 0.67170  0.56170  0.18740  Biso   1.000  C
  C505     1.0000 0.65930  0.52180  0.15350  Biso   1.000  C
  H259     1.0000 0.68390  0.51020  0.13030  Biso   1.000  H
  C506     1.0000 0.64950  0.62110  0.25980  Biso   1.000  C
  C507     1.0000 0.65290  0.39010  0.00150  Biso   1.000  C
  C508     1.0000 0.68950  0.42620  0.98370  Biso   1.000  C
  H260     1.0000 0.69060  0.45890  0.99810  Biso   1.000  H
  C509     1.0000 0.72350  0.41350  0.94530  Biso   1.000  C
  C510     1.0000 0.72280  0.36470  0.92320  Biso   1.000  C
  C511     1.0000 0.68670  0.32910  0.94020  Biso   1.000  C
  C512     1.0000 0.65290  0.34100  0.97880  Biso   1.000  C
  H261     1.0000 0.62960  0.31630  0.99020  Biso   1.000  H
  C513     1.0000 0.75980  0.35020  0.88170  Biso   1.000  C
  O217     1.0000 0.35330  0.24980  0.18980  Biso   1.000  O
  O218     1.0000 0.37190  0.20460  0.11980  Biso   1.000  O
  O219     1.0000 0.61830  0.62910  0.29570  Biso   1.000  O
  O220     1.0000 0.68850  0.64740  0.25180  Biso   1.000  O
  O221     1.0000 0.79590  0.38120  0.87150  Biso   1.000  O
  O222     1.0000 0.75180  0.30990  0.85700  Biso   1.000  O
  O223     1.0000 0.43580  0.24140  0.05500  Biso   1.000  O
  H262     1.0000 0.45210  0.21470  0.05910  Biso   1.000  H
  O224     1.0000 0.55040  0.56800  0.25830  Biso   1.000  O
  H263     1.0000 0.56320  0.58560  0.28120  Biso   1.000  H
  O225     1.0000 0.75760  0.45080  0.93220  Biso   1.000  O
  H264     1.0000 0.78340  0.43760  0.91990  Biso   1.000  H
  O226     1.0000 0.71300  0.56900  0.18900  Biso   1.000  O
  O227     1.0000 0.68750  0.28120  0.92320  Biso   1.000  O
  H265     1.0000 0.70690  0.26400  0.94120  Biso   1.000  H
  O228     1.0000 0.39900  0.33570  0.20280  Biso   1.000  O
  H266     1.0000 0.39920  0.31530  0.22680  Biso   1.000  H
  Zn20     1.0000 0.70548  0.70421  0.29749  Biso   1.000  Zn
  C514     1.0000 0.62070  0.74140  0.35150  Biso   1.000  C
  C515     1.0000 0.58050  0.78000  0.36540  Biso   1.000  C
  C516     1.0000 0.56770  0.82070  0.33260  Biso   1.000  C
  C517     1.0000 0.52740  0.85360  0.34570  Biso   1.000  C
  H267     1.0000 0.51870  0.87990  0.32310  Biso   1.000  H
  C518     1.0000 0.50020  0.84870  0.39020  Biso   1.000  C
  C519     1.0000 0.51300  0.80770  0.42200  Biso   1.000  C
  H268     1.0000 0.49500  0.80280  0.45250  Biso   1.000  H
  C520     1.0000 0.55180  0.77410  0.40940  Biso   1.000  C
  C521     1.0000 0.45610  0.88260  0.40400  Biso   1.000  C
  C522     1.0000 0.44450  0.92430  0.37130  Biso   1.000  C
  H269     1.0000 0.46510  0.93080  0.34270  Biso   1.000  H
  C523     1.0000 0.40180  0.95620  0.38170  Biso   1.000  C
  C524     1.0000 0.37100  0.94450  0.42360  Biso   1.000  C
  H270     1.0000 0.34220  0.96470  0.43010  Biso   1.000  H
  C525     1.0000 0.38190  0.90400  0.45570  Biso   1.000  C
  C526     1.0000 0.42510  0.87360  0.44510  Biso   1.000  C
  H271     1.0000 0.43290  0.84640  0.46690  Biso   1.000  H
  C527     1.0000 0.38880  0.99950  0.34620  Biso   1.000  C
  C528     1.0000 0.42490  0.01680  0.31030  Biso   1.000  C
  H272     1.0000 0.45720  0.00160  0.30910  Biso   1.000  H
  C529     1.0000 0.41310  0.05610  0.27670  Biso   1.000  C
  C530     1.0000 0.36440  0.07980  0.27750  Biso   1.000  C
  C531     1.0000 0.32830  0.06170  0.31260  Biso   1.000  C
  C532     1.0000 0.34070  0.02180  0.34650  Biso   1.000  C
  H273     1.0000 0.31610  0.01020  0.36970  Biso   1.000  H
  C533     1.0000 0.35050  0.12110  0.24020  Biso   1.000  C
  C534     1.0000 0.34710  0.89010  0.49850  Biso   1.000  C
  C535     1.0000 0.31050  0.92620  0.51630  Biso   1.000  C
  H274     1.0000 0.30940  0.95890  0.50190  Biso   1.000  H
  C536     1.0000 0.27650  0.91350  0.55470  Biso   1.000  C
  C537     1.0000 0.27720  0.86470  0.57680  Biso   1.000  C
  C538     1.0000 0.31330  0.82910  0.55980  Biso   1.000  C
  C539     1.0000 0.34710  0.84100  0.52120  Biso   1.000  C
  H275     1.0000 0.37040  0.81630  0.50980  Biso   1.000  H
  C540     1.0000 0.24020  0.85020  0.61830  Biso   1.000  C
  O229     1.0000 0.64670  0.74980  0.31020  Biso   1.000  O
  O230     1.0000 0.62810  0.70460  0.38020  Biso   1.000  O
  O231     1.0000 0.38170  0.12910  0.20430  Biso   1.000  O
  O232     1.0000 0.31150  0.14740  0.24820  Biso   1.000  O
  O233     1.0000 0.20410  0.88120  0.62850  Biso   1.000  O
  O234     1.0000 0.24820  0.80990  0.64300  Biso   1.000  O
  O235     1.0000 0.56420  0.74140  0.44500  Biso   1.000  O
  H276     1.0000 0.54790  0.71470  0.44090  Biso   1.000  H
  O236     1.0000 0.44960  0.06800  0.24170  Biso   1.000  O
  H277     1.0000 0.43680  0.08560  0.21880  Biso   1.000  H
  O237     1.0000 0.24240  0.95080  0.56780  Biso   1.000  O
  H278     1.0000 0.21660  0.93760  0.58010  Biso   1.000  H
  O238     1.0000 0.28700  0.06900  0.31100  Biso   1.000  O
  O239     1.0000 0.31250  0.78120  0.57680  Biso   1.000  O
  H279     1.0000 0.29310  0.76400  0.55880  Biso   1.000  H
  O240     1.0000 0.60100  0.83570  0.29720  Biso   1.000  O
  H280     1.0000 0.60080  0.81530  0.27320  Biso   1.000  H
  Zn21     1.0000 0.29579  0.79749  0.79452  Biso   1.000  Zn
  C541     1.0000 0.25860  0.85150  0.87930  Biso   1.000  C
  C542     1.0000 0.22000  0.86540  0.91950  Biso   1.000  C
  C543     1.0000 0.17930  0.83260  0.93230  Biso   1.000  C
  C544     1.0000 0.14640  0.84570  0.97260  Biso   1.000  C
  H281     1.0000 0.12010  0.82310  0.98130  Biso   1.000  H
  C545     1.0000 0.15130  0.89020  0.99980  Biso   1.000  C
  C546     1.0000 0.19230  0.92200  0.98700  Biso   1.000  C
  H282     1.0000 0.19720  0.95250  0.00500  Biso   1.000  H
  C547     1.0000 0.22590  0.90940  0.94820  Biso   1.000  C
  C548     1.0000 0.11740  0.90400  0.04390  Biso   1.000  C
  C549     1.0000 0.07570  0.87130  0.05550  Biso   1.000  C
  H283     1.0000 0.06920  0.84270  0.03490  Biso   1.000  H
  C550     1.0000 0.04380  0.88170  0.09820  Biso   1.000  C
  C551     1.0000 0.05550  0.92360  0.12900  Biso   1.000  C
  H284     1.0000 0.03530  0.93010  0.15780  Biso   1.000  H
  C552     1.0000 0.09600  0.95570  0.11810  Biso   1.000  C
  C553     1.0000 0.12640  0.94510  0.07490  Biso   1.000  C
  H285     1.0000 0.15360  0.96690  0.06710  Biso   1.000  H
  C554     1.0000 0.00050  0.84620  0.11120  Biso   1.000  C
  C555     1.0000 0.98320  0.81030  0.07510  Biso   1.000  C
  H286     1.0000 0.99840  0.80910  0.04280  Biso   1.000  H
  C556     1.0000 0.94390  0.77670  0.08690  Biso   1.000  C
  C557     1.0000 0.92020  0.77750  0.13560  Biso   1.000  C
  C558     1.0000 0.93830  0.81260  0.17170  Biso   1.000  C
  C559     1.0000 0.97820  0.84650  0.15930  Biso   1.000  C
  H287     1.0000 0.98980  0.86970  0.18390  Biso   1.000  H
  C560     1.0000 0.87890  0.74020  0.14950  Biso   1.000  C
  C561     1.0000 0.10990  0.99850  0.15290  Biso   1.000  C
  C562     1.0000 0.07380  0.01630  0.18950  Biso   1.000  C
  H288     1.0000 0.04110  0.00190  0.19060  Biso   1.000  H
  C563     1.0000 0.08650  0.05470  0.22350  Biso   1.000  C
  C564     1.0000 0.13530  0.07680  0.22280  Biso   1.000  C
  C565     1.0000 0.17090  0.05980  0.18670  Biso   1.000  C
  C566     1.0000 0.15900  0.02120  0.15290  Biso   1.000  C
  H289     1.0000 0.18370  0.00980  0.12960  Biso   1.000  H
  C567     1.0000 0.14980  0.11830  0.25980  Biso   1.000  C
  O241     1.0000 0.25020  0.81020  0.85330  Biso   1.000  O
  O242     1.0000 0.29540  0.88020  0.87190  Biso   1.000  O
  O243     1.0000 0.87090  0.70430  0.11830  Biso   1.000  O
  O244     1.0000 0.85260  0.74820  0.18850  Biso   1.000  O
  O245     1.0000 0.11880  0.12850  0.29590  Biso   1.000  O
  O246     1.0000 0.19010  0.14300  0.25180  Biso   1.000  O
  O247     1.0000 0.25860  0.94500  0.93580  Biso   1.000  O
  H290     1.0000 0.28530  0.94090  0.95210  Biso   1.000  H
  O248     1.0000 0.93200  0.74170  0.05040  Biso   1.000  O
  H291     1.0000 0.91440  0.71880  0.06320  Biso   1.000  H
  O249     1.0000 0.04920  0.06780  0.25760  Biso   1.000  O
  H292     1.0000 0.06240  0.08010  0.28340  Biso   1.000  H
  O250     1.0000 0.93100  0.81100  0.21300  Biso   1.000  O
  O251     1.0000 0.21880  0.07680  0.18750  Biso   1.000  O
  H293     1.0000 0.23600  0.05880  0.20690  Biso   1.000  H
  O252     1.0000 0.16430  0.79720  0.89900  Biso   1.000  O
  H294     1.0000 0.18470  0.77320  0.89920  Biso   1.000  H
  Zn22     1.0000 0.79579  0.70251  0.20548  Biso   1.000  Zn
  C568     1.0000 0.75860  0.64850  0.12070  Biso   1.000  C
  C569     1.0000 0.72000  0.63460  0.08050  Biso   1.000  C
  C570     1.0000 0.67930  0.66740  0.06770  Biso   1.000  C
  C571     1.0000 0.64640  0.65430  0.02740  Biso   1.000  C
  H295     1.0000 0.62010  0.67690  0.01870  Biso   1.000  H
  C572     1.0000 0.65130  0.60980  0.00020  Biso   1.000  C
  C573     1.0000 0.69230  0.57800  0.01300  Biso   1.000  C
  H296     1.0000 0.69720  0.54750  0.99500  Biso   1.000  H
  C574     1.0000 0.72590  0.59060  0.05180  Biso   1.000  C
  C575     1.0000 0.61740  0.59600  0.95610  Biso   1.000  C
  C576     1.0000 0.57570  0.62870  0.94450  Biso   1.000  C
  H297     1.0000 0.56920  0.65730  0.96510  Biso   1.000  H
  C577     1.0000 0.54380  0.61830  0.90180  Biso   1.000  C
  C578     1.0000 0.55550  0.57640  0.87100  Biso   1.000  C
  H298     1.0000 0.53530  0.56990  0.84220  Biso   1.000  H
  C579     1.0000 0.59600  0.54430  0.88190  Biso   1.000  C
  C580     1.0000 0.62640  0.55490  0.92510  Biso   1.000  C
  H299     1.0000 0.65360  0.53310  0.93290  Biso   1.000  H
  C581     1.0000 0.50050  0.65380  0.88880  Biso   1.000  C
  C582     1.0000 0.48320  0.68970  0.92490  Biso   1.000  C
  H300     1.0000 0.49840  0.69090  0.95720  Biso   1.000  H
  C583     1.0000 0.44390  0.72330  0.91310  Biso   1.000  C
  C584     1.0000 0.42020  0.72250  0.86440  Biso   1.000  C
  C585     1.0000 0.43830  0.68740  0.82830  Biso   1.000  C
  C586     1.0000 0.47820  0.65350  0.84070  Biso   1.000  C
  H301     1.0000 0.48980  0.63030  0.81610  Biso   1.000  H
  C587     1.0000 0.37890  0.75980  0.85050  Biso   1.000  C
  C588     1.0000 0.60990  0.50150  0.84710  Biso   1.000  C
  C589     1.0000 0.57380  0.48370  0.81050  Biso   1.000  C
  H302     1.0000 0.54110  0.49810  0.80940  Biso   1.000  H
  C590     1.0000 0.58650  0.44530  0.77650  Biso   1.000  C
  C591     1.0000 0.63530  0.42320  0.77720  Biso   1.000  C
  C592     1.0000 0.67090  0.44020  0.81330  Biso   1.000  C
  C593     1.0000 0.65900  0.47880  0.84710  Biso   1.000  C
  H303     1.0000 0.68370  0.49020  0.87040  Biso   1.000  H
  C594     1.0000 0.64980  0.38170  0.74020  Biso   1.000  C
  O253     1.0000 0.75020  0.68980  0.14670  Biso   1.000  O
  O254     1.0000 0.79540  0.61980  0.12810  Biso   1.000  O
  O255     1.0000 0.37090  0.79570  0.88170  Biso   1.000  O
  O256     1.0000 0.35260  0.75180  0.81150  Biso   1.000  O
  O257     1.0000 0.61880  0.37150  0.70410  Biso   1.000  O
  O258     1.0000 0.69010  0.35700  0.74820  Biso   1.000  O
  O259     1.0000 0.75860  0.55500  0.06420  Biso   1.000  O
  H304     1.0000 0.78530  0.55910  0.04790  Biso   1.000  H
  O260     1.0000 0.43200  0.75830  0.94960  Biso   1.000  O
  H305     1.0000 0.41440  0.78120  0.93680  Biso   1.000  H
  O261     1.0000 0.54920  0.43220  0.74240  Biso   1.000  O
  H306     1.0000 0.56240  0.41990  0.71660  Biso   1.000  H
  O262     1.0000 0.43100  0.68900  0.78700  Biso   1.000  O
  O263     1.0000 0.71880  0.42320  0.81250  Biso   1.000  O
  H307     1.0000 0.73600  0.44120  0.79310  Biso   1.000  H
  O264     1.0000 0.66430  0.70280  0.10100  Biso   1.000  O
  H308     1.0000 0.68470  0.72680  0.10080  Biso   1.000  H
  Zn23     1.0000 0.70421  0.29749  0.70548  Biso   1.000  Zn
  C595     1.0000 0.74140  0.35150  0.62070  Biso   1.000  C
  C596     1.0000 0.78000  0.36540  0.58050  Biso   1.000  C
  C597     1.0000 0.82070  0.33260  0.56770  Biso   1.000  C
  C598     1.0000 0.85360  0.34570  0.52740  Biso   1.000  C
  H309     1.0000 0.87990  0.32310  0.51870  Biso   1.000  H
  C599     1.0000 0.84870  0.39020  0.50020  Biso   1.000  C
  C600     1.0000 0.80770  0.42200  0.51300  Biso   1.000  C
  H310     1.0000 0.80280  0.45250  0.49500  Biso   1.000  H
  C601     1.0000 0.77410  0.40940  0.55180  Biso   1.000  C
  C602     1.0000 0.88260  0.40400  0.45610  Biso   1.000  C
  C603     1.0000 0.92430  0.37130  0.44450  Biso   1.000  C
  H311     1.0000 0.93080  0.34270  0.46510  Biso   1.000  H
  C604     1.0000 0.95620  0.38170  0.40180  Biso   1.000  C
  C605     1.0000 0.94450  0.42360  0.37100  Biso   1.000  C
  H312     1.0000 0.96470  0.43010  0.34220  Biso   1.000  H
  C606     1.0000 0.90400  0.45570  0.38190  Biso   1.000  C
  C607     1.0000 0.87360  0.44510  0.42510  Biso   1.000  C
  H313     1.0000 0.84640  0.46690  0.43290  Biso   1.000  H
  C608     1.0000 0.99950  0.34620  0.38880  Biso   1.000  C
  C609     1.0000 0.01680  0.31030  0.42490  Biso   1.000  C
  H314     1.0000 0.00160  0.30910  0.45720  Biso   1.000  H
  C610     1.0000 0.05610  0.27670  0.41310  Biso   1.000  C
  C611     1.0000 0.07980  0.27750  0.36440  Biso   1.000  C
  C612     1.0000 0.06170  0.31260  0.32830  Biso   1.000  C
  C613     1.0000 0.02180  0.34650  0.34070  Biso   1.000  C
  H315     1.0000 0.01020  0.36970  0.31610  Biso   1.000  H
  C614     1.0000 0.12110  0.24020  0.35050  Biso   1.000  C
  C615     1.0000 0.89010  0.49850  0.34710  Biso   1.000  C
  C616     1.0000 0.92620  0.51630  0.31050  Biso   1.000  C
  H316     1.0000 0.95890  0.50190  0.30940  Biso   1.000  H
  C617     1.0000 0.91350  0.55470  0.27650  Biso   1.000  C
  C618     1.0000 0.86470  0.57680  0.27720  Biso   1.000  C
  C619     1.0000 0.82910  0.55980  0.31330  Biso   1.000  C
  C620     1.0000 0.84100  0.52120  0.34710  Biso   1.000  C
  H317     1.0000 0.81630  0.50980  0.37040  Biso   1.000  H
  C621     1.0000 0.85020  0.61830  0.24020  Biso   1.000  C
  O265     1.0000 0.74980  0.31020  0.64670  Biso   1.000  O
  O266     1.0000 0.70460  0.38020  0.62810  Biso   1.000  O
  O267     1.0000 0.12910  0.20430  0.38170  Biso   1.000  O
  O268     1.0000 0.14740  0.24820  0.31150  Biso   1.000  O
  O269     1.0000 0.88120  0.62850  0.20410  Biso   1.000  O
  O270     1.0000 0.80990  0.64300  0.24820  Biso   1.000  O
  O271     1.0000 0.74140  0.44500  0.56420  Biso   1.000  O
  H318     1.0000 0.71470  0.44090  0.54790  Biso   1.000  H
  O272     1.0000 0.06800  0.24170  0.44960  Biso   1.000  O
  H319     1.0000 0.08560  0.21880  0.43680  Biso   1.000  H
  O273     1.0000 0.95080  0.56780  0.24240  Biso   1.000  O
  H320     1.0000 0.93760  0.58010  0.21660  Biso   1.000  H
  O274     1.0000 0.06900  0.31100  0.28700  Biso   1.000  O
  O275     1.0000 0.78120  0.57680  0.31250  Biso   1.000  O
  H321     1.0000 0.76400  0.55880  0.29310  Biso   1.000  H
  O276     1.0000 0.83570  0.29720  0.60100  Biso   1.000  O
  H322     1.0000 0.81530  0.27320  0.60080  Biso   1.000  H
  Zn24     1.0000 0.20421  0.20251  0.29452  Biso   1.000  Zn
  C622     1.0000 0.24140  0.14850  0.37930  Biso   1.000  C
  C623     1.0000 0.28000  0.13460  0.41950  Biso   1.000  C
  C624     1.0000 0.32070  0.16740  0.43230  Biso   1.000  C
  C625     1.0000 0.35360  0.15430  0.47260  Biso   1.000  C
  H323     1.0000 0.37990  0.17690  0.48130  Biso   1.000  H
  C626     1.0000 0.34870  0.10980  0.49980  Biso   1.000  C
  C627     1.0000 0.30770  0.07800  0.48700  Biso   1.000  C
  H324     1.0000 0.30280  0.04750  0.50500  Biso   1.000  H
  C628     1.0000 0.27410  0.09060  0.44820  Biso   1.000  C
  C629     1.0000 0.38260  0.09600  0.54390  Biso   1.000  C
  C630     1.0000 0.42430  0.12870  0.55550  Biso   1.000  C
  H325     1.0000 0.43080  0.15730  0.53490  Biso   1.000  H
  C631     1.0000 0.45620  0.11830  0.59820  Biso   1.000  C
  C632     1.0000 0.44450  0.07640  0.62900  Biso   1.000  C
  H326     1.0000 0.46470  0.06990  0.65780  Biso   1.000  H
  C633     1.0000 0.40400  0.04430  0.61810  Biso   1.000  C
  C634     1.0000 0.37360  0.05490  0.57490  Biso   1.000  C
  H327     1.0000 0.34640  0.03310  0.56710  Biso   1.000  H
  C635     1.0000 0.49950  0.15380  0.61120  Biso   1.000  C
  C636     1.0000 0.51680  0.18970  0.57510  Biso   1.000  C
  H328     1.0000 0.50160  0.19090  0.54280  Biso   1.000  H
  C637     1.0000 0.55610  0.22330  0.58690  Biso   1.000  C
  C638     1.0000 0.57980  0.22250  0.63560  Biso   1.000  C
  C639     1.0000 0.56170  0.18740  0.67170  Biso   1.000  C
  C640     1.0000 0.52180  0.15350  0.65930  Biso   1.000  C
  H329     1.0000 0.51020  0.13030  0.68390  Biso   1.000  H
  C641     1.0000 0.62110  0.25980  0.64950  Biso   1.000  C
  C642     1.0000 0.39010  0.00150  0.65290  Biso   1.000  C
  C643     1.0000 0.42620  0.98370  0.68950  Biso   1.000  C
  H330     1.0000 0.45890  0.99810  0.69060  Biso   1.000  H
  C644     1.0000 0.41350  0.94530  0.72350  Biso   1.000  C
  C645     1.0000 0.36470  0.92320  0.72280  Biso   1.000  C
  C646     1.0000 0.32910  0.94020  0.68670  Biso   1.000  C
  C647     1.0000 0.34100  0.97880  0.65290  Biso   1.000  C
  H331     1.0000 0.31630  0.99020  0.62960  Biso   1.000  H
  C648     1.0000 0.35020  0.88170  0.75980  Biso   1.000  C
  O277     1.0000 0.24980  0.18980  0.35330  Biso   1.000  O
  O278     1.0000 0.20460  0.11980  0.37190  Biso   1.000  O
  O279     1.0000 0.62910  0.29570  0.61830  Biso   1.000  O
  O280     1.0000 0.64740  0.25180  0.68850  Biso   1.000  O
  O281     1.0000 0.38120  0.87150  0.79590  Biso   1.000  O
  O282     1.0000 0.30990  0.85700  0.75180  Biso   1.000  O
  O283     1.0000 0.24140  0.05500  0.43580  Biso   1.000  O
  H332     1.0000 0.21470  0.05910  0.45210  Biso   1.000  H
  O284     1.0000 0.56800  0.25830  0.55040  Biso   1.000  O
  H333     1.0000 0.58560  0.28120  0.56320  Biso   1.000  H
  O285     1.0000 0.45080  0.93220  0.75760  Biso   1.000  O
  H334     1.0000 0.43760  0.91990  0.78340  Biso   1.000  H
  O286     1.0000 0.56900  0.18900  0.71300  Biso   1.000  O
  O287     1.0000 0.28120  0.92320  0.68750  Biso   1.000  O
  H335     1.0000 0.26400  0.94120  0.70690  Biso   1.000  H
  O288     1.0000 0.33570  0.20280  0.39900  Biso   1.000  O
  H336     1.0000 0.31530  0.22680  0.39920  Biso   1.000  H
  Zn25     1.0000 0.12428  0.37428  0.12500  Biso   1.000  Zn
  Zn26     1.0000 0.37572  0.62572  0.62500  Biso   1.000  Zn
  Zn27     1.0000 0.87572  0.87428  0.37500  Biso   1.000  Zn
  Zn28     1.0000 0.62428  0.12572  0.87500  Biso   1.000  Zn
  Zn29     1.0000 0.12500  0.12428  0.37428  Biso   1.000  Zn
  Zn30     1.0000 0.62500  0.37572  0.62572  Biso   1.000  Zn
  Zn31     1.0000 0.37500  0.87572  0.87428  Biso   1.000  Zn
  Zn32     1.0000 0.87500  0.62428  0.12572  Biso   1.000  Zn
  Zn33     1.0000 0.37428  0.12500  0.12428  Biso   1.000  Zn
  Zn34     1.0000 0.62572  0.62500  0.37572  Biso   1.000  Zn
  Zn35     1.0000 0.87428  0.37500  0.87572  Biso   1.000  Zn
  Zn36     1.0000 0.12572  0.87500  0.62428  Biso   1.000  Zn
  O289     1.0000 0.50320  0.50320  0.50320  Biso   1.000  O
  O290     1.0000 0.99680  0.49680  0.00320  Biso   1.000  O
  O291     1.0000 0.49680  0.00320  0.99680  Biso   1.000  O
  O292     1.0000 0.00320  0.99680  0.49680  Biso   1.000  O
  O293     1.0000 0.25320  0.75320  0.74680  Biso   1.000  O
  O294     1.0000 0.24680  0.24680  0.24680  Biso   1.000  O
  O295     1.0000 0.75320  0.74680  0.25320  Biso   1.000  O
  O296     1.0000 0.74680  0.25320  0.75320  Biso   1.000  O
