data_image0
_cell_length_a       27.742
_cell_length_b       13.8719
_cell_length_c       44.522
_cell_angle_alpha    90
_cell_angle_beta     90
_cell_angle_gamma    90

_symmetry_space_group_name_H-M    "P 1"
_symmetry_int_tables_number       1

loop_
  _symmetry_equiv_pos_as_xyz
  'x, y, z'

loop_
  _atom_site_label
  _atom_site_occupancy
  _atom_site_fract_x
  _atom_site_fract_y
  _atom_site_fract_z
  _atom_site_thermal_displace_type
  _atom_site_B_iso_or_equiv
  _atom_site_type_symbol
  Zn1      1.0000 0.52440  0.88176  0.58515  Biso   1.000  Zn
  Zn2      1.0000 0.54604  0.64231  0.41230  Biso   1.000  Zn
  Zn3      1.0000 0.26057  0.18140  0.81989  Biso   1.000  Zn
  I1       1.0000 0.50673  0.80430  0.53406  Biso   1.000  I
  I2       1.0000 0.57321  0.79744  0.62516  Biso   1.000  I
  I3       1.0000 0.48084  0.55568  0.38298  Biso   1.000  I
  I4       1.0000 0.55651  0.82418  0.41514  Biso   1.000  I
  I5       1.0000 0.17167  0.17832  0.83433  Biso   1.000  I
  I6       1.0000 0.30272  0.34292  0.81252  Biso   1.000  I
  C1       1.0000 0.54949  0.05730  0.54983  Biso   1.000  C
  H1       1.0000 0.53500  0.02170  0.53400  Biso   1.000  H
  C2       1.0000 0.56437  0.15030  0.54406  Biso   1.000  C
  H2       1.0000 0.56060  0.17780  0.52470  Biso   1.000  H
  C3       1.0000 0.57504  0.06620  0.59874  Biso   1.000  C
  H3       1.0000 0.57900  0.03660  0.61780  Biso   1.000  H
  C4       1.0000 0.59063  0.15960  0.59508  Biso   1.000  C
  H4       1.0000 0.60490  0.19360  0.61130  Biso   1.000  H
  C5       1.0000 0.58512  0.20300  0.56741  Biso   1.000  C
  C6       1.0000 0.59890  0.30570  0.56270  Biso   1.000  C
  C7       1.0000 0.69950  0.50480  0.65009  Biso   1.000  C
  H5       1.0000 0.71330  0.47240  0.66680  Biso   1.000  H
  C8       1.0000 0.67720  0.45060  0.62825  Biso   1.000  C
  H6       1.0000 0.67540  0.38240  0.63000  Biso   1.000  H
  C9       1.0000 0.68320  0.64490  0.62542  Biso   1.000  C
  H7       1.0000 0.68480  0.71320  0.62440  Biso   1.000  H
  C10      1.0000 0.66040  0.59620  0.60231  Biso   1.000  C
  H8       1.0000 0.64710  0.63040  0.58580  Biso   1.000  H
  C11      1.0000 0.65754  0.49680  0.60376  Biso   1.000  C
  C12      1.0000 0.63244  0.44230  0.57966  Biso   1.000  C
  C13      1.0000 0.57100  0.63400  0.47768  Biso   1.000  C
  H9       1.0000 0.57600  0.70130  0.47540  Biso   1.000  H
  C14      1.0000 0.58430  0.59060  0.50453  Biso   1.000  C
  H10      1.0000 0.59810  0.62780  0.52030  Biso   1.000  H
  C15      1.0000 0.54244  0.48980  0.45889  Biso   1.000  C
  H11      1.0000 0.52690  0.45510  0.44320  Biso   1.000  H
  C16      1.0000 0.55489  0.44130  0.48485  Biso   1.000  C
  H12      1.0000 0.54850  0.37440  0.48690  Biso   1.000  H
  C17      1.0000 0.57704  0.49270  0.50808  Biso   1.000  C
  C18      1.0000 0.59312  0.44140  0.53565  Biso   1.000  C
  C19      1.0000 0.11239  0.93660  0.63372  Biso   1.000  C
  H13      1.0000 0.08300  0.94610  0.64420  Biso   1.000  H
  C20      1.0000 0.15513  0.95470  0.64838  Biso   1.000  C
  H14      1.0000 0.15510  0.97500  0.66870  Biso   1.000  H
  C21      1.0000 0.15249  0.89590  0.59018  Biso   1.000  C
  H15      1.0000 0.15150  0.87530  0.56980  Biso   1.000  H
  C22      1.0000 0.19698  0.91400  0.60311  Biso   1.000  C
  H16      1.0000 0.22590  0.90710  0.59190  Biso   1.000  H
  C23      1.0000 0.19809  0.94270  0.63309  Biso   1.000  C
  C24      1.0000 0.24456  0.95770  0.64892  Biso   1.000  C
  C25      1.0000 0.41766  0.90610  0.59070  Biso   1.000  C
  H17      1.0000 0.41820  0.88810  0.57010  Biso   1.000  H
  C26      1.0000 0.37313  0.92140  0.60446  Biso   1.000  C
  H18      1.0000 0.34400  0.91400  0.59350  Biso   1.000  H
  C27      1.0000 0.45825  0.94280  0.63419  Biso   1.000  C
  H19      1.0000 0.48790  0.95080  0.64460  Biso   1.000  H
  C28      1.0000 0.41572  0.95940  0.64960  Biso   1.000  C
  H20      1.0000 0.41620  0.97860  0.67010  Biso   1.000  H
  C29      1.0000 0.37222  0.94750  0.63457  Biso   1.000  C
  C30      1.0000 0.32571  0.96010  0.65006  Biso   1.000  C
  C31      1.0000 0.31320  0.10550  0.76672  Biso   1.000  C
  H21      1.0000 0.34020  0.13190  0.77690  Biso   1.000  H
  C32      1.0000 0.31948  0.06890  0.73839  Biso   1.000  C
  H22      1.0000 0.35040  0.06910  0.72930  Biso   1.000  H
  C33      1.0000 0.23269  0.06680  0.76665  Biso   1.000  C
  H23      1.0000 0.20260  0.06430  0.77680  Biso   1.000  H
  C34      1.0000 0.23582  0.02960  0.73758  Biso   1.000  C
  H24      1.0000 0.20820  0.00360  0.72790  Biso   1.000  H
  C35      1.0000 0.28007  0.03160  0.72324  Biso   1.000  C
  C36      1.0000 0.28329  0.99810  0.69165  Biso   1.000  C
  N1       1.0000 0.55450  0.01490  0.57657  Biso   1.000  N
  N2       1.0000 0.70279  0.60160  0.64890  Biso   1.000  N
  N3       1.0000 0.55151  0.58470  0.45488  Biso   1.000  N
  N4       1.0000 0.62529  0.34820  0.58407  Biso   1.000  N
  N5       1.0000 0.61780  0.49270  0.55574  Biso   1.000  N
  N6       1.0000 0.58172  0.34840  0.53809  Biso   1.000  N
  N7       1.0000 0.11071  0.90600  0.60502  Biso   1.000  N
  N8       1.0000 0.45943  0.91590  0.60519  Biso   1.000  N
  N9       1.0000 0.27037  0.10560  0.78072  Biso   1.000  N
  N10      1.0000 0.28566  0.94500  0.63402  Biso   1.000  N
  N11      1.0000 0.32709  0.98700  0.67923  Biso   1.000  N
  N12      1.0000 0.24137  0.98370  0.67777  Biso   1.000  N
  Zn4      1.0000 0.97560  0.11824  0.08515  Biso   1.000  Zn
  Zn5      1.0000 0.95396  0.35769  0.91230  Biso   1.000  Zn
  Zn6      1.0000 0.23943  0.81860  0.31989  Biso   1.000  Zn
  I7       1.0000 0.99327  0.19570  0.03406  Biso   1.000  I
  I8       1.0000 0.92679  0.20256  0.12516  Biso   1.000  I
  I9       1.0000 0.01916  0.44432  0.88298  Biso   1.000  I
  I10      1.0000 0.94349  0.17582  0.91514  Biso   1.000  I
  I11      1.0000 0.32833  0.82168  0.33433  Biso   1.000  I
  I12      1.0000 0.19728  0.65708  0.31252  Biso   1.000  I
  C37      1.0000 0.95051  0.94270  0.04983  Biso   1.000  C
  H25      1.0000 0.96500  0.97830  0.03400  Biso   1.000  H
  C38      1.0000 0.93563  0.84970  0.04406  Biso   1.000  C
  H26      1.0000 0.93940  0.82220  0.02470  Biso   1.000  H
  C39      1.0000 0.92496  0.93380  0.09874  Biso   1.000  C
  H27      1.0000 0.92100  0.96340  0.11780  Biso   1.000  H
  C40      1.0000 0.90937  0.84040  0.09508  Biso   1.000  C
  H28      1.0000 0.89510  0.80640  0.11130  Biso   1.000  H
  C41      1.0000 0.91488  0.79700  0.06741  Biso   1.000  C
  C42      1.0000 0.90110  0.69430  0.06270  Biso   1.000  C
  C43      1.0000 0.80050  0.49520  0.15009  Biso   1.000  C
  H29      1.0000 0.78670  0.52760  0.16680  Biso   1.000  H
  C44      1.0000 0.82280  0.54940  0.12825  Biso   1.000  C
  H30      1.0000 0.82460  0.61760  0.13000  Biso   1.000  H
  C45      1.0000 0.81680  0.35510  0.12542  Biso   1.000  C
  H31      1.0000 0.81520  0.28680  0.12440  Biso   1.000  H
  C46      1.0000 0.83960  0.40380  0.10231  Biso   1.000  C
  H32      1.0000 0.85290  0.36960  0.08580  Biso   1.000  H
  C47      1.0000 0.84246  0.50320  0.10376  Biso   1.000  C
  C48      1.0000 0.86756  0.55770  0.07966  Biso   1.000  C
  C49      1.0000 0.92900  0.36600  0.97768  Biso   1.000  C
  H33      1.0000 0.92400  0.29870  0.97540  Biso   1.000  H
  C50      1.0000 0.91570  0.40940  0.00453  Biso   1.000  C
  H34      1.0000 0.90190  0.37220  0.02030  Biso   1.000  H
  C51      1.0000 0.95756  0.51020  0.95889  Biso   1.000  C
  H35      1.0000 0.97310  0.54490  0.94320  Biso   1.000  H
  C52      1.0000 0.94511  0.55870  0.98485  Biso   1.000  C
  H36      1.0000 0.95150  0.62560  0.98690  Biso   1.000  H
  C53      1.0000 0.92296  0.50730  0.00808  Biso   1.000  C
  C54      1.0000 0.90688  0.55860  0.03565  Biso   1.000  C
  C55      1.0000 0.38761  0.06340  0.13372  Biso   1.000  C
  H37      1.0000 0.41700  0.05390  0.14420  Biso   1.000  H
  C56      1.0000 0.34487  0.04530  0.14838  Biso   1.000  C
  H38      1.0000 0.34490  0.02500  0.16870  Biso   1.000  H
  C57      1.0000 0.34751  0.10410  0.09018  Biso   1.000  C
  H39      1.0000 0.34850  0.12470  0.06980  Biso   1.000  H
  C58      1.0000 0.30302  0.08600  0.10311  Biso   1.000  C
  H40      1.0000 0.27410  0.09290  0.09190  Biso   1.000  H
  C59      1.0000 0.30191  0.05730  0.13309  Biso   1.000  C
  C60      1.0000 0.25544  0.04230  0.14892  Biso   1.000  C
  C61      1.0000 0.08234  0.09390  0.09070  Biso   1.000  C
  H41      1.0000 0.08180  0.11190  0.07010  Biso   1.000  H
  C62      1.0000 0.12687  0.07860  0.10446  Biso   1.000  C
  H42      1.0000 0.15600  0.08600  0.09350  Biso   1.000  H
  C63      1.0000 0.04175  0.05720  0.13419  Biso   1.000  C
  H43      1.0000 0.01210  0.04920  0.14460  Biso   1.000  H
  C64      1.0000 0.08428  0.04060  0.14960  Biso   1.000  C
  H44      1.0000 0.08380  0.02140  0.17010  Biso   1.000  H
  C65      1.0000 0.12778  0.05250  0.13457  Biso   1.000  C
  C66      1.0000 0.17429  0.03990  0.15006  Biso   1.000  C
  C67      1.0000 0.18680  0.89450  0.26672  Biso   1.000  C
  H45      1.0000 0.15980  0.86810  0.27690  Biso   1.000  H
  C68      1.0000 0.18052  0.93110  0.23839  Biso   1.000  C
  H46      1.0000 0.14960  0.93090  0.22930  Biso   1.000  H
  C69      1.0000 0.26731  0.93320  0.26665  Biso   1.000  C
  H47      1.0000 0.29740  0.93570  0.27680  Biso   1.000  H
  C70      1.0000 0.26418  0.97040  0.23758  Biso   1.000  C
  H48      1.0000 0.29180  0.99640  0.22790  Biso   1.000  H
  C71      1.0000 0.21993  0.96840  0.22324  Biso   1.000  C
  C72      1.0000 0.21671  0.00190  0.19165  Biso   1.000  C
  N13      1.0000 0.94550  0.98510  0.07657  Biso   1.000  N
  N14      1.0000 0.79721  0.39840  0.14890  Biso   1.000  N
  N15      1.0000 0.94849  0.41530  0.95488  Biso   1.000  N
  N16      1.0000 0.87471  0.65180  0.08407  Biso   1.000  N
  N17      1.0000 0.88220  0.50730  0.05574  Biso   1.000  N
  N18      1.0000 0.91828  0.65160  0.03809  Biso   1.000  N
  N19      1.0000 0.38929  0.09400  0.10502  Biso   1.000  N
  N20      1.0000 0.04057  0.08410  0.10519  Biso   1.000  N
  N21      1.0000 0.22963  0.89440  0.28072  Biso   1.000  N
  N22      1.0000 0.21434  0.05500  0.13402  Biso   1.000  N
  N23      1.0000 0.17291  0.01300  0.17923  Biso   1.000  N
  N24      1.0000 0.25863  0.01630  0.17777  Biso   1.000  N
  Zn7      1.0000 0.47560  0.38176  0.91485  Biso   1.000  Zn
  Zn8      1.0000 0.45396  0.14231  0.08770  Biso   1.000  Zn
  Zn9      1.0000 0.73943  0.68140  0.68011  Biso   1.000  Zn
  I13      1.0000 0.49327  0.30430  0.96594  Biso   1.000  I
  I14      1.0000 0.42679  0.29744  0.87484  Biso   1.000  I
  I15      1.0000 0.51916  0.05568  0.11702  Biso   1.000  I
  I16      1.0000 0.44349  0.32418  0.08486  Biso   1.000  I
  I17      1.0000 0.82833  0.67832  0.66567  Biso   1.000  I
  I18      1.0000 0.69728  0.84292  0.68748  Biso   1.000  I
  C73      1.0000 0.45051  0.55730  0.95017  Biso   1.000  C
  H49      1.0000 0.46500  0.52170  0.96600  Biso   1.000  H
  C74      1.0000 0.43563  0.65030  0.95594  Biso   1.000  C
  H50      1.0000 0.43940  0.67780  0.97530  Biso   1.000  H
  C75      1.0000 0.42496  0.56620  0.90126  Biso   1.000  C
  H51      1.0000 0.42100  0.53660  0.88220  Biso   1.000  H
  C76      1.0000 0.40937  0.65960  0.90492  Biso   1.000  C
  H52      1.0000 0.39510  0.69360  0.88870  Biso   1.000  H
  C77      1.0000 0.41488  0.70300  0.93259  Biso   1.000  C
  C78      1.0000 0.40110  0.80570  0.93730  Biso   1.000  C
  C79      1.0000 0.30050  0.00480  0.84991  Biso   1.000  C
  H53      1.0000 0.28670  0.97240  0.83320  Biso   1.000  H
  C80      1.0000 0.32280  0.95060  0.87175  Biso   1.000  C
  H54      1.0000 0.32460  0.88240  0.87000  Biso   1.000  H
  C81      1.0000 0.31680  0.14490  0.87458  Biso   1.000  C
  H55      1.0000 0.31520  0.21320  0.87560  Biso   1.000  H
  C82      1.0000 0.33960  0.09620  0.89769  Biso   1.000  C
  H56      1.0000 0.35290  0.13040  0.91420  Biso   1.000  H
  C83      1.0000 0.34246  0.99680  0.89624  Biso   1.000  C
  C84      1.0000 0.36756  0.94230  0.92034  Biso   1.000  C
  C85      1.0000 0.42900  0.13400  0.02232  Biso   1.000  C
  H57      1.0000 0.42400  0.20130  0.02460  Biso   1.000  H
  C86      1.0000 0.41570  0.09060  0.99547  Biso   1.000  C
  H58      1.0000 0.40190  0.12780  0.97970  Biso   1.000  H
  C87      1.0000 0.45756  0.98980  0.04111  Biso   1.000  C
  H59      1.0000 0.47310  0.95510  0.05680  Biso   1.000  H
  C88      1.0000 0.44511  0.94130  0.01515  Biso   1.000  C
  H60      1.0000 0.45150  0.87440  0.01310  Biso   1.000  H
  C89      1.0000 0.42296  0.99270  0.99192  Biso   1.000  C
  C90      1.0000 0.40688  0.94140  0.96435  Biso   1.000  C
  C91      1.0000 0.88761  0.43660  0.86628  Biso   1.000  C
  H61      1.0000 0.91700  0.44610  0.85580  Biso   1.000  H
  C92      1.0000 0.84487  0.45470  0.85162  Biso   1.000  C
  H62      1.0000 0.84490  0.47500  0.83130  Biso   1.000  H
  C93      1.0000 0.84751  0.39590  0.90982  Biso   1.000  C
  H63      1.0000 0.84850  0.37530  0.93020  Biso   1.000  H
  C94      1.0000 0.80302  0.41400  0.89689  Biso   1.000  C
  H64      1.0000 0.77410  0.40710  0.90810  Biso   1.000  H
  C95      1.0000 0.80191  0.44270  0.86691  Biso   1.000  C
  C96      1.0000 0.75544  0.45770  0.85108  Biso   1.000  C
  C97      1.0000 0.58234  0.40610  0.90930  Biso   1.000  C
  H65      1.0000 0.58180  0.38810  0.92990  Biso   1.000  H
  C98      1.0000 0.62687  0.42140  0.89554  Biso   1.000  C
  H66      1.0000 0.65600  0.41400  0.90650  Biso   1.000  H
  C99      1.0000 0.54175  0.44280  0.86581  Biso   1.000  C
  H67      1.0000 0.51210  0.45080  0.85540  Biso   1.000  H
  C100     1.0000 0.58428  0.45940  0.85040  Biso   1.000  C
  H68      1.0000 0.58380  0.47860  0.82990  Biso   1.000  H
  C101     1.0000 0.62778  0.44750  0.86543  Biso   1.000  C
  C102     1.0000 0.67429  0.46010  0.84994  Biso   1.000  C
  C103     1.0000 0.68680  0.60550  0.73328  Biso   1.000  C
  H69      1.0000 0.65980  0.63190  0.72310  Biso   1.000  H
  C104     1.0000 0.68052  0.56890  0.76161  Biso   1.000  C
  H70      1.0000 0.64960  0.56910  0.77070  Biso   1.000  H
  C105     1.0000 0.76731  0.56680  0.73335  Biso   1.000  C
  H71      1.0000 0.79740  0.56430  0.72320  Biso   1.000  H
  C106     1.0000 0.76418  0.52960  0.76242  Biso   1.000  C
  H72      1.0000 0.79180  0.50360  0.77210  Biso   1.000  H
  C107     1.0000 0.71993  0.53160  0.77676  Biso   1.000  C
  C108     1.0000 0.71671  0.49810  0.80835  Biso   1.000  C
  N25      1.0000 0.44550  0.51490  0.92343  Biso   1.000  N
  N26      1.0000 0.29721  0.10160  0.85110  Biso   1.000  N
  N27      1.0000 0.44849  0.08470  0.04512  Biso   1.000  N
  N28      1.0000 0.37471  0.84820  0.91593  Biso   1.000  N
  N29      1.0000 0.38220  0.99270  0.94426  Biso   1.000  N
  N30      1.0000 0.41828  0.84840  0.96191  Biso   1.000  N
  N31      1.0000 0.88929  0.40600  0.89498  Biso   1.000  N
  N32      1.0000 0.54057  0.41590  0.89481  Biso   1.000  N
  N33      1.0000 0.72963  0.60560  0.71928  Biso   1.000  N
  N34      1.0000 0.71434  0.44500  0.86598  Biso   1.000  N
  N35      1.0000 0.67291  0.48700  0.82077  Biso   1.000  N
  N36      1.0000 0.75863  0.48370  0.82223  Biso   1.000  N
  Zn10     1.0000 0.02440  0.61824  0.41485  Biso   1.000  Zn
  Zn11     1.0000 0.04604  0.85769  0.58770  Biso   1.000  Zn
  Zn12     1.0000 0.76057  0.31860  0.18011  Biso   1.000  Zn
  I19      1.0000 0.00673  0.69570  0.46594  Biso   1.000  I
  I20      1.0000 0.07321  0.70256  0.37484  Biso   1.000  I
  I21      1.0000 0.98084  0.94432  0.61702  Biso   1.000  I
  I22      1.0000 0.05651  0.67582  0.58486  Biso   1.000  I
  I23      1.0000 0.67167  0.32168  0.16567  Biso   1.000  I
  I24      1.0000 0.80272  0.15708  0.18748  Biso   1.000  I
  C109     1.0000 0.04949  0.44270  0.45017  Biso   1.000  C
  H73      1.0000 0.03500  0.47830  0.46600  Biso   1.000  H
  C110     1.0000 0.06437  0.34970  0.45594  Biso   1.000  C
  H74      1.0000 0.06060  0.32220  0.47530  Biso   1.000  H
  C111     1.0000 0.07504  0.43380  0.40126  Biso   1.000  C
  H75      1.0000 0.07900  0.46340  0.38220  Biso   1.000  H
  C112     1.0000 0.09063  0.34040  0.40492  Biso   1.000  C
  H76      1.0000 0.10490  0.30640  0.38870  Biso   1.000  H
  C113     1.0000 0.08512  0.29700  0.43259  Biso   1.000  C
  C114     1.0000 0.09890  0.19430  0.43730  Biso   1.000  C
  C115     1.0000 0.19950  0.99520  0.34991  Biso   1.000  C
  H77      1.0000 0.21330  0.02760  0.33320  Biso   1.000  H
  C116     1.0000 0.17720  0.04940  0.37175  Biso   1.000  C
  H78      1.0000 0.17540  0.11760  0.37000  Biso   1.000  H
  C117     1.0000 0.18320  0.85510  0.37458  Biso   1.000  C
  H79      1.0000 0.18480  0.78680  0.37560  Biso   1.000  H
  C118     1.0000 0.16040  0.90380  0.39769  Biso   1.000  C
  H80      1.0000 0.14710  0.86960  0.41420  Biso   1.000  H
  C119     1.0000 0.15754  0.00320  0.39624  Biso   1.000  C
  C120     1.0000 0.13244  0.05770  0.42034  Biso   1.000  C
  C121     1.0000 0.07100  0.86600  0.52232  Biso   1.000  C
  H81      1.0000 0.07600  0.79870  0.52460  Biso   1.000  H
  C122     1.0000 0.08430  0.90940  0.49547  Biso   1.000  C
  H82      1.0000 0.09810  0.87220  0.47970  Biso   1.000  H
  C123     1.0000 0.04244  0.01020  0.54111  Biso   1.000  C
  H83      1.0000 0.02690  0.04490  0.55680  Biso   1.000  H
  C124     1.0000 0.05489  0.05870  0.51515  Biso   1.000  C
  H84      1.0000 0.04850  0.12560  0.51310  Biso   1.000  H
  C125     1.0000 0.07704  0.00730  0.49192  Biso   1.000  C
  C126     1.0000 0.09312  0.05860  0.46435  Biso   1.000  C
  C127     1.0000 0.61239  0.56340  0.36628  Biso   1.000  C
  H85      1.0000 0.58300  0.55390  0.35580  Biso   1.000  H
  C128     1.0000 0.65513  0.54530  0.35162  Biso   1.000  C
  H86      1.0000 0.65510  0.52500  0.33130  Biso   1.000  H
  C129     1.0000 0.65249  0.60410  0.40982  Biso   1.000  C
  H87      1.0000 0.65150  0.62470  0.43020  Biso   1.000  H
  C130     1.0000 0.69698  0.58600  0.39689  Biso   1.000  C
  H88      1.0000 0.72590  0.59290  0.40810  Biso   1.000  H
  C131     1.0000 0.69809  0.55730  0.36691  Biso   1.000  C
  C132     1.0000 0.74456  0.54230  0.35108  Biso   1.000  C
  C133     1.0000 0.91766  0.59390  0.40930  Biso   1.000  C
  H89      1.0000 0.91820  0.61190  0.42990  Biso   1.000  H
  C134     1.0000 0.87313  0.57860  0.39554  Biso   1.000  C
  H90      1.0000 0.84400  0.58600  0.40650  Biso   1.000  H
  C135     1.0000 0.95825  0.55720  0.36581  Biso   1.000  C
  H91      1.0000 0.98790  0.54920  0.35540  Biso   1.000  H
  C136     1.0000 0.91572  0.54060  0.35040  Biso   1.000  C
  H92      1.0000 0.91620  0.52140  0.32990  Biso   1.000  H
  C137     1.0000 0.87222  0.55250  0.36543  Biso   1.000  C
  C138     1.0000 0.82571  0.53990  0.34994  Biso   1.000  C
  C139     1.0000 0.81320  0.39450  0.23328  Biso   1.000  C
  H93      1.0000 0.84020  0.36810  0.22310  Biso   1.000  H
  C140     1.0000 0.81948  0.43110  0.26161  Biso   1.000  C
  H94      1.0000 0.85040  0.43090  0.27070  Biso   1.000  H
  C141     1.0000 0.73269  0.43320  0.23335  Biso   1.000  C
  H95      1.0000 0.70260  0.43570  0.22320  Biso   1.000  H
  C142     1.0000 0.73582  0.47040  0.26242  Biso   1.000  C
  H96      1.0000 0.70820  0.49640  0.27210  Biso   1.000  H
  C143     1.0000 0.78007  0.46840  0.27676  Biso   1.000  C
  C144     1.0000 0.78329  0.50190  0.30835  Biso   1.000  C
  N37      1.0000 0.05450  0.48510  0.42343  Biso   1.000  N
  N38      1.0000 0.20279  0.89840  0.35110  Biso   1.000  N
  N39      1.0000 0.05151  0.91530  0.54512  Biso   1.000  N
  N40      1.0000 0.12529  0.15180  0.41593  Biso   1.000  N
  N41      1.0000 0.11780  0.00730  0.44426  Biso   1.000  N
  N42      1.0000 0.08172  0.15160  0.46191  Biso   1.000  N
  N43      1.0000 0.61071  0.59400  0.39498  Biso   1.000  N
  N44      1.0000 0.95943  0.58410  0.39481  Biso   1.000  N
  N45      1.0000 0.77037  0.39440  0.21928  Biso   1.000  N
  N46      1.0000 0.78566  0.55500  0.36598  Biso   1.000  N
  N47      1.0000 0.82709  0.51300  0.32077  Biso   1.000  N
  N48      1.0000 0.74137  0.51630  0.32223  Biso   1.000  N
  Zn13     1.0000 0.47560  0.11824  0.41485  Biso   1.000  Zn
  Zn14     1.0000 0.45396  0.35769  0.58770  Biso   1.000  Zn
  Zn15     1.0000 0.73943  0.81860  0.18011  Biso   1.000  Zn
  I25      1.0000 0.49327  0.19570  0.46594  Biso   1.000  I
  I26      1.0000 0.42679  0.20256  0.37484  Biso   1.000  I
  I27      1.0000 0.51916  0.44432  0.61702  Biso   1.000  I
  I28      1.0000 0.44349  0.17582  0.58486  Biso   1.000  I
  I29      1.0000 0.82833  0.82168  0.16567  Biso   1.000  I
  I30      1.0000 0.69728  0.65708  0.18748  Biso   1.000  I
  C145     1.0000 0.45051  0.94270  0.45017  Biso   1.000  C
  H97      1.0000 0.46500  0.97830  0.46600  Biso   1.000  H
  C146     1.0000 0.43563  0.84970  0.45594  Biso   1.000  C
  H98      1.0000 0.43940  0.82220  0.47530  Biso   1.000  H
  C147     1.0000 0.42496  0.93380  0.40126  Biso   1.000  C
  H99      1.0000 0.42100  0.96340  0.38220  Biso   1.000  H
  C148     1.0000 0.40937  0.84040  0.40492  Biso   1.000  C
  H100     1.0000 0.39510  0.80640  0.38870  Biso   1.000  H
  C149     1.0000 0.41488  0.79700  0.43259  Biso   1.000  C
  C150     1.0000 0.40110  0.69430  0.43730  Biso   1.000  C
  C151     1.0000 0.30050  0.49520  0.34991  Biso   1.000  C
  H101     1.0000 0.28670  0.52760  0.33320  Biso   1.000  H
  C152     1.0000 0.32280  0.54940  0.37175  Biso   1.000  C
  H102     1.0000 0.32460  0.61760  0.37000  Biso   1.000  H
  C153     1.0000 0.31680  0.35510  0.37458  Biso   1.000  C
  H103     1.0000 0.31520  0.28680  0.37560  Biso   1.000  H
  C154     1.0000 0.33960  0.40380  0.39769  Biso   1.000  C
  H104     1.0000 0.35290  0.36960  0.41420  Biso   1.000  H
  C155     1.0000 0.34246  0.50320  0.39624  Biso   1.000  C
  C156     1.0000 0.36756  0.55770  0.42034  Biso   1.000  C
  C157     1.0000 0.42900  0.36600  0.52232  Biso   1.000  C
  H105     1.0000 0.42400  0.29870  0.52460  Biso   1.000  H
  C158     1.0000 0.41570  0.40940  0.49547  Biso   1.000  C
  H106     1.0000 0.40190  0.37220  0.47970  Biso   1.000  H
  C159     1.0000 0.45756  0.51020  0.54111  Biso   1.000  C
  H107     1.0000 0.47310  0.54490  0.55680  Biso   1.000  H
  C160     1.0000 0.44511  0.55870  0.51515  Biso   1.000  C
  H108     1.0000 0.45150  0.62560  0.51310  Biso   1.000  H
  C161     1.0000 0.42296  0.50730  0.49192  Biso   1.000  C
  C162     1.0000 0.40688  0.55860  0.46435  Biso   1.000  C
  C163     1.0000 0.88761  0.06340  0.36628  Biso   1.000  C
  H109     1.0000 0.91700  0.05390  0.35580  Biso   1.000  H
  C164     1.0000 0.84487  0.04530  0.35162  Biso   1.000  C
  H110     1.0000 0.84490  0.02500  0.33130  Biso   1.000  H
  C165     1.0000 0.84751  0.10410  0.40982  Biso   1.000  C
  H111     1.0000 0.84850  0.12470  0.43020  Biso   1.000  H
  C166     1.0000 0.80302  0.08600  0.39689  Biso   1.000  C
  H112     1.0000 0.77410  0.09290  0.40810  Biso   1.000  H
  C167     1.0000 0.80191  0.05730  0.36691  Biso   1.000  C
  C168     1.0000 0.75544  0.04230  0.35108  Biso   1.000  C
  C169     1.0000 0.58234  0.09390  0.40930  Biso   1.000  C
  H113     1.0000 0.58180  0.11190  0.42990  Biso   1.000  H
  C170     1.0000 0.62687  0.07860  0.39554  Biso   1.000  C
  H114     1.0000 0.65600  0.08600  0.40650  Biso   1.000  H
  C171     1.0000 0.54175  0.05720  0.36581  Biso   1.000  C
  H115     1.0000 0.51210  0.04920  0.35540  Biso   1.000  H
  C172     1.0000 0.58428  0.04060  0.35040  Biso   1.000  C
  H116     1.0000 0.58380  0.02140  0.32990  Biso   1.000  H
  C173     1.0000 0.62778  0.05250  0.36543  Biso   1.000  C
  C174     1.0000 0.67429  0.03990  0.34994  Biso   1.000  C
  C175     1.0000 0.68680  0.89450  0.23328  Biso   1.000  C
  H117     1.0000 0.65980  0.86810  0.22310  Biso   1.000  H
  C176     1.0000 0.68052  0.93110  0.26161  Biso   1.000  C
  H118     1.0000 0.64960  0.93090  0.27070  Biso   1.000  H
  C177     1.0000 0.76731  0.93320  0.23335  Biso   1.000  C
  H119     1.0000 0.79740  0.93570  0.22320  Biso   1.000  H
  C178     1.0000 0.76418  0.97040  0.26242  Biso   1.000  C
  H120     1.0000 0.79180  0.99640  0.27210  Biso   1.000  H
  C179     1.0000 0.71993  0.96840  0.27676  Biso   1.000  C
  C180     1.0000 0.71671  0.00190  0.30835  Biso   1.000  C
  N49      1.0000 0.44550  0.98510  0.42343  Biso   1.000  N
  N50      1.0000 0.29721  0.39840  0.35110  Biso   1.000  N
  N51      1.0000 0.44849  0.41530  0.54512  Biso   1.000  N
  N52      1.0000 0.37471  0.65180  0.41593  Biso   1.000  N
  N53      1.0000 0.38220  0.50730  0.44426  Biso   1.000  N
  N54      1.0000 0.41828  0.65160  0.46191  Biso   1.000  N
  N55      1.0000 0.88929  0.09400  0.39498  Biso   1.000  N
  N56      1.0000 0.54057  0.08410  0.39481  Biso   1.000  N
  N57      1.0000 0.72963  0.89440  0.21928  Biso   1.000  N
  N58      1.0000 0.71434  0.05500  0.36598  Biso   1.000  N
  N59      1.0000 0.67291  0.01300  0.32077  Biso   1.000  N
  N60      1.0000 0.75863  0.01630  0.32223  Biso   1.000  N
  Zn16     1.0000 0.02440  0.88176  0.91485  Biso   1.000  Zn
  Zn17     1.0000 0.04604  0.64231  0.08770  Biso   1.000  Zn
  Zn18     1.0000 0.76057  0.18140  0.68011  Biso   1.000  Zn
  I31      1.0000 0.00673  0.80430  0.96594  Biso   1.000  I
  I32      1.0000 0.07321  0.79744  0.87484  Biso   1.000  I
  I33      1.0000 0.98084  0.55568  0.11702  Biso   1.000  I
  I34      1.0000 0.05651  0.82418  0.08486  Biso   1.000  I
  I35      1.0000 0.67167  0.17832  0.66567  Biso   1.000  I
  I36      1.0000 0.80272  0.34292  0.68748  Biso   1.000  I
  C181     1.0000 0.04949  0.05730  0.95017  Biso   1.000  C
  H121     1.0000 0.03500  0.02170  0.96600  Biso   1.000  H
  C182     1.0000 0.06437  0.15030  0.95594  Biso   1.000  C
  H122     1.0000 0.06060  0.17780  0.97530  Biso   1.000  H
  C183     1.0000 0.07504  0.06620  0.90126  Biso   1.000  C
  H123     1.0000 0.07900  0.03660  0.88220  Biso   1.000  H
  C184     1.0000 0.09063  0.15960  0.90492  Biso   1.000  C
  H124     1.0000 0.10490  0.19360  0.88870  Biso   1.000  H
  C185     1.0000 0.08512  0.20300  0.93259  Biso   1.000  C
  C186     1.0000 0.09890  0.30570  0.93730  Biso   1.000  C
  C187     1.0000 0.19950  0.50480  0.84991  Biso   1.000  C
  H125     1.0000 0.21330  0.47240  0.83320  Biso   1.000  H
  C188     1.0000 0.17720  0.45060  0.87175  Biso   1.000  C
  H126     1.0000 0.17540  0.38240  0.87000  Biso   1.000  H
  C189     1.0000 0.18320  0.64490  0.87458  Biso   1.000  C
  H127     1.0000 0.18480  0.71320  0.87560  Biso   1.000  H
  C190     1.0000 0.16040  0.59620  0.89769  Biso   1.000  C
  H128     1.0000 0.14710  0.63040  0.91420  Biso   1.000  H
  C191     1.0000 0.15754  0.49680  0.89624  Biso   1.000  C
  C192     1.0000 0.13244  0.44230  0.92034  Biso   1.000  C
  C193     1.0000 0.07100  0.63400  0.02232  Biso   1.000  C
  H129     1.0000 0.07600  0.70130  0.02460  Biso   1.000  H
  C194     1.0000 0.08430  0.59060  0.99547  Biso   1.000  C
  H130     1.0000 0.09810  0.62780  0.97970  Biso   1.000  H
  C195     1.0000 0.04244  0.48980  0.04111  Biso   1.000  C
  H131     1.0000 0.02690  0.45510  0.05680  Biso   1.000  H
  C196     1.0000 0.05489  0.44130  0.01515  Biso   1.000  C
  H132     1.0000 0.04850  0.37440  0.01310  Biso   1.000  H
  C197     1.0000 0.07704  0.49270  0.99192  Biso   1.000  C
  C198     1.0000 0.09312  0.44140  0.96435  Biso   1.000  C
  C199     1.0000 0.61239  0.93660  0.86628  Biso   1.000  C
  H133     1.0000 0.58300  0.94610  0.85580  Biso   1.000  H
  C200     1.0000 0.65513  0.95470  0.85162  Biso   1.000  C
  H134     1.0000 0.65510  0.97500  0.83130  Biso   1.000  H
  C201     1.0000 0.65249  0.89590  0.90982  Biso   1.000  C
  H135     1.0000 0.65150  0.87530  0.93020  Biso   1.000  H
  C202     1.0000 0.69698  0.91400  0.89689  Biso   1.000  C
  H136     1.0000 0.72590  0.90710  0.90810  Biso   1.000  H
  C203     1.0000 0.69809  0.94270  0.86691  Biso   1.000  C
  C204     1.0000 0.74456  0.95770  0.85108  Biso   1.000  C
  C205     1.0000 0.91766  0.90610  0.90930  Biso   1.000  C
  H137     1.0000 0.91820  0.88810  0.92990  Biso   1.000  H
  C206     1.0000 0.87313  0.92140  0.89554  Biso   1.000  C
  H138     1.0000 0.84400  0.91400  0.90650  Biso   1.000  H
  C207     1.0000 0.95825  0.94280  0.86581  Biso   1.000  C
  H139     1.0000 0.98790  0.95080  0.85540  Biso   1.000  H
  C208     1.0000 0.91572  0.95940  0.85040  Biso   1.000  C
  H140     1.0000 0.91620  0.97860  0.82990  Biso   1.000  H
  C209     1.0000 0.87222  0.94750  0.86543  Biso   1.000  C
  C210     1.0000 0.82571  0.96010  0.84994  Biso   1.000  C
  C211     1.0000 0.81320  0.10550  0.73328  Biso   1.000  C
  H141     1.0000 0.84020  0.13190  0.72310  Biso   1.000  H
  C212     1.0000 0.81948  0.06890  0.76161  Biso   1.000  C
  H142     1.0000 0.85040  0.06910  0.77070  Biso   1.000  H
  C213     1.0000 0.73269  0.06680  0.73335  Biso   1.000  C
  H143     1.0000 0.70260  0.06430  0.72320  Biso   1.000  H
  C214     1.0000 0.73582  0.02960  0.76242  Biso   1.000  C
  H144     1.0000 0.70820  0.00360  0.77210  Biso   1.000  H
  C215     1.0000 0.78007  0.03160  0.77676  Biso   1.000  C
  C216     1.0000 0.78329  0.99810  0.80835  Biso   1.000  C
  N61      1.0000 0.05450  0.01490  0.92343  Biso   1.000  N
  N62      1.0000 0.20279  0.60160  0.85110  Biso   1.000  N
  N63      1.0000 0.05151  0.58470  0.04512  Biso   1.000  N
  N64      1.0000 0.12529  0.34820  0.91593  Biso   1.000  N
  N65      1.0000 0.11780  0.49270  0.94426  Biso   1.000  N
  N66      1.0000 0.08172  0.34840  0.96191  Biso   1.000  N
  N67      1.0000 0.61071  0.90600  0.89498  Biso   1.000  N
  N68      1.0000 0.95943  0.91590  0.89481  Biso   1.000  N
  N69      1.0000 0.77037  0.10560  0.71928  Biso   1.000  N
  N70      1.0000 0.78566  0.94500  0.86598  Biso   1.000  N
  N71      1.0000 0.82709  0.98700  0.82077  Biso   1.000  N
  N72      1.0000 0.74137  0.98370  0.82223  Biso   1.000  N
  Zn19     1.0000 0.52440  0.61824  0.08515  Biso   1.000  Zn
  Zn20     1.0000 0.54604  0.85769  0.91230  Biso   1.000  Zn
  Zn21     1.0000 0.26057  0.31860  0.31989  Biso   1.000  Zn
  I37      1.0000 0.50673  0.69570  0.03406  Biso   1.000  I
  I38      1.0000 0.57321  0.70256  0.12516  Biso   1.000  I
  I39      1.0000 0.48084  0.94432  0.88298  Biso   1.000  I
  I40      1.0000 0.55651  0.67582  0.91514  Biso   1.000  I
  I41      1.0000 0.17167  0.32168  0.33433  Biso   1.000  I
  I42      1.0000 0.30272  0.15708  0.31252  Biso   1.000  I
  C217     1.0000 0.54949  0.44270  0.04983  Biso   1.000  C
  H145     1.0000 0.53500  0.47830  0.03400  Biso   1.000  H
  C218     1.0000 0.56437  0.34970  0.04406  Biso   1.000  C
  H146     1.0000 0.56060  0.32220  0.02470  Biso   1.000  H
  C219     1.0000 0.57504  0.43380  0.09874  Biso   1.000  C
  H147     1.0000 0.57900  0.46340  0.11780  Biso   1.000  H
  C220     1.0000 0.59063  0.34040  0.09508  Biso   1.000  C
  H148     1.0000 0.60490  0.30640  0.11130  Biso   1.000  H
  C221     1.0000 0.58512  0.29700  0.06741  Biso   1.000  C
  C222     1.0000 0.59890  0.19430  0.06270  Biso   1.000  C
  C223     1.0000 0.69950  0.99520  0.15009  Biso   1.000  C
  H149     1.0000 0.71330  0.02760  0.16680  Biso   1.000  H
  C224     1.0000 0.67720  0.04940  0.12825  Biso   1.000  C
  H150     1.0000 0.67540  0.11760  0.13000  Biso   1.000  H
  C225     1.0000 0.68320  0.85510  0.12542  Biso   1.000  C
  H151     1.0000 0.68480  0.78680  0.12440  Biso   1.000  H
  C226     1.0000 0.66040  0.90380  0.10231  Biso   1.000  C
  H152     1.0000 0.64710  0.86960  0.08580  Biso   1.000  H
  C227     1.0000 0.65754  0.00320  0.10376  Biso   1.000  C
  C228     1.0000 0.63244  0.05770  0.07966  Biso   1.000  C
  C229     1.0000 0.57100  0.86600  0.97768  Biso   1.000  C
  H153     1.0000 0.57600  0.79870  0.97540  Biso   1.000  H
  C230     1.0000 0.58430  0.90940  0.00453  Biso   1.000  C
  H154     1.0000 0.59810  0.87220  0.02030  Biso   1.000  H
  C231     1.0000 0.54244  0.01020  0.95889  Biso   1.000  C
  H155     1.0000 0.52690  0.04490  0.94320  Biso   1.000  H
  C232     1.0000 0.55489  0.05870  0.98485  Biso   1.000  C
  H156     1.0000 0.54850  0.12560  0.98690  Biso   1.000  H
  C233     1.0000 0.57704  0.00730  0.00808  Biso   1.000  C
  C234     1.0000 0.59312  0.05860  0.03565  Biso   1.000  C
  C235     1.0000 0.11239  0.56340  0.13372  Biso   1.000  C
  H157     1.0000 0.08300  0.55390  0.14420  Biso   1.000  H
  C236     1.0000 0.15513  0.54530  0.14838  Biso   1.000  C
  H158     1.0000 0.15510  0.52500  0.16870  Biso   1.000  H
  C237     1.0000 0.15249  0.60410  0.09018  Biso   1.000  C
  H159     1.0000 0.15150  0.62470  0.06980  Biso   1.000  H
  C238     1.0000 0.19698  0.58600  0.10311  Biso   1.000  C
  H160     1.0000 0.22590  0.59290  0.09190  Biso   1.000  H
  C239     1.0000 0.19809  0.55730  0.13309  Biso   1.000  C
  C240     1.0000 0.24456  0.54230  0.14892  Biso   1.000  C
  C241     1.0000 0.41766  0.59390  0.09070  Biso   1.000  C
  H161     1.0000 0.41820  0.61190  0.07010  Biso   1.000  H
  C242     1.0000 0.37313  0.57860  0.10446  Biso   1.000  C
  H162     1.0000 0.34400  0.58600  0.09350  Biso   1.000  H
  C243     1.0000 0.45825  0.55720  0.13419  Biso   1.000  C
  H163     1.0000 0.48790  0.54920  0.14460  Biso   1.000  H
  C244     1.0000 0.41572  0.54060  0.14960  Biso   1.000  C
  H164     1.0000 0.41620  0.52140  0.17010  Biso   1.000  H
  C245     1.0000 0.37222  0.55250  0.13457  Biso   1.000  C
  C246     1.0000 0.32571  0.53990  0.15006  Biso   1.000  C
  C247     1.0000 0.31320  0.39450  0.26672  Biso   1.000  C
  H165     1.0000 0.34020  0.36810  0.27690  Biso   1.000  H
  C248     1.0000 0.31948  0.43110  0.23839  Biso   1.000  C
  H166     1.0000 0.35040  0.43090  0.22930  Biso   1.000  H
  C249     1.0000 0.23269  0.43320  0.26665  Biso   1.000  C
  H167     1.0000 0.20260  0.43570  0.27680  Biso   1.000  H
  C250     1.0000 0.23582  0.47040  0.23758  Biso   1.000  C
  H168     1.0000 0.20820  0.49640  0.22790  Biso   1.000  H
  C251     1.0000 0.28007  0.46840  0.22324  Biso   1.000  C
  C252     1.0000 0.28329  0.50190  0.19165  Biso   1.000  C
  N73      1.0000 0.55450  0.48510  0.07657  Biso   1.000  N
  N74      1.0000 0.70279  0.89840  0.14890  Biso   1.000  N
  N75      1.0000 0.55151  0.91530  0.95488  Biso   1.000  N
  N76      1.0000 0.62529  0.15180  0.08407  Biso   1.000  N
  N77      1.0000 0.61780  0.00730  0.05574  Biso   1.000  N
  N78      1.0000 0.58172  0.15160  0.03809  Biso   1.000  N
  N79      1.0000 0.11071  0.59400  0.10502  Biso   1.000  N
  N80      1.0000 0.45943  0.58410  0.10519  Biso   1.000  N
  N81      1.0000 0.27037  0.39440  0.28072  Biso   1.000  N
  N82      1.0000 0.28566  0.55500  0.13402  Biso   1.000  N
  N83      1.0000 0.32709  0.51300  0.17923  Biso   1.000  N
  N84      1.0000 0.24137  0.51630  0.17777  Biso   1.000  N
  Zn22     1.0000 0.97560  0.38176  0.58515  Biso   1.000  Zn
  Zn23     1.0000 0.95396  0.14231  0.41230  Biso   1.000  Zn
  Zn24     1.0000 0.23943  0.68140  0.81989  Biso   1.000  Zn
  I43      1.0000 0.99327  0.30430  0.53406  Biso   1.000  I
  I44      1.0000 0.92679  0.29744  0.62516  Biso   1.000  I
  I45      1.0000 0.01916  0.05568  0.38298  Biso   1.000  I
  I46      1.0000 0.94349  0.32418  0.41514  Biso   1.000  I
  I47      1.0000 0.32833  0.67832  0.83433  Biso   1.000  I
  I48      1.0000 0.19728  0.84292  0.81252  Biso   1.000  I
  C253     1.0000 0.95051  0.55730  0.54983  Biso   1.000  C
  H169     1.0000 0.96500  0.52170  0.53400  Biso   1.000  H
  C254     1.0000 0.93563  0.65030  0.54406  Biso   1.000  C
  H170     1.0000 0.93940  0.67780  0.52470  Biso   1.000  H
  C255     1.0000 0.92496  0.56620  0.59874  Biso   1.000  C
  H171     1.0000 0.92100  0.53660  0.61780  Biso   1.000  H
  C256     1.0000 0.90937  0.65960  0.59508  Biso   1.000  C
  H172     1.0000 0.89510  0.69360  0.61130  Biso   1.000  H
  C257     1.0000 0.91488  0.70300  0.56741  Biso   1.000  C
  C258     1.0000 0.90110  0.80570  0.56270  Biso   1.000  C
  C259     1.0000 0.80050  0.00480  0.65009  Biso   1.000  C
  H173     1.0000 0.78670  0.97240  0.66680  Biso   1.000  H
  C260     1.0000 0.82280  0.95060  0.62825  Biso   1.000  C
  H174     1.0000 0.82460  0.88240  0.63000  Biso   1.000  H
  C261     1.0000 0.81680  0.14490  0.62542  Biso   1.000  C
  H175     1.0000 0.81520  0.21320  0.62440  Biso   1.000  H
  C262     1.0000 0.83960  0.09620  0.60231  Biso   1.000  C
  H176     1.0000 0.85290  0.13040  0.58580  Biso   1.000  H
  C263     1.0000 0.84246  0.99680  0.60376  Biso   1.000  C
  C264     1.0000 0.86756  0.94230  0.57966  Biso   1.000  C
  C265     1.0000 0.92900  0.13400  0.47768  Biso   1.000  C
  H177     1.0000 0.92400  0.20130  0.47540  Biso   1.000  H
  C266     1.0000 0.91570  0.09060  0.50453  Biso   1.000  C
  H178     1.0000 0.90190  0.12780  0.52030  Biso   1.000  H
  C267     1.0000 0.95756  0.98980  0.45889  Biso   1.000  C
  H179     1.0000 0.97310  0.95510  0.44320  Biso   1.000  H
  C268     1.0000 0.94511  0.94130  0.48485  Biso   1.000  C
  H180     1.0000 0.95150  0.87440  0.48690  Biso   1.000  H
  C269     1.0000 0.92296  0.99270  0.50808  Biso   1.000  C
  C270     1.0000 0.90688  0.94140  0.53565  Biso   1.000  C
  C271     1.0000 0.38761  0.43660  0.63372  Biso   1.000  C
  H181     1.0000 0.41700  0.44610  0.64420  Biso   1.000  H
  C272     1.0000 0.34487  0.45470  0.64838  Biso   1.000  C
  H182     1.0000 0.34490  0.47500  0.66870  Biso   1.000  H
  C273     1.0000 0.34751  0.39590  0.59018  Biso   1.000  C
  H183     1.0000 0.34850  0.37530  0.56980  Biso   1.000  H
  C274     1.0000 0.30302  0.41400  0.60311  Biso   1.000  C
  H184     1.0000 0.27410  0.40710  0.59190  Biso   1.000  H
  C275     1.0000 0.30191  0.44270  0.63309  Biso   1.000  C
  C276     1.0000 0.25544  0.45770  0.64892  Biso   1.000  C
  C277     1.0000 0.08234  0.40610  0.59070  Biso   1.000  C
  H185     1.0000 0.08180  0.38810  0.57010  Biso   1.000  H
  C278     1.0000 0.12687  0.42140  0.60446  Biso   1.000  C
  H186     1.0000 0.15600  0.41400  0.59350  Biso   1.000  H
  C279     1.0000 0.04175  0.44280  0.63419  Biso   1.000  C
  H187     1.0000 0.01210  0.45080  0.64460  Biso   1.000  H
  C280     1.0000 0.08428  0.45940  0.64960  Biso   1.000  C
  H188     1.0000 0.08380  0.47860  0.67010  Biso   1.000  H
  C281     1.0000 0.12778  0.44750  0.63457  Biso   1.000  C
  C282     1.0000 0.17429  0.46010  0.65006  Biso   1.000  C
  C283     1.0000 0.18680  0.60550  0.76672  Biso   1.000  C
  H189     1.0000 0.15980  0.63190  0.77690  Biso   1.000  H
  C284     1.0000 0.18052  0.56890  0.73839  Biso   1.000  C
  H190     1.0000 0.14960  0.56910  0.72930  Biso   1.000  H
  C285     1.0000 0.26731  0.56680  0.76665  Biso   1.000  C
  H191     1.0000 0.29740  0.56430  0.77680  Biso   1.000  H
  C286     1.0000 0.26418  0.52960  0.73758  Biso   1.000  C
  H192     1.0000 0.29180  0.50360  0.72790  Biso   1.000  H
  C287     1.0000 0.21993  0.53160  0.72324  Biso   1.000  C
  C288     1.0000 0.21671  0.49810  0.69165  Biso   1.000  C
  N85      1.0000 0.94550  0.51490  0.57657  Biso   1.000  N
  N86      1.0000 0.79721  0.10160  0.64890  Biso   1.000  N
  N87      1.0000 0.94849  0.08470  0.45488  Biso   1.000  N
  N88      1.0000 0.87471  0.84820  0.58407  Biso   1.000  N
  N89      1.0000 0.88220  0.99270  0.55574  Biso   1.000  N
  N90      1.0000 0.91828  0.84840  0.53809  Biso   1.000  N
  N91      1.0000 0.38929  0.40600  0.60502  Biso   1.000  N
  N92      1.0000 0.04057  0.41590  0.60519  Biso   1.000  N
  N93      1.0000 0.22963  0.60560  0.78072  Biso   1.000  N
  N94      1.0000 0.21434  0.44500  0.63402  Biso   1.000  N
  N95      1.0000 0.17291  0.48700  0.67923  Biso   1.000  N
  N96      1.0000 0.25863  0.48370  0.67777  Biso   1.000  N
