data_image0
_cell_length_a       13.7287
_cell_length_b       27.8
_cell_length_c       45.481
_cell_angle_alpha    90
_cell_angle_beta     90
_cell_angle_gamma    90

_symmetry_space_group_name_H-M    P 1
_symmetry_int_tables_number       1

loop_
  _symmetry_equiv_pos_as_xyz
  'x, y, z'

loop_
  _atom_site_label
  _atom_site_occupancy
  _atom_site_fract_x
  _atom_site_fract_y
  _atom_site_fract_z
  _atom_site_thermal_displace_type
  _atom_site_B_iso_or_equiv
  _atom_site_type_symbol
  Zn1      1.0000 0.85673  0.74391  0.81282  Biso   1.000  Zn
  Zn2      1.0000 0.64231  0.52700  0.91574  Biso   1.000  Zn
  Zn3      1.0000 0.66441  0.05664  0.92612  Biso   1.000  Zn
  Zn4      1.0000 0.14327  0.75609  0.31282  Biso   1.000  Zn
  Zn5      1.0000 0.35769  0.97300  0.41574  Biso   1.000  Zn
  Zn6      1.0000 0.33559  0.44336  0.42612  Biso   1.000  Zn
  Zn7      1.0000 0.35673  0.25609  0.68718  Biso   1.000  Zn
  Zn8      1.0000 0.14231  0.47300  0.58426  Biso   1.000  Zn
  Zn9      1.0000 0.16441  0.94336  0.57388  Biso   1.000  Zn
  Zn10     1.0000 0.64327  0.24391  0.18718  Biso   1.000  Zn
  Zn11     1.0000 0.85769  0.02700  0.08426  Biso   1.000  Zn
  Zn12     1.0000 0.83559  0.55664  0.07388  Biso   1.000  Zn
  H1       1.0000 0.06500  0.71310  0.82650  Biso   1.000  H
  H2       1.0000 0.14960  0.67410  0.86430  Biso   1.000  H
  H3       1.0000 0.81600  0.69060  0.86630  Biso   1.000  H
  H4       1.0000 0.89490  0.65470  0.90580  Biso   1.000  H
  H5       1.0000 0.80360  0.59850  0.01340  Biso   1.000  H
  H6       1.0000 0.88830  0.61560  0.97090  Biso   1.000  H
  H7       1.0000 0.03570  0.54140  0.04910  Biso   1.000  H
  H8       1.0000 0.12850  0.55950  0.00830  Biso   1.000  H
  H9       1.0000 0.49270  0.53460  0.96450  Biso   1.000  H
  H10      1.0000 0.33360  0.56200  0.97130  Biso   1.000  H
  H11      1.0000 0.49150  0.58260  0.88300  Biso   1.000  H
  H12      1.0000 0.33690  0.61390  0.88890  Biso   1.000  H
  H13      1.0000 0.58950  0.48930  0.85580  Biso   1.000  H
  H14      1.0000 0.57510  0.41710  0.82980  Biso   1.000  H
  H15      1.0000 0.62200  0.42380  0.93080  Biso   1.000  H
  H16      1.0000 0.59750  0.34940  0.90800  Biso   1.000  H
  H17      1.0000 0.65780  0.16300  0.93590  Biso   1.000  H
  H18      1.0000 0.62920  0.23430  0.91070  Biso   1.000  H
  H19      1.0000 0.58280  0.08720  0.86670  Biso   1.000  H
  H20      1.0000 0.55190  0.15540  0.84020  Biso   1.000  H
  H21      1.0000 0.47080  0.19740  0.73050  Biso   1.000  H
  H22      1.0000 0.52990  0.20630  0.77930  Biso   1.000  H
  H23      1.0000 0.41710  0.33520  0.72570  Biso   1.000  H
  H24      1.0000 0.48420  0.34720  0.77250  Biso   1.000  H
  H25      1.0000 0.93500  0.78690  0.32650  Biso   1.000  H
  H26      1.0000 0.85040  0.82590  0.36430  Biso   1.000  H
  H27      1.0000 0.18400  0.80940  0.36630  Biso   1.000  H
  H28      1.0000 0.10510  0.84530  0.40580  Biso   1.000  H
  H29      1.0000 0.19640  0.90150  0.51340  Biso   1.000  H
  H30      1.0000 0.11170  0.88440  0.47090  Biso   1.000  H
  H31      1.0000 0.96430  0.95860  0.54910  Biso   1.000  H
  H32      1.0000 0.87150  0.94050  0.50830  Biso   1.000  H
  H33      1.0000 0.50730  0.96540  0.46450  Biso   1.000  H
  H34      1.0000 0.66640  0.93800  0.47130  Biso   1.000  H
  H35      1.0000 0.50850  0.91740  0.38300  Biso   1.000  H
  H36      1.0000 0.66310  0.88610  0.38890  Biso   1.000  H
  H37      1.0000 0.41050  0.01070  0.35580  Biso   1.000  H
  H38      1.0000 0.42490  0.08290  0.32980  Biso   1.000  H
  H39      1.0000 0.37800  0.07620  0.43080  Biso   1.000  H
  H40      1.0000 0.40250  0.15060  0.40800  Biso   1.000  H
  H41      1.0000 0.34220  0.33700  0.43590  Biso   1.000  H
  H42      1.0000 0.37080  0.26570  0.41070  Biso   1.000  H
  H43      1.0000 0.41720  0.41280  0.36670  Biso   1.000  H
  H44      1.0000 0.44810  0.34460  0.34020  Biso   1.000  H
  H45      1.0000 0.52920  0.30260  0.23050  Biso   1.000  H
  H46      1.0000 0.47010  0.29370  0.27930  Biso   1.000  H
  H47      1.0000 0.58290  0.16480  0.22570  Biso   1.000  H
  H48      1.0000 0.51580  0.15280  0.27250  Biso   1.000  H
  H49      1.0000 0.56500  0.28690  0.67350  Biso   1.000  H
  H50      1.0000 0.64960  0.32590  0.63570  Biso   1.000  H
  H51      1.0000 0.31600  0.30940  0.63370  Biso   1.000  H
  H52      1.0000 0.39490  0.34530  0.59420  Biso   1.000  H
  H53      1.0000 0.30360  0.40150  0.48660  Biso   1.000  H
  H54      1.0000 0.38830  0.38440  0.52910  Biso   1.000  H
  H55      1.0000 0.53570  0.45860  0.45090  Biso   1.000  H
  H56      1.0000 0.62850  0.44050  0.49170  Biso   1.000  H
  H57      1.0000 0.99270  0.46540  0.53550  Biso   1.000  H
  H58      1.0000 0.83360  0.43800  0.52870  Biso   1.000  H
  H59      1.0000 0.99150  0.41740  0.61700  Biso   1.000  H
  H60      1.0000 0.83690  0.38610  0.61110  Biso   1.000  H
  H61      1.0000 0.08950  0.51070  0.64420  Biso   1.000  H
  H62      1.0000 0.07510  0.58290  0.67020  Biso   1.000  H
  H63      1.0000 0.12200  0.57620  0.56920  Biso   1.000  H
  H64      1.0000 0.09750  0.65060  0.59200  Biso   1.000  H
  H65      1.0000 0.15780  0.83700  0.56410  Biso   1.000  H
  H66      1.0000 0.12920  0.76570  0.58930  Biso   1.000  H
  H67      1.0000 0.08280  0.91280  0.63330  Biso   1.000  H
  H68      1.0000 0.05190  0.84460  0.65980  Biso   1.000  H
  H69      1.0000 0.97080  0.80260  0.76950  Biso   1.000  H
  H70      1.0000 0.02990  0.79370  0.72070  Biso   1.000  H
  H71      1.0000 0.91710  0.66480  0.77430  Biso   1.000  H
  H72      1.0000 0.98420  0.65280  0.72750  Biso   1.000  H
  H73      1.0000 0.43500  0.21310  0.17350  Biso   1.000  H
  H74      1.0000 0.35040  0.17410  0.13570  Biso   1.000  H
  H75      1.0000 0.68400  0.19060  0.13370  Biso   1.000  H
  H76      1.0000 0.60510  0.15470  0.09420  Biso   1.000  H
  H77      1.0000 0.69640  0.09850  0.98660  Biso   1.000  H
  H78      1.0000 0.61170  0.11560  0.02910  Biso   1.000  H
  H79      1.0000 0.46430  0.04140  0.95090  Biso   1.000  H
  H80      1.0000 0.37150  0.05950  0.99170  Biso   1.000  H
  H81      1.0000 0.00730  0.03460  0.03550  Biso   1.000  H
  H82      1.0000 0.16640  0.06200  0.02870  Biso   1.000  H
  H83      1.0000 0.00850  0.08260  0.11700  Biso   1.000  H
  H84      1.0000 0.16310  0.11390  0.11110  Biso   1.000  H
  H85      1.0000 0.91050  0.98930  0.14420  Biso   1.000  H
  H86      1.0000 0.92490  0.91710  0.17020  Biso   1.000  H
  H87      1.0000 0.87800  0.92380  0.06920  Biso   1.000  H
  H88      1.0000 0.90250  0.84940  0.09200  Biso   1.000  H
  H89      1.0000 0.84220  0.66300  0.06410  Biso   1.000  H
  H90      1.0000 0.87080  0.73430  0.08930  Biso   1.000  H
  H91      1.0000 0.91720  0.58720  0.13330  Biso   1.000  H
  H92      1.0000 0.94810  0.65540  0.15980  Biso   1.000  H
  H93      1.0000 0.02920  0.69740  0.26950  Biso   1.000  H
  H94      1.0000 0.97010  0.70630  0.22070  Biso   1.000  H
  H95      1.0000 0.08290  0.83520  0.27430  Biso   1.000  H
  H96      1.0000 0.01580  0.84720  0.22750  Biso   1.000  H
  C1       1.0000 0.02960  0.70080  0.84290  Biso   1.000  C
  C2       1.0000 0.08110  0.67820  0.86550  Biso   1.000  C
  C3       1.0000 0.88500  0.68830  0.86610  Biso   1.000  C
  C4       1.0000 0.93150  0.66660  0.88960  Biso   1.000  C
  C5       1.0000 0.03080  0.66240  0.88940  Biso   1.000  C
  C6       1.0000 0.08240  0.63980  0.91440  Biso   1.000  C
  C7       1.0000 0.87050  0.59000  0.01230  Biso   1.000  C
  C8       1.0000 0.92080  0.60160  0.98730  Biso   1.000  C
  C9       1.0000 0.00550  0.55730  0.03300  Biso   1.000  C
  C10      1.0000 0.06180  0.56840  0.00910  Biso   1.000  C
  C11      1.0000 0.01940  0.59280  0.98630  Biso   1.000  C
  C12      1.0000 0.07510  0.60620  0.96000  Biso   1.000  C
  C13      1.0000 0.46010  0.55030  0.94880  Biso   1.000  C
  C14      1.0000 0.36550  0.56730  0.95300  Biso   1.000  C
  C15      1.0000 0.45950  0.57880  0.90140  Biso   1.000  C
  C16      1.0000 0.36720  0.59730  0.90470  Biso   1.000  C
  C17      1.0000 0.31860  0.59160  0.93100  Biso   1.000  C
  C18      1.0000 0.21570  0.60670  0.93460  Biso   1.000  C
  C19      1.0000 0.59520  0.45990  0.86630  Biso   1.000  C
  C20      1.0000 0.58380  0.41700  0.85050  Biso   1.000  C
  C21      1.0000 0.61270  0.42250  0.91010  Biso   1.000  C
  C22      1.0000 0.59850  0.37780  0.89640  Biso   1.000  C
  C23      1.0000 0.58590  0.37440  0.86630  Biso   1.000  C
  C24      1.0000 0.57390  0.32750  0.85190  Biso   1.000  C
  C25      1.0000 0.63640  0.16140  0.91610  Biso   1.000  C
  C26      1.0000 0.62000  0.20430  0.90120  Biso   1.000  C
  C27      1.0000 0.59260  0.11760  0.87580  Biso   1.000  C
  C28      1.0000 0.57480  0.15790  0.85990  Biso   1.000  C
  C29      1.0000 0.59010  0.20240  0.87240  Biso   1.000  C
  C30      1.0000 0.57570  0.24650  0.85530  Biso   1.000  C
  C31      1.0000 0.47140  0.22830  0.73940  Biso   1.000  C
  C32      1.0000 0.50770  0.23350  0.76860  Biso   1.000  C
  C33      1.0000 0.44150  0.30850  0.73650  Biso   1.000  C
  C34      1.0000 0.47960  0.31560  0.76470  Biso   1.000  C
  C35      1.0000 0.51010  0.27740  0.78080  Biso   1.000  C
  C36      1.0000 0.54110  0.28260  0.81220  Biso   1.000  C
  C37      1.0000 0.97040  0.79920  0.34290  Biso   1.000  C
  C38      1.0000 0.91890  0.82180  0.36550  Biso   1.000  C
  C39      1.0000 0.11500  0.81170  0.36610  Biso   1.000  C
  C40      1.0000 0.06850  0.83340  0.38960  Biso   1.000  C
  C41      1.0000 0.96920  0.83760  0.38940  Biso   1.000  C
  C42      1.0000 0.91760  0.86020  0.41440  Biso   1.000  C
  C43      1.0000 0.12950  0.91000  0.51230  Biso   1.000  C
  C44      1.0000 0.07920  0.89840  0.48730  Biso   1.000  C
  C45      1.0000 0.99450  0.94270  0.53300  Biso   1.000  C
  C46      1.0000 0.93820  0.93160  0.50910  Biso   1.000  C
  C47      1.0000 0.98060  0.90720  0.48630  Biso   1.000  C
  C48      1.0000 0.92490  0.89380  0.46000  Biso   1.000  C
  C49      1.0000 0.53990  0.94970  0.44880  Biso   1.000  C
  C50      1.0000 0.63450  0.93270  0.45300  Biso   1.000  C
  C51      1.0000 0.54050  0.92120  0.40140  Biso   1.000  C
  C52      1.0000 0.63280  0.90270  0.40470  Biso   1.000  C
  C53      1.0000 0.68140  0.90840  0.43100  Biso   1.000  C
  C54      1.0000 0.78430  0.89330  0.43460  Biso   1.000  C
  C55      1.0000 0.40480  0.04010  0.36630  Biso   1.000  C
  C56      1.0000 0.41620  0.08300  0.35050  Biso   1.000  C
  C57      1.0000 0.38730  0.07750  0.41010  Biso   1.000  C
  C58      1.0000 0.40150  0.12220  0.39640  Biso   1.000  C
  C59      1.0000 0.41410  0.12560  0.36630  Biso   1.000  C
  C60      1.0000 0.42610  0.17250  0.35190  Biso   1.000  C
  C61      1.0000 0.36360  0.33860  0.41610  Biso   1.000  C
  C62      1.0000 0.38000  0.29570  0.40120  Biso   1.000  C
  C63      1.0000 0.40740  0.38240  0.37580  Biso   1.000  C
  C64      1.0000 0.42520  0.34210  0.35990  Biso   1.000  C
  C65      1.0000 0.40990  0.29760  0.37240  Biso   1.000  C
  C66      1.0000 0.42430  0.25350  0.35530  Biso   1.000  C
  C67      1.0000 0.52860  0.27170  0.23940  Biso   1.000  C
  C68      1.0000 0.49230  0.26650  0.26860  Biso   1.000  C
  C69      1.0000 0.55850  0.19150  0.23650  Biso   1.000  C
  C70      1.0000 0.52040  0.18440  0.26470  Biso   1.000  C
  C71      1.0000 0.48990  0.22260  0.28080  Biso   1.000  C
  C72      1.0000 0.45890  0.21740  0.31220  Biso   1.000  C
  C73      1.0000 0.52960  0.29920  0.65710  Biso   1.000  C
  C74      1.0000 0.58110  0.32180  0.63450  Biso   1.000  C
  C75      1.0000 0.38500  0.31170  0.63390  Biso   1.000  C
  C76      1.0000 0.43150  0.33340  0.61040  Biso   1.000  C
  C77      1.0000 0.53080  0.33760  0.61060  Biso   1.000  C
  C78      1.0000 0.58240  0.36020  0.58560  Biso   1.000  C
  C79      1.0000 0.37050  0.41000  0.48770  Biso   1.000  C
  C80      1.0000 0.42080  0.39840  0.51270  Biso   1.000  C
  C81      1.0000 0.50550  0.44270  0.46700  Biso   1.000  C
  C82      1.0000 0.56180  0.43160  0.49090  Biso   1.000  C
  C83      1.0000 0.51940  0.40720  0.51370  Biso   1.000  C
  C84      1.0000 0.57510  0.39380  0.54000  Biso   1.000  C
  C85      1.0000 0.96010  0.44970  0.55120  Biso   1.000  C
  C86      1.0000 0.86550  0.43270  0.54700  Biso   1.000  C
  C87      1.0000 0.95950  0.42120  0.59860  Biso   1.000  C
  C88      1.0000 0.86720  0.40270  0.59530  Biso   1.000  C
  C89      1.0000 0.81860  0.40840  0.56900  Biso   1.000  C
  C90      1.0000 0.71570  0.39330  0.56540  Biso   1.000  C
  C91      1.0000 0.09520  0.54010  0.63370  Biso   1.000  C
  C92      1.0000 0.08380  0.58300  0.64950  Biso   1.000  C
  C93      1.0000 0.11270  0.57750  0.58990  Biso   1.000  C
  C94      1.0000 0.09850  0.62220  0.60360  Biso   1.000  C
  C95      1.0000 0.08590  0.62560  0.63370  Biso   1.000  C
  C96      1.0000 0.07390  0.67250  0.64810  Biso   1.000  C
  C97      1.0000 0.13640  0.83860  0.58390  Biso   1.000  C
  C98      1.0000 0.12000  0.79570  0.59880  Biso   1.000  C
  C99      1.0000 0.09260  0.88240  0.62420  Biso   1.000  C
  C100     1.0000 0.07480  0.84210  0.64010  Biso   1.000  C
  C101     1.0000 0.09010  0.79760  0.62760  Biso   1.000  C
  C102     1.0000 0.07570  0.75350  0.64470  Biso   1.000  C
  C103     1.0000 0.97140  0.77170  0.76060  Biso   1.000  C
  C104     1.0000 0.00770  0.76650  0.73140  Biso   1.000  C
  C105     1.0000 0.94150  0.69150  0.76350  Biso   1.000  C
  C106     1.0000 0.97960  0.68440  0.73530  Biso   1.000  C
  C107     1.0000 0.01010  0.72260  0.71920  Biso   1.000  C
  C108     1.0000 0.04110  0.71740  0.68780  Biso   1.000  C
  C109     1.0000 0.47040  0.20080  0.15710  Biso   1.000  C
  C110     1.0000 0.41890  0.17820  0.13450  Biso   1.000  C
  C111     1.0000 0.61500  0.18830  0.13390  Biso   1.000  C
  C112     1.0000 0.56850  0.16660  0.11040  Biso   1.000  C
  C113     1.0000 0.46920  0.16240  0.11060  Biso   1.000  C
  C114     1.0000 0.41760  0.13980  0.08560  Biso   1.000  C
  C115     1.0000 0.62950  0.09000  0.98770  Biso   1.000  C
  C116     1.0000 0.57920  0.10160  0.01270  Biso   1.000  C
  C117     1.0000 0.49450  0.05730  0.96700  Biso   1.000  C
  C118     1.0000 0.43820  0.06840  0.99090  Biso   1.000  C
  C119     1.0000 0.48060  0.09280  0.01370  Biso   1.000  C
  C120     1.0000 0.42490  0.10620  0.04000  Biso   1.000  C
  C121     1.0000 0.03990  0.05030  0.05120  Biso   1.000  C
  C122     1.0000 0.13450  0.06730  0.04700  Biso   1.000  C
  C123     1.0000 0.04050  0.07880  0.09860  Biso   1.000  C
  C124     1.0000 0.13280  0.09730  0.09530  Biso   1.000  C
  C125     1.0000 0.18140  0.09160  0.06900  Biso   1.000  C
  C126     1.0000 0.28430  0.10670  0.06540  Biso   1.000  C
  C127     1.0000 0.90480  0.95990  0.13370  Biso   1.000  C
  C128     1.0000 0.91620  0.91700  0.14950  Biso   1.000  C
  C129     1.0000 0.88730  0.92250  0.08990  Biso   1.000  C
  C130     1.0000 0.90150  0.87780  0.10360  Biso   1.000  C
  C131     1.0000 0.91410  0.87440  0.13370  Biso   1.000  C
  C132     1.0000 0.92610  0.82750  0.14810  Biso   1.000  C
  C133     1.0000 0.86360  0.66140  0.08390  Biso   1.000  C
  C134     1.0000 0.88000  0.70430  0.09880  Biso   1.000  C
  C135     1.0000 0.90740  0.61760  0.12420  Biso   1.000  C
  C136     1.0000 0.92520  0.65790  0.14010  Biso   1.000  C
  C137     1.0000 0.90990  0.70240  0.12760  Biso   1.000  C
  C138     1.0000 0.92430  0.74650  0.14470  Biso   1.000  C
  C139     1.0000 0.02860  0.72830  0.26060  Biso   1.000  C
  C140     1.0000 0.99230  0.73350  0.23140  Biso   1.000  C
  C141     1.0000 0.05850  0.80850  0.26350  Biso   1.000  C
  C142     1.0000 0.02040  0.81560  0.23530  Biso   1.000  C
  C143     1.0000 0.98990  0.77740  0.21920  Biso   1.000  C
  C144     1.0000 0.95890  0.78260  0.18780  Biso   1.000  C
  I1       1.0000 0.69599  0.70065  0.80357  Biso   1.000  I
  I2       1.0000 0.85385  0.83149  0.82768  Biso   1.000  I
  I3       1.0000 0.72597  0.57926  0.87788  Biso   1.000  I
  I4       1.0000 0.71542  0.50721  0.96577  Biso   1.000  I
  I5       1.0000 0.84517  0.06894  0.93552  Biso   1.000  I
  I6       1.0000 0.58365  0.98882  0.89813  Biso   1.000  I
  I7       1.0000 0.30401  0.79935  0.30357  Biso   1.000  I
  I8       1.0000 0.14615  0.66851  0.32768  Biso   1.000  I
  I9       1.0000 0.27403  0.92074  0.37788  Biso   1.000  I
  I10      1.0000 0.28458  0.99279  0.46577  Biso   1.000  I
  I11      1.0000 0.15483  0.43106  0.43552  Biso   1.000  I
  I12      1.0000 0.41635  0.51118  0.39813  Biso   1.000  I
  I13      1.0000 0.19599  0.29935  0.69643  Biso   1.000  I
  I14      1.0000 0.35385  0.16851  0.67232  Biso   1.000  I
  I15      1.0000 0.22597  0.42074  0.62212  Biso   1.000  I
  I16      1.0000 0.21542  0.49279  0.53423  Biso   1.000  I
  I17      1.0000 0.34517  0.93106  0.56448  Biso   1.000  I
  I18      1.0000 0.08365  0.01118  0.60187  Biso   1.000  I
  I19      1.0000 0.80401  0.20065  0.19643  Biso   1.000  I
  I20      1.0000 0.64615  0.33149  0.17232  Biso   1.000  I
  I21      1.0000 0.77403  0.07926  0.12212  Biso   1.000  I
  I22      1.0000 0.78458  0.00721  0.03423  Biso   1.000  I
  I23      1.0000 0.65483  0.56894  0.06448  Biso   1.000  I
  I24      1.0000 0.91635  0.48882  0.10187  Biso   1.000  I
  N1       1.0000 0.93290  0.70590  0.84320  Biso   1.000  N
  N2       1.0000 0.91030  0.56750  0.03500  Biso   1.000  N
  N3       1.0000 0.50580  0.55580  0.92300  Biso   1.000  N
  N4       1.0000 0.02860  0.62840  0.93763  Biso   1.000  N
  N5       1.0000 0.17050  0.59480  0.95886  Biso   1.000  N
  N6       1.0000 0.17760  0.62980  0.91190  Biso   1.000  N
  N7       1.0000 0.61330  0.46220  0.89480  Biso   1.000  N
  N8       1.0000 0.62370  0.11870  0.90413  Biso   1.000  N
  N9       1.0000 0.43890  0.26550  0.72478  Biso   1.000  N
  N10      1.0000 0.58670  0.28870  0.86850  Biso   1.000  N
  N11      1.0000 0.55320  0.24140  0.82687  Biso   1.000  N
  N12      1.0000 0.55110  0.32650  0.82338  Biso   1.000  N
  N13      1.0000 0.06710  0.79410  0.34320  Biso   1.000  N
  N14      1.0000 0.08970  0.93250  0.53500  Biso   1.000  N
  N15      1.0000 0.49420  0.94420  0.42300  Biso   1.000  N
  N16      1.0000 0.97140  0.87160  0.43763  Biso   1.000  N
  N17      1.0000 0.82950  0.90520  0.45886  Biso   1.000  N
  N18      1.0000 0.82240  0.87020  0.41190  Biso   1.000  N
  N19      1.0000 0.38670  0.03780  0.39480  Biso   1.000  N
  N20      1.0000 0.37630  0.38130  0.40413  Biso   1.000  N
  N21      1.0000 0.56110  0.23450  0.22478  Biso   1.000  N
  N22      1.0000 0.41330  0.21130  0.36850  Biso   1.000  N
  N23      1.0000 0.44680  0.25860  0.32687  Biso   1.000  N
  N24      1.0000 0.44890  0.17350  0.32338  Biso   1.000  N
  N25      1.0000 0.43290  0.29410  0.65680  Biso   1.000  N
  N26      1.0000 0.41030  0.43250  0.46500  Biso   1.000  N
  N27      1.0000 0.00580  0.44420  0.57700  Biso   1.000  N
  N28      1.0000 0.52860  0.37160  0.56237  Biso   1.000  N
  N29      1.0000 0.67050  0.40520  0.54114  Biso   1.000  N
  N30      1.0000 0.67760  0.37020  0.58810  Biso   1.000  N
  N31      1.0000 0.11330  0.53780  0.60520  Biso   1.000  N
  N32      1.0000 0.12370  0.88130  0.59587  Biso   1.000  N
  N33      1.0000 0.93890  0.73450  0.77522  Biso   1.000  N
  N34      1.0000 0.08670  0.71130  0.63150  Biso   1.000  N
  N35      1.0000 0.05320  0.75860  0.67313  Biso   1.000  N
  N36      1.0000 0.05110  0.67350  0.67662  Biso   1.000  N
  N37      1.0000 0.56710  0.20590  0.15680  Biso   1.000  N
  N38      1.0000 0.58970  0.06750  0.96500  Biso   1.000  N
  N39      1.0000 0.99420  0.05580  0.07700  Biso   1.000  N
  N40      1.0000 0.47140  0.12840  0.06237  Biso   1.000  N
  N41      1.0000 0.32950  0.09480  0.04114  Biso   1.000  N
  N42      1.0000 0.32240  0.12980  0.08810  Biso   1.000  N
  N43      1.0000 0.88670  0.96220  0.10520  Biso   1.000  N
  N44      1.0000 0.87630  0.61870  0.09587  Biso   1.000  N
  N45      1.0000 0.06110  0.76550  0.27522  Biso   1.000  N
  N46      1.0000 0.91330  0.78870  0.13150  Biso   1.000  N
  N47      1.0000 0.94680  0.74140  0.17313  Biso   1.000  N
  N48      1.0000 0.94890  0.82650  0.17662  Biso   1.000  N
  Zn13     1.0000 0.14327  0.25609  0.18718  Biso   1.000  Zn
  Zn14     1.0000 0.35769  0.47300  0.08426  Biso   1.000  Zn
  Zn15     1.0000 0.33559  0.94336  0.07388  Biso   1.000  Zn
  Zn16     1.0000 0.85673  0.24391  0.68718  Biso   1.000  Zn
  Zn17     1.0000 0.64231  0.02700  0.58426  Biso   1.000  Zn
  Zn18     1.0000 0.66441  0.55664  0.57388  Biso   1.000  Zn
  Zn19     1.0000 0.64327  0.74391  0.31282  Biso   1.000  Zn
  Zn20     1.0000 0.85769  0.52700  0.41574  Biso   1.000  Zn
  Zn21     1.0000 0.83559  0.05664  0.42612  Biso   1.000  Zn
  Zn22     1.0000 0.35673  0.75609  0.81282  Biso   1.000  Zn
  Zn23     1.0000 0.14231  0.97300  0.91574  Biso   1.000  Zn
  Zn24     1.0000 0.16441  0.44336  0.92612  Biso   1.000  Zn
  H97      1.0000 0.93500  0.28690  0.17350  Biso   1.000  H
  H98      1.0000 0.85040  0.32590  0.13570  Biso   1.000  H
  H99      1.0000 0.18400  0.30940  0.13370  Biso   1.000  H
  H100     1.0000 0.10510  0.34530  0.09420  Biso   1.000  H
  H101     1.0000 0.19640  0.40150  0.98660  Biso   1.000  H
  H102     1.0000 0.11170  0.38440  0.02910  Biso   1.000  H
  H103     1.0000 0.96430  0.45860  0.95090  Biso   1.000  H
  H104     1.0000 0.87150  0.44050  0.99170  Biso   1.000  H
  H105     1.0000 0.50730  0.46540  0.03550  Biso   1.000  H
  H106     1.0000 0.66640  0.43800  0.02870  Biso   1.000  H
  H107     1.0000 0.50850  0.41740  0.11700  Biso   1.000  H
  H108     1.0000 0.66310  0.38610  0.11110  Biso   1.000  H
  H109     1.0000 0.41050  0.51070  0.14420  Biso   1.000  H
  H110     1.0000 0.42490  0.58290  0.17020  Biso   1.000  H
  H111     1.0000 0.37800  0.57620  0.06920  Biso   1.000  H
  H112     1.0000 0.40250  0.65060  0.09200  Biso   1.000  H
  H113     1.0000 0.34220  0.83700  0.06410  Biso   1.000  H
  H114     1.0000 0.37080  0.76570  0.08930  Biso   1.000  H
  H115     1.0000 0.41720  0.91280  0.13330  Biso   1.000  H
  H116     1.0000 0.44810  0.84460  0.15980  Biso   1.000  H
  H117     1.0000 0.52920  0.80260  0.26950  Biso   1.000  H
  H118     1.0000 0.47010  0.79370  0.22070  Biso   1.000  H
  H119     1.0000 0.58290  0.66480  0.27430  Biso   1.000  H
  H120     1.0000 0.51580  0.65280  0.22750  Biso   1.000  H
  H121     1.0000 0.06500  0.21310  0.67350  Biso   1.000  H
  H122     1.0000 0.14960  0.17410  0.63570  Biso   1.000  H
  H123     1.0000 0.81600  0.19060  0.63370  Biso   1.000  H
  H124     1.0000 0.89490  0.15470  0.59420  Biso   1.000  H
  H125     1.0000 0.80360  0.09850  0.48660  Biso   1.000  H
  H126     1.0000 0.88830  0.11560  0.52910  Biso   1.000  H
  H127     1.0000 0.03570  0.04140  0.45090  Biso   1.000  H
  H128     1.0000 0.12850  0.05950  0.49170  Biso   1.000  H
  H129     1.0000 0.49270  0.03460  0.53550  Biso   1.000  H
  H130     1.0000 0.33360  0.06200  0.52870  Biso   1.000  H
  H131     1.0000 0.49150  0.08260  0.61700  Biso   1.000  H
  H132     1.0000 0.33690  0.11390  0.61110  Biso   1.000  H
  H133     1.0000 0.58950  0.98930  0.64420  Biso   1.000  H
  H134     1.0000 0.57510  0.91710  0.67020  Biso   1.000  H
  H135     1.0000 0.62200  0.92380  0.56920  Biso   1.000  H
  H136     1.0000 0.59750  0.84940  0.59200  Biso   1.000  H
  H137     1.0000 0.65780  0.66300  0.56410  Biso   1.000  H
  H138     1.0000 0.62920  0.73430  0.58930  Biso   1.000  H
  H139     1.0000 0.58280  0.58720  0.63330  Biso   1.000  H
  H140     1.0000 0.55190  0.65540  0.65980  Biso   1.000  H
  H141     1.0000 0.47080  0.69740  0.76950  Biso   1.000  H
  H142     1.0000 0.52990  0.70630  0.72070  Biso   1.000  H
  H143     1.0000 0.41710  0.83520  0.77430  Biso   1.000  H
  H144     1.0000 0.48420  0.84720  0.72750  Biso   1.000  H
  H145     1.0000 0.43500  0.71310  0.32650  Biso   1.000  H
  H146     1.0000 0.35040  0.67410  0.36430  Biso   1.000  H
  H147     1.0000 0.68400  0.69060  0.36630  Biso   1.000  H
  H148     1.0000 0.60510  0.65470  0.40580  Biso   1.000  H
  H149     1.0000 0.69640  0.59850  0.51340  Biso   1.000  H
  H150     1.0000 0.61170  0.61560  0.47090  Biso   1.000  H
  H151     1.0000 0.46430  0.54140  0.54910  Biso   1.000  H
  H152     1.0000 0.37150  0.55950  0.50830  Biso   1.000  H
  H153     1.0000 0.00730  0.53460  0.46450  Biso   1.000  H
  H154     1.0000 0.16640  0.56200  0.47130  Biso   1.000  H
  H155     1.0000 0.00850  0.58260  0.38300  Biso   1.000  H
  H156     1.0000 0.16310  0.61390  0.38890  Biso   1.000  H
  H157     1.0000 0.91050  0.48930  0.35580  Biso   1.000  H
  H158     1.0000 0.92490  0.41710  0.32980  Biso   1.000  H
  H159     1.0000 0.87800  0.42380  0.43080  Biso   1.000  H
  H160     1.0000 0.90250  0.34940  0.40800  Biso   1.000  H
  H161     1.0000 0.84220  0.16300  0.43590  Biso   1.000  H
  H162     1.0000 0.87080  0.23430  0.41070  Biso   1.000  H
  H163     1.0000 0.91720  0.08720  0.36670  Biso   1.000  H
  H164     1.0000 0.94810  0.15540  0.34020  Biso   1.000  H
  H165     1.0000 0.02920  0.19740  0.23050  Biso   1.000  H
  H166     1.0000 0.97010  0.20630  0.27930  Biso   1.000  H
  H167     1.0000 0.08290  0.33520  0.22570  Biso   1.000  H
  H168     1.0000 0.01580  0.34720  0.27250  Biso   1.000  H
  H169     1.0000 0.56500  0.78690  0.82650  Biso   1.000  H
  H170     1.0000 0.64960  0.82590  0.86430  Biso   1.000  H
  H171     1.0000 0.31600  0.80940  0.86630  Biso   1.000  H
  H172     1.0000 0.39490  0.84530  0.90580  Biso   1.000  H
  H173     1.0000 0.30360  0.90150  0.01340  Biso   1.000  H
  H174     1.0000 0.38830  0.88440  0.97090  Biso   1.000  H
  H175     1.0000 0.53570  0.95860  0.04910  Biso   1.000  H
  H176     1.0000 0.62850  0.94050  0.00830  Biso   1.000  H
  H177     1.0000 0.99270  0.96540  0.96450  Biso   1.000  H
  H178     1.0000 0.83360  0.93800  0.97130  Biso   1.000  H
  H179     1.0000 0.99150  0.91740  0.88300  Biso   1.000  H
  H180     1.0000 0.83690  0.88610  0.88890  Biso   1.000  H
  H181     1.0000 0.08950  0.01070  0.85580  Biso   1.000  H
  H182     1.0000 0.07510  0.08290  0.82980  Biso   1.000  H
  H183     1.0000 0.12200  0.07620  0.93080  Biso   1.000  H
  H184     1.0000 0.09750  0.15060  0.90800  Biso   1.000  H
  H185     1.0000 0.15780  0.33700  0.93590  Biso   1.000  H
  H186     1.0000 0.12920  0.26570  0.91070  Biso   1.000  H
  H187     1.0000 0.08280  0.41280  0.86670  Biso   1.000  H
  H188     1.0000 0.05190  0.34460  0.84020  Biso   1.000  H
  H189     1.0000 0.97080  0.30260  0.73050  Biso   1.000  H
  H190     1.0000 0.02990  0.29370  0.77930  Biso   1.000  H
  H191     1.0000 0.91710  0.16480  0.72570  Biso   1.000  H
  H192     1.0000 0.98420  0.15280  0.77250  Biso   1.000  H
  C145     1.0000 0.97040  0.29920  0.15710  Biso   1.000  C
  C146     1.0000 0.91890  0.32180  0.13450  Biso   1.000  C
  C147     1.0000 0.11500  0.31170  0.13390  Biso   1.000  C
  C148     1.0000 0.06850  0.33340  0.11040  Biso   1.000  C
  C149     1.0000 0.96920  0.33760  0.11060  Biso   1.000  C
  C150     1.0000 0.91760  0.36020  0.08560  Biso   1.000  C
  C151     1.0000 0.12950  0.41000  0.98770  Biso   1.000  C
  C152     1.0000 0.07920  0.39840  0.01270  Biso   1.000  C
  C153     1.0000 0.99450  0.44270  0.96700  Biso   1.000  C
  C154     1.0000 0.93820  0.43160  0.99090  Biso   1.000  C
  C155     1.0000 0.98060  0.40720  0.01370  Biso   1.000  C
  C156     1.0000 0.92490  0.39380  0.04000  Biso   1.000  C
  C157     1.0000 0.53990  0.44970  0.05120  Biso   1.000  C
  C158     1.0000 0.63450  0.43270  0.04700  Biso   1.000  C
  C159     1.0000 0.54050  0.42120  0.09860  Biso   1.000  C
  C160     1.0000 0.63280  0.40270  0.09530  Biso   1.000  C
  C161     1.0000 0.68140  0.40840  0.06900  Biso   1.000  C
  C162     1.0000 0.78430  0.39330  0.06540  Biso   1.000  C
  C163     1.0000 0.40480  0.54010  0.13370  Biso   1.000  C
  C164     1.0000 0.41620  0.58300  0.14950  Biso   1.000  C
  C165     1.0000 0.38730  0.57750  0.08990  Biso   1.000  C
  C166     1.0000 0.40150  0.62220  0.10360  Biso   1.000  C
  C167     1.0000 0.41410  0.62560  0.13370  Biso   1.000  C
  C168     1.0000 0.42610  0.67250  0.14810  Biso   1.000  C
  C169     1.0000 0.36360  0.83860  0.08390  Biso   1.000  C
  C170     1.0000 0.38000  0.79570  0.09880  Biso   1.000  C
  C171     1.0000 0.40740  0.88240  0.12420  Biso   1.000  C
  C172     1.0000 0.42520  0.84210  0.14010  Biso   1.000  C
  C173     1.0000 0.40990  0.79760  0.12760  Biso   1.000  C
  C174     1.0000 0.42430  0.75350  0.14470  Biso   1.000  C
  C175     1.0000 0.52860  0.77170  0.26060  Biso   1.000  C
  C176     1.0000 0.49230  0.76650  0.23140  Biso   1.000  C
  C177     1.0000 0.55850  0.69150  0.26350  Biso   1.000  C
  C178     1.0000 0.52040  0.68440  0.23530  Biso   1.000  C
  C179     1.0000 0.48990  0.72260  0.21920  Biso   1.000  C
  C180     1.0000 0.45890  0.71740  0.18780  Biso   1.000  C
  C181     1.0000 0.02960  0.20080  0.65710  Biso   1.000  C
  C182     1.0000 0.08110  0.17820  0.63450  Biso   1.000  C
  C183     1.0000 0.88500  0.18830  0.63390  Biso   1.000  C
  C184     1.0000 0.93150  0.16660  0.61040  Biso   1.000  C
  C185     1.0000 0.03080  0.16240  0.61060  Biso   1.000  C
  C186     1.0000 0.08240  0.13980  0.58560  Biso   1.000  C
  C187     1.0000 0.87050  0.09000  0.48770  Biso   1.000  C
  C188     1.0000 0.92080  0.10160  0.51270  Biso   1.000  C
  C189     1.0000 0.00550  0.05730  0.46700  Biso   1.000  C
  C190     1.0000 0.06180  0.06840  0.49090  Biso   1.000  C
  C191     1.0000 0.01940  0.09280  0.51370  Biso   1.000  C
  C192     1.0000 0.07510  0.10620  0.54000  Biso   1.000  C
  C193     1.0000 0.46010  0.05030  0.55120  Biso   1.000  C
  C194     1.0000 0.36550  0.06730  0.54700  Biso   1.000  C
  C195     1.0000 0.45950  0.07880  0.59860  Biso   1.000  C
  C196     1.0000 0.36720  0.09730  0.59530  Biso   1.000  C
  C197     1.0000 0.31860  0.09160  0.56900  Biso   1.000  C
  C198     1.0000 0.21570  0.10670  0.56540  Biso   1.000  C
  C199     1.0000 0.59520  0.95990  0.63370  Biso   1.000  C
  C200     1.0000 0.58380  0.91700  0.64950  Biso   1.000  C
  C201     1.0000 0.61270  0.92250  0.58990  Biso   1.000  C
  C202     1.0000 0.59850  0.87780  0.60360  Biso   1.000  C
  C203     1.0000 0.58590  0.87440  0.63370  Biso   1.000  C
  C204     1.0000 0.57390  0.82750  0.64810  Biso   1.000  C
  C205     1.0000 0.63640  0.66140  0.58390  Biso   1.000  C
  C206     1.0000 0.62000  0.70430  0.59880  Biso   1.000  C
  C207     1.0000 0.59260  0.61760  0.62420  Biso   1.000  C
  C208     1.0000 0.57480  0.65790  0.64010  Biso   1.000  C
  C209     1.0000 0.59010  0.70240  0.62760  Biso   1.000  C
  C210     1.0000 0.57570  0.74650  0.64470  Biso   1.000  C
  C211     1.0000 0.47140  0.72830  0.76060  Biso   1.000  C
  C212     1.0000 0.50770  0.73350  0.73140  Biso   1.000  C
  C213     1.0000 0.44150  0.80850  0.76350  Biso   1.000  C
  C214     1.0000 0.47960  0.81560  0.73530  Biso   1.000  C
  C215     1.0000 0.51010  0.77740  0.71920  Biso   1.000  C
  C216     1.0000 0.54110  0.78260  0.68780  Biso   1.000  C
  C217     1.0000 0.47040  0.70080  0.34290  Biso   1.000  C
  C218     1.0000 0.41890  0.67820  0.36550  Biso   1.000  C
  C219     1.0000 0.61500  0.68830  0.36610  Biso   1.000  C
  C220     1.0000 0.56850  0.66660  0.38960  Biso   1.000  C
  C221     1.0000 0.46920  0.66240  0.38940  Biso   1.000  C
  C222     1.0000 0.41760  0.63980  0.41440  Biso   1.000  C
  C223     1.0000 0.62950  0.59000  0.51230  Biso   1.000  C
  C224     1.0000 0.57920  0.60160  0.48730  Biso   1.000  C
  C225     1.0000 0.49450  0.55730  0.53300  Biso   1.000  C
  C226     1.0000 0.43820  0.56840  0.50910  Biso   1.000  C
  C227     1.0000 0.48060  0.59280  0.48630  Biso   1.000  C
  C228     1.0000 0.42490  0.60620  0.46000  Biso   1.000  C
  C229     1.0000 0.03990  0.55030  0.44880  Biso   1.000  C
  C230     1.0000 0.13450  0.56730  0.45300  Biso   1.000  C
  C231     1.0000 0.04050  0.57880  0.40140  Biso   1.000  C
  C232     1.0000 0.13280  0.59730  0.40470  Biso   1.000  C
  C233     1.0000 0.18140  0.59160  0.43100  Biso   1.000  C
  C234     1.0000 0.28430  0.60670  0.43460  Biso   1.000  C
  C235     1.0000 0.90480  0.45990  0.36630  Biso   1.000  C
  C236     1.0000 0.91620  0.41700  0.35050  Biso   1.000  C
  C237     1.0000 0.88730  0.42250  0.41010  Biso   1.000  C
  C238     1.0000 0.90150  0.37780  0.39640  Biso   1.000  C
  C239     1.0000 0.91410  0.37440  0.36630  Biso   1.000  C
  C240     1.0000 0.92610  0.32750  0.35190  Biso   1.000  C
  C241     1.0000 0.86360  0.16140  0.41610  Biso   1.000  C
  C242     1.0000 0.88000  0.20430  0.40120  Biso   1.000  C
  C243     1.0000 0.90740  0.11760  0.37580  Biso   1.000  C
  C244     1.0000 0.92520  0.15790  0.35990  Biso   1.000  C
  C245     1.0000 0.90990  0.20240  0.37240  Biso   1.000  C
  C246     1.0000 0.92430  0.24650  0.35530  Biso   1.000  C
  C247     1.0000 0.02860  0.22830  0.23940  Biso   1.000  C
  C248     1.0000 0.99230  0.23350  0.26860  Biso   1.000  C
  C249     1.0000 0.05850  0.30850  0.23650  Biso   1.000  C
  C250     1.0000 0.02040  0.31560  0.26470  Biso   1.000  C
  C251     1.0000 0.98990  0.27740  0.28080  Biso   1.000  C
  C252     1.0000 0.95890  0.28260  0.31220  Biso   1.000  C
  C253     1.0000 0.52960  0.79920  0.84290  Biso   1.000  C
  C254     1.0000 0.58110  0.82180  0.86550  Biso   1.000  C
  C255     1.0000 0.38500  0.81170  0.86610  Biso   1.000  C
  C256     1.0000 0.43150  0.83340  0.88960  Biso   1.000  C
  C257     1.0000 0.53080  0.83760  0.88940  Biso   1.000  C
  C258     1.0000 0.58240  0.86020  0.91440  Biso   1.000  C
  C259     1.0000 0.37050  0.91000  0.01230  Biso   1.000  C
  C260     1.0000 0.42080  0.89840  0.98730  Biso   1.000  C
  C261     1.0000 0.50550  0.94270  0.03300  Biso   1.000  C
  C262     1.0000 0.56180  0.93160  0.00910  Biso   1.000  C
  C263     1.0000 0.51940  0.90720  0.98630  Biso   1.000  C
  C264     1.0000 0.57510  0.89380  0.96000  Biso   1.000  C
  C265     1.0000 0.96010  0.94970  0.94880  Biso   1.000  C
  C266     1.0000 0.86550  0.93270  0.95300  Biso   1.000  C
  C267     1.0000 0.95950  0.92120  0.90140  Biso   1.000  C
  C268     1.0000 0.86720  0.90270  0.90470  Biso   1.000  C
  C269     1.0000 0.81860  0.90840  0.93100  Biso   1.000  C
  C270     1.0000 0.71570  0.89330  0.93460  Biso   1.000  C
  C271     1.0000 0.09520  0.04010  0.86630  Biso   1.000  C
  C272     1.0000 0.08380  0.08300  0.85050  Biso   1.000  C
  C273     1.0000 0.11270  0.07750  0.91010  Biso   1.000  C
  C274     1.0000 0.09850  0.12220  0.89640  Biso   1.000  C
  C275     1.0000 0.08590  0.12560  0.86630  Biso   1.000  C
  C276     1.0000 0.07390  0.17250  0.85190  Biso   1.000  C
  C277     1.0000 0.13640  0.33860  0.91610  Biso   1.000  C
  C278     1.0000 0.12000  0.29570  0.90120  Biso   1.000  C
  C279     1.0000 0.09260  0.38240  0.87580  Biso   1.000  C
  C280     1.0000 0.07480  0.34210  0.85990  Biso   1.000  C
  C281     1.0000 0.09010  0.29760  0.87240  Biso   1.000  C
  C282     1.0000 0.07570  0.25350  0.85530  Biso   1.000  C
  C283     1.0000 0.97140  0.27170  0.73940  Biso   1.000  C
  C284     1.0000 0.00770  0.26650  0.76860  Biso   1.000  C
  C285     1.0000 0.94150  0.19150  0.73650  Biso   1.000  C
  C286     1.0000 0.97960  0.18440  0.76470  Biso   1.000  C
  C287     1.0000 0.01010  0.22260  0.78080  Biso   1.000  C
  C288     1.0000 0.04110  0.21740  0.81220  Biso   1.000  C
  I25      1.0000 0.30401  0.29935  0.19643  Biso   1.000  I
  I26      1.0000 0.14615  0.16851  0.17232  Biso   1.000  I
  I27      1.0000 0.27403  0.42074  0.12212  Biso   1.000  I
  I28      1.0000 0.28458  0.49279  0.03423  Biso   1.000  I
  I29      1.0000 0.15483  0.93106  0.06448  Biso   1.000  I
  I30      1.0000 0.41635  0.01118  0.10187  Biso   1.000  I
  I31      1.0000 0.69599  0.20065  0.69643  Biso   1.000  I
  I32      1.0000 0.85385  0.33149  0.67232  Biso   1.000  I
  I33      1.0000 0.72597  0.07926  0.62212  Biso   1.000  I
  I34      1.0000 0.71542  0.00721  0.53423  Biso   1.000  I
  I35      1.0000 0.84517  0.56894  0.56448  Biso   1.000  I
  I36      1.0000 0.58365  0.48882  0.60187  Biso   1.000  I
  I37      1.0000 0.80401  0.70065  0.30357  Biso   1.000  I
  I38      1.0000 0.64615  0.83149  0.32768  Biso   1.000  I
  I39      1.0000 0.77403  0.57926  0.37788  Biso   1.000  I
  I40      1.0000 0.78458  0.50721  0.46577  Biso   1.000  I
  I41      1.0000 0.65483  0.06894  0.43552  Biso   1.000  I
  I42      1.0000 0.91635  0.98882  0.39813  Biso   1.000  I
  I43      1.0000 0.19599  0.79935  0.80357  Biso   1.000  I
  I44      1.0000 0.35385  0.66851  0.82768  Biso   1.000  I
  I45      1.0000 0.22597  0.92074  0.87788  Biso   1.000  I
  I46      1.0000 0.21542  0.99279  0.96577  Biso   1.000  I
  I47      1.0000 0.34517  0.43106  0.93552  Biso   1.000  I
  I48      1.0000 0.08365  0.51118  0.89813  Biso   1.000  I
  N49      1.0000 0.06710  0.29410  0.15680  Biso   1.000  N
  N50      1.0000 0.08970  0.43250  0.96500  Biso   1.000  N
  N51      1.0000 0.49420  0.44420  0.07700  Biso   1.000  N
  N52      1.0000 0.97140  0.37160  0.06237  Biso   1.000  N
  N53      1.0000 0.82950  0.40520  0.04114  Biso   1.000  N
  N54      1.0000 0.82240  0.37020  0.08810  Biso   1.000  N
  N55      1.0000 0.38670  0.53780  0.10520  Biso   1.000  N
  N56      1.0000 0.37630  0.88130  0.09587  Biso   1.000  N
  N57      1.0000 0.56110  0.73450  0.27522  Biso   1.000  N
  N58      1.0000 0.41330  0.71130  0.13150  Biso   1.000  N
  N59      1.0000 0.44680  0.75860  0.17313  Biso   1.000  N
  N60      1.0000 0.44890  0.67350  0.17662  Biso   1.000  N
  N61      1.0000 0.93290  0.20590  0.65680  Biso   1.000  N
  N62      1.0000 0.91030  0.06750  0.46500  Biso   1.000  N
  N63      1.0000 0.50580  0.05580  0.57700  Biso   1.000  N
  N64      1.0000 0.02860  0.12840  0.56237  Biso   1.000  N
  N65      1.0000 0.17050  0.09480  0.54114  Biso   1.000  N
  N66      1.0000 0.17760  0.12980  0.58810  Biso   1.000  N
  N67      1.0000 0.61330  0.96220  0.60520  Biso   1.000  N
  N68      1.0000 0.62370  0.61870  0.59587  Biso   1.000  N
  N69      1.0000 0.43890  0.76550  0.77522  Biso   1.000  N
  N70      1.0000 0.58670  0.78870  0.63150  Biso   1.000  N
  N71      1.0000 0.55320  0.74140  0.67313  Biso   1.000  N
  N72      1.0000 0.55110  0.82650  0.67662  Biso   1.000  N
  N73      1.0000 0.56710  0.70590  0.34320  Biso   1.000  N
  N74      1.0000 0.58970  0.56750  0.53500  Biso   1.000  N
  N75      1.0000 0.99420  0.55580  0.42300  Biso   1.000  N
  N76      1.0000 0.47140  0.62840  0.43763  Biso   1.000  N
  N77      1.0000 0.32950  0.59480  0.45886  Biso   1.000  N
  N78      1.0000 0.32240  0.62980  0.41190  Biso   1.000  N
  N79      1.0000 0.88670  0.46220  0.39480  Biso   1.000  N
  N80      1.0000 0.87630  0.11870  0.40413  Biso   1.000  N
  N81      1.0000 0.06110  0.26550  0.22478  Biso   1.000  N
  N82      1.0000 0.91330  0.28870  0.36850  Biso   1.000  N
  N83      1.0000 0.94680  0.24140  0.32687  Biso   1.000  N
  N84      1.0000 0.94890  0.32650  0.32338  Biso   1.000  N
  N85      1.0000 0.43290  0.79410  0.84320  Biso   1.000  N
  N86      1.0000 0.41030  0.93250  0.03500  Biso   1.000  N
  N87      1.0000 0.00580  0.94420  0.92300  Biso   1.000  N
  N88      1.0000 0.52860  0.87160  0.93763  Biso   1.000  N
  N89      1.0000 0.67050  0.90520  0.95886  Biso   1.000  N
  N90      1.0000 0.67760  0.87020  0.91190  Biso   1.000  N
  N91      1.0000 0.11330  0.03780  0.89480  Biso   1.000  N
  N92      1.0000 0.12370  0.38130  0.90413  Biso   1.000  N
  N93      1.0000 0.93890  0.23450  0.72478  Biso   1.000  N
  N94      1.0000 0.08670  0.21130  0.86850  Biso   1.000  N
  N95      1.0000 0.05320  0.25860  0.82687  Biso   1.000  N
  N96      1.0000 0.05110  0.17350  0.82338  Biso   1.000  N
