data_image0
_cell_length_a       30.438
_cell_length_b       44.985
_cell_length_c       30.3992
_cell_angle_alpha    90
_cell_angle_beta     90
_cell_angle_gamma    90

_symmetry_space_group_name_H-M    "P 1"
_symmetry_int_tables_number       1

loop_
  _symmetry_equiv_pos_as_xyz
  'x, y, z'

loop_
  _atom_site_label
  _atom_site_occupancy
  _atom_site_fract_x
  _atom_site_fract_y
  _atom_site_fract_z
  _atom_site_thermal_displace_type
  _atom_site_B_iso_or_equiv
  _atom_site_type_symbol
  Cu1      1.0000 0.49870  0.25012  0.61646  Biso   1.000  Cu
  N1       1.0000 0.26640  0.45300  0.43840  Biso   1.000  N
  N2       1.0000 0.41810  0.28970  0.59440  Biso   1.000  N
  N3       1.0000 0.52290  0.21120  0.53540  Biso   1.000  N
  N4       1.0000 0.68110  0.04930  0.38570  Biso   1.000  N
  C1       1.0000 0.25760  0.47100  0.41540  Biso   1.000  C
  C2       1.0000 0.28610  0.42890  0.46300  Biso   1.000  C
  C3       1.0000 0.32870  0.41970  0.44910  Biso   1.000  C
  C4       1.0000 0.34740  0.39700  0.47010  Biso   1.000  C
  H1       1.0000 0.37580  0.39060  0.46100  Biso   1.000  H
  C5       1.0000 0.32740  0.38240  0.50410  Biso   1.000  C
  C6       1.0000 0.28470  0.39110  0.51670  Biso   1.000  C
  H2       1.0000 0.27000  0.38010  0.53900  Biso   1.000  H
  C7       1.0000 0.26410  0.41450  0.49800  Biso   1.000  C
  C8       1.0000 0.22130  0.42580  0.51550  Biso   1.000  C
  C9       1.0000 0.22340  0.44810  0.54960  Biso   1.000  C
  C10      1.0000 0.18140  0.45720  0.56990  Biso   1.000  C
  H3       1.0000 0.18140  0.47130  0.59310  Biso   1.000  H
  C11      1.0000 0.14370  0.44580  0.55600  Biso   1.000  C
  C12      1.0000 0.14160  0.42150  0.52530  Biso   1.000  C
  H4       1.0000 0.11470  0.41240  0.51710  Biso   1.000  H
  C13      1.0000 0.18430  0.41190  0.50750  Biso   1.000  C
  C14      1.0000 0.17980  0.38450  0.47840  Biso   1.000  C
  H5       1.0000 0.14890  0.37820  0.47760  Biso   1.000  H
  H6       1.0000 0.18960  0.38930  0.44850  Biso   1.000  H
  H7       1.0000 0.19780  0.36840  0.49020  Biso   1.000  H
  C15      1.0000 0.26680  0.46070  0.56470  Biso   1.000  C
  H8       1.0000 0.26170  0.47540  0.58790  Biso   1.000  H
  H9       1.0000 0.28530  0.44470  0.57610  Biso   1.000  H
  H10      1.0000 0.28160  0.47030  0.53980  Biso   1.000  H
  C16      1.0000 0.09840  0.45590  0.57460  Biso   1.000  C
  H11      1.0000 0.07490  0.44480  0.56000  Biso   1.000  H
  H12      1.0000 0.09750  0.45210  0.60640  Biso   1.000  H
  H13      1.0000 0.09450  0.47720  0.56920  Biso   1.000  H
  C17      1.0000 0.35080  0.43450  0.41020  Biso   1.000  C
  C18      1.0000 0.36040  0.41590  0.37240  Biso   1.000  C
  C19      1.0000 0.38490  0.42810  0.33850  Biso   1.000  C
  H14      1.0000 0.39420  0.41560  0.31510  Biso   1.000  H
  C20      1.0000 0.39660  0.45890  0.33730  Biso   1.000  C
  C21      1.0000 0.39050  0.47360  0.37440  Biso   1.000  C
  H15      1.0000 0.40130  0.49330  0.37610  Biso   1.000  H
  C22      1.0000 0.36870  0.46180  0.41170  Biso   1.000  C
  C23      1.0000 0.36280  0.48200  0.45210  Biso   1.000  C
  H16      1.0000 0.37810  0.50090  0.44720  Biso   1.000  H
  H17      1.0000 0.33140  0.48580  0.45680  Biso   1.000  H
  H18      1.0000 0.37510  0.47220  0.47810  Biso   1.000  H
  C24      1.0000 0.41480  0.47210  0.29770  Biso   1.000  C
  H19      1.0000 0.41630  0.45700  0.27450  Biso   1.000  H
  H20      1.0000 0.39600  0.48850  0.28810  Biso   1.000  H
  H21      1.0000 0.44440  0.47960  0.30390  Biso   1.000  H
  C25      1.0000 0.34490  0.38390  0.36990  Biso   1.000  C
  H22      1.0000 0.32820  0.37900  0.39650  Biso   1.000  H
  H23      1.0000 0.32620  0.38130  0.34400  Biso   1.000  H
  H24      1.0000 0.37040  0.37070  0.36760  Biso   1.000  H
  C26      1.0000 0.34910  0.35700  0.52760  Biso   1.000  C
  C27      1.0000 0.38760  0.34430  0.51010  Biso   1.000  C
  H25      1.0000 0.39820  0.35080  0.48240  Biso   1.000  H
  C28      1.0000 0.40990  0.32270  0.53300  Biso   1.000  C
  C29      1.0000 0.39350  0.31160  0.57210  Biso   1.000  C
  C30      1.0000 0.35460  0.32310  0.59080  Biso   1.000  C
  C31      1.0000 0.33470  0.34600  0.56820  Biso   1.000  C
  C32      1.0000 0.33760  0.31320  0.63420  Biso   1.000  C
  C33      1.0000 0.35860  0.32110  0.67130  Biso   1.000  C
  C34      1.0000 0.34310  0.31390  0.71320  Biso   1.000  C
  H26      1.0000 0.35960  0.31930  0.73850  Biso   1.000  H
  C35      1.0000 0.30660  0.30000  0.71720  Biso   1.000  C
  C36      1.0000 0.28320  0.29190  0.67970  Biso   1.000  C
  H27      1.0000 0.25690  0.28080  0.68350  Biso   1.000  H
  C37      1.0000 0.29650  0.29940  0.63520  Biso   1.000  C
  C38      1.0000 0.26980  0.29260  0.59780  Biso   1.000  C
  H28      1.0000 0.24260  0.28290  0.60750  Biso   1.000  H
  H29      1.0000 0.26270  0.31090  0.58200  Biso   1.000  H
  H30      1.0000 0.28590  0.27910  0.57820  Biso   1.000  H
  C39      1.0000 0.40250  0.33980  0.66910  Biso   1.000  C
  H31      1.0000 0.41320  0.34350  0.69900  Biso   1.000  H
  H32      1.0000 0.42470  0.32860  0.65260  Biso   1.000  H
  H33      1.0000 0.39680  0.35880  0.65430  Biso   1.000  H
  C40      1.0000 0.28960  0.29000  0.76410  Biso   1.000  C
  H34      1.0000 0.26140  0.27970  0.76100  Biso   1.000  H
  H35      1.0000 0.31110  0.27650  0.77750  Biso   1.000  H
  H36      1.0000 0.28590  0.30750  0.78290  Biso   1.000  H
  C41      1.0000 0.45000  0.28890  0.48070  Biso   1.000  C
  C42      1.0000 0.48880  0.27670  0.46460  Biso   1.000  C
  H37      1.0000 0.48780  0.26240  0.44160  Biso   1.000  H
  C43      1.0000 0.52890  0.28530  0.48220  Biso   1.000  C
  C44      1.0000 0.53040  0.30620  0.51580  Biso   1.000  C
  H38      1.0000 0.55780  0.31220  0.52790  Biso   1.000  H
  C45      1.0000 0.49160  0.31850  0.53190  Biso   1.000  C
  C46      1.0000 0.45150  0.30980  0.51440  Biso   1.000  C
  C47      1.0000 0.40580  0.27930  0.45890  Biso   1.000  C
  H39      1.0000 0.38130  0.28950  0.47340  Biso   1.000  H
  H40      1.0000 0.40620  0.28450  0.42760  Biso   1.000  H
  H41      1.0000 0.40200  0.25770  0.46210  Biso   1.000  H
  C48      1.0000 0.57100  0.27110  0.46150  Biso   1.000  C
  H42      1.0000 0.56240  0.25700  0.43840  Biso   1.000  H
  H43      1.0000 0.58950  0.28670  0.44870  Biso   1.000  H
  H44      1.0000 0.58760  0.26060  0.48440  Biso   1.000  H
  C49      1.0000 0.49270  0.33960  0.56910  Biso   1.000  C
  H45      1.0000 0.46260  0.34600  0.57610  Biso   1.000  H
  H46      1.0000 0.50570  0.32990  0.59490  Biso   1.000  H
  H47      1.0000 0.51030  0.35700  0.56100  Biso   1.000  H
  C50      1.0000 0.44550  0.27380  0.60580  Biso   1.000  C
  C51      1.0000 0.51200  0.22740  0.56350  Biso   1.000  C
  C52      1.0000 0.54430  0.18830  0.51200  Biso   1.000  C
  C53      1.0000 0.58500  0.17890  0.53020  Biso   1.000  C
  C54      1.0000 0.60620  0.15680  0.50690  Biso   1.000  C
  H48      1.0000 0.63360  0.14990  0.51780  Biso   1.000  H
  C55      1.0000 0.59020  0.14410  0.46870  Biso   1.000  C
  C56      1.0000 0.55010  0.15490  0.45110  Biso   1.000  C
  H49      1.0000 0.53830  0.14680  0.42480  Biso   1.000  H
  C57      1.0000 0.52840  0.17750  0.47290  Biso   1.000  C
  C58      1.0000 0.48490  0.18800  0.45410  Biso   1.000  C
  C59      1.0000 0.48080  0.20190  0.41510  Biso   1.000  C
  C60      1.0000 0.43960  0.21080  0.39900  Biso   1.000  C
  H50      1.0000 0.43780  0.22260  0.37310  Biso   1.000  H
  C61      1.0000 0.40180  0.20250  0.42050  Biso   1.000  C
  C62      1.0000 0.40520  0.18630  0.45840  Biso   1.000  C
  H51      1.0000 0.37900  0.18050  0.47310  Biso   1.000  H
  C63      1.0000 0.44410  0.17830  0.47590  Biso   1.000  C
  C64      1.0000 0.44610  0.15850  0.51430  Biso   1.000  C
  H52      1.0000 0.47690  0.15510  0.52240  Biso   1.000  H
  H53      1.0000 0.43060  0.16770  0.53900  Biso   1.000  H
  H54      1.0000 0.43220  0.13950  0.50700  Biso   1.000  H
  C65      1.0000 0.52240  0.21000  0.39020  Biso   1.000  C
  H55      1.0000 0.51450  0.21990  0.36260  Biso   1.000  H
  H56      1.0000 0.54030  0.22340  0.40810  Biso   1.000  H
  H57      1.0000 0.53910  0.19190  0.38370  Biso   1.000  H
  C66      1.0000 0.36270  0.21140  0.39260  Biso   1.000  C
  H58      1.0000 0.37290  0.22310  0.36740  Biso   1.000  H
  H59      1.0000 0.34770  0.19350  0.38200  Biso   1.000  H
  H60      1.0000 0.34230  0.22320  0.41030  Biso   1.000  H
  C67      1.0000 0.60470  0.19040  0.57290  Biso   1.000  C
  C68      1.0000 0.58420  0.18220  0.61040  Biso   1.000  C
  C69      1.0000 0.54450  0.16100  0.61240  Biso   1.000  C
  H61      1.0000 0.53540  0.15840  0.64310  Biso   1.000  H
  H62      1.0000 0.52010  0.16950  0.59550  Biso   1.000  H
  H63      1.0000 0.55270  0.14170  0.59990  Biso   1.000  H
  C70      1.0000 0.60310  0.19150  0.65010  Biso   1.000  C
  H64      1.0000 0.58920  0.18650  0.67710  Biso   1.000  H
  C71      1.0000 0.64340  0.20850  0.65110  Biso   1.000  C
  C72      1.0000 0.65480  0.21780  0.61470  Biso   1.000  C
  H65      1.0000 0.67410  0.23440  0.61450  Biso   1.000  H
  C73      1.0000 0.64210  0.20620  0.57280  Biso   1.000  C
  C74      1.0000 0.66450  0.21580  0.52940  Biso   1.000  C
  H66      1.0000 0.69120  0.22710  0.53610  Biso   1.000  H
  H67      1.0000 0.67210  0.19820  0.51220  Biso   1.000  H
  H68      1.0000 0.64430  0.22830  0.51250  Biso   1.000  H
  C75      1.0000 0.66830  0.21680  0.68970  Biso   1.000  C
  H69      1.0000 0.65510  0.20770  0.71580  Biso   1.000  H
  H70      1.0000 0.69870  0.20990  0.68650  Biso   1.000  H
  H71      1.0000 0.66810  0.23850  0.69290  Biso   1.000  H
  C76      1.0000 0.61330  0.12000  0.44520  Biso   1.000  C
  C77      1.0000 0.60560  0.11140  0.40510  Biso   1.000  C
  H72      1.0000 0.58350  0.12200  0.38940  Biso   1.000  H
  C78      1.0000 0.62620  0.08880  0.38310  Biso   1.000  C
  C79      1.0000 0.66040  0.07350  0.40500  Biso   1.000  C
  C80      1.0000 0.67160  0.08180  0.44780  Biso   1.000  C
  C81      1.0000 0.64650  0.10410  0.46880  Biso   1.000  C
  H73      1.0000 0.65180  0.10850  0.49890  Biso   1.000  H
  C82      1.0000 0.70810  0.06860  0.47210  Biso   1.000  C
  C83      1.0000 0.70790  0.03970  0.48550  Biso   1.000  C
  C84      1.0000 0.74280  0.03040  0.51330  Biso   1.000  C
  H74      1.0000 0.73920  0.01280  0.53030  Biso   1.000  H
  C85      1.0000 0.78090  0.04550  0.51650  Biso   1.000  C
  C86      1.0000 0.78070  0.07360  0.50400  Biso   1.000  C
  H75      1.0000 0.80550  0.08550  0.51110  Biso   1.000  H
  C87      1.0000 0.74660  0.08670  0.48100  Biso   1.000  C
  C88      1.0000 0.75010  0.11740  0.46460  Biso   1.000  C
  H76      1.0000 0.72300  0.12280  0.44920  Biso   1.000  H
  H77      1.0000 0.75480  0.13090  0.48940  Biso   1.000  H
  H78      1.0000 0.77500  0.11880  0.44420  Biso   1.000  H
  C89      1.0000 0.66970  0.01880  0.48010  Biso   1.000  C
  H79      1.0000 0.67740  0.99930  0.49220  Biso   1.000  H
  H80      1.0000 0.64410  0.02680  0.49570  Biso   1.000  H
  H81      1.0000 0.66270  0.01680  0.44870  Biso   1.000  H
  C90      1.0000 0.82420  0.03170  0.53870  Biso   1.000  C
  H82      1.0000 0.81890  0.01080  0.54600  Biso   1.000  H
  H83      1.0000 0.84880  0.03310  0.51800  Biso   1.000  H
  H84      1.0000 0.83130  0.04280  0.56550  Biso   1.000  H
  C91      1.0000 0.60710  0.07820  0.33980  Biso   1.000  C
  C92      1.0000 0.61670  0.09190  0.30000  Biso   1.000  C
  C93      1.0000 0.59710  0.08190  0.26140  Biso   1.000  C
  H85      1.0000 0.60370  0.09130  0.23420  Biso   1.000  H
  C94      1.0000 0.56790  0.05820  0.26270  Biso   1.000  C
  C95      1.0000 0.55830  0.04450  0.30250  Biso   1.000  C
  H86      1.0000 0.53830  0.02820  0.30340  Biso   1.000  H
  C96      1.0000 0.57790  0.05450  0.34100  Biso   1.000  C
  C97      1.0000 0.64480  0.11850  0.30150  Biso   1.000  C
  H87      1.0000 0.63810  0.13130  0.27630  Biso   1.000  H
  H88      1.0000 0.67570  0.11250  0.30030  Biso   1.000  H
  H89      1.0000 0.63930  0.12940  0.32890  Biso   1.000  H
  C98      1.0000 0.56740  0.03760  0.38090  Biso   1.000  C
  H90      1.0000 0.55580  0.05250  0.39840  Biso   1.000  H
  H91      1.0000 0.54620  0.02120  0.37530  Biso   1.000  H
  H92      1.0000 0.59370  0.02800  0.39540  Biso   1.000  H
  C99      1.0000 0.54710  0.04910  0.21760  Biso   1.000  C
  H93      1.0000 0.52710  0.03220  0.22210  Biso   1.000  H
  H94      1.0000 0.53070  0.06590  0.20550  Biso   1.000  H
  H95      1.0000 0.57040  0.04330  0.19710  Biso   1.000  H
  C100     1.0000 0.70500  0.02970  0.37740  Biso   1.000  C
  Cu2      1.0000 0.49870  0.75012  0.11646  Biso   1.000  Cu
  N5       1.0000 0.26640  0.95300  0.93840  Biso   1.000  N
  N6       1.0000 0.41810  0.78970  0.09440  Biso   1.000  N
  N7       1.0000 0.52290  0.71120  0.03540  Biso   1.000  N
  N8       1.0000 0.68110  0.54930  0.88570  Biso   1.000  N
  C101     1.0000 0.25760  0.97100  0.91540  Biso   1.000  C
  C102     1.0000 0.28610  0.92890  0.96300  Biso   1.000  C
  C103     1.0000 0.32870  0.91970  0.94910  Biso   1.000  C
  C104     1.0000 0.34740  0.89700  0.97010  Biso   1.000  C
  H96      1.0000 0.37580  0.89060  0.96100  Biso   1.000  H
  C105     1.0000 0.32740  0.88240  0.00410  Biso   1.000  C
  C106     1.0000 0.28470  0.89110  0.01670  Biso   1.000  C
  H97      1.0000 0.27000  0.88010  0.03900  Biso   1.000  H
  C107     1.0000 0.26410  0.91450  0.99800  Biso   1.000  C
  C108     1.0000 0.22130  0.92580  0.01550  Biso   1.000  C
  C109     1.0000 0.22340  0.94810  0.04960  Biso   1.000  C
  C110     1.0000 0.18140  0.95720  0.06990  Biso   1.000  C
  H98      1.0000 0.18140  0.97130  0.09310  Biso   1.000  H
  C111     1.0000 0.14370  0.94580  0.05600  Biso   1.000  C
  C112     1.0000 0.14160  0.92150  0.02530  Biso   1.000  C
  H99      1.0000 0.11470  0.91240  0.01710  Biso   1.000  H
  C113     1.0000 0.18430  0.91190  0.00750  Biso   1.000  C
  C114     1.0000 0.17980  0.88450  0.97840  Biso   1.000  C
  H100     1.0000 0.14890  0.87820  0.97760  Biso   1.000  H
  H101     1.0000 0.18960  0.88930  0.94850  Biso   1.000  H
  H102     1.0000 0.19780  0.86840  0.99020  Biso   1.000  H
  C115     1.0000 0.26680  0.96070  0.06470  Biso   1.000  C
  H103     1.0000 0.26170  0.97540  0.08790  Biso   1.000  H
  H104     1.0000 0.28530  0.94470  0.07610  Biso   1.000  H
  H105     1.0000 0.28160  0.97030  0.03980  Biso   1.000  H
  C116     1.0000 0.09840  0.95590  0.07460  Biso   1.000  C
  H106     1.0000 0.07490  0.94480  0.06000  Biso   1.000  H
  H107     1.0000 0.09750  0.95210  0.10640  Biso   1.000  H
  H108     1.0000 0.09450  0.97720  0.06920  Biso   1.000  H
  C117     1.0000 0.35080  0.93450  0.91020  Biso   1.000  C
  C118     1.0000 0.36040  0.91590  0.87240  Biso   1.000  C
  C119     1.0000 0.38490  0.92810  0.83850  Biso   1.000  C
  H109     1.0000 0.39420  0.91560  0.81510  Biso   1.000  H
  C120     1.0000 0.39660  0.95890  0.83730  Biso   1.000  C
  C121     1.0000 0.39050  0.97360  0.87440  Biso   1.000  C
  H110     1.0000 0.40130  0.99330  0.87610  Biso   1.000  H
  C122     1.0000 0.36870  0.96180  0.91170  Biso   1.000  C
  C123     1.0000 0.36280  0.98200  0.95210  Biso   1.000  C
  H111     1.0000 0.37810  0.00090  0.94720  Biso   1.000  H
  H112     1.0000 0.33140  0.98580  0.95680  Biso   1.000  H
  H113     1.0000 0.37510  0.97220  0.97810  Biso   1.000  H
  C124     1.0000 0.41480  0.97210  0.79770  Biso   1.000  C
  H114     1.0000 0.41630  0.95700  0.77450  Biso   1.000  H
  H115     1.0000 0.39600  0.98850  0.78810  Biso   1.000  H
  H116     1.0000 0.44440  0.97960  0.80390  Biso   1.000  H
  C125     1.0000 0.34490  0.88390  0.86990  Biso   1.000  C
  H117     1.0000 0.32820  0.87900  0.89650  Biso   1.000  H
  H118     1.0000 0.32620  0.88130  0.84400  Biso   1.000  H
  H119     1.0000 0.37040  0.87070  0.86760  Biso   1.000  H
  C126     1.0000 0.34910  0.85700  0.02760  Biso   1.000  C
  C127     1.0000 0.38760  0.84430  0.01010  Biso   1.000  C
  H120     1.0000 0.39820  0.85080  0.98240  Biso   1.000  H
  C128     1.0000 0.40990  0.82270  0.03300  Biso   1.000  C
  C129     1.0000 0.39350  0.81160  0.07210  Biso   1.000  C
  C130     1.0000 0.35460  0.82310  0.09080  Biso   1.000  C
  C131     1.0000 0.33470  0.84600  0.06820  Biso   1.000  C
  C132     1.0000 0.33760  0.81320  0.13420  Biso   1.000  C
  C133     1.0000 0.35860  0.82110  0.17130  Biso   1.000  C
  C134     1.0000 0.34310  0.81390  0.21320  Biso   1.000  C
  H121     1.0000 0.35960  0.81930  0.23850  Biso   1.000  H
  C135     1.0000 0.30660  0.80000  0.21720  Biso   1.000  C
  C136     1.0000 0.28320  0.79190  0.17970  Biso   1.000  C
  H122     1.0000 0.25690  0.78080  0.18350  Biso   1.000  H
  C137     1.0000 0.29650  0.79940  0.13520  Biso   1.000  C
  C138     1.0000 0.26980  0.79260  0.09780  Biso   1.000  C
  H123     1.0000 0.24260  0.78290  0.10750  Biso   1.000  H
  H124     1.0000 0.26270  0.81090  0.08200  Biso   1.000  H
  H125     1.0000 0.28590  0.77910  0.07820  Biso   1.000  H
  C139     1.0000 0.40250  0.83980  0.16910  Biso   1.000  C
  H126     1.0000 0.41320  0.84350  0.19900  Biso   1.000  H
  H127     1.0000 0.42470  0.82860  0.15260  Biso   1.000  H
  H128     1.0000 0.39680  0.85880  0.15430  Biso   1.000  H
  C140     1.0000 0.28960  0.79000  0.26410  Biso   1.000  C
  H129     1.0000 0.26140  0.77970  0.26100  Biso   1.000  H
  H130     1.0000 0.31110  0.77650  0.27750  Biso   1.000  H
  H131     1.0000 0.28590  0.80750  0.28290  Biso   1.000  H
  C141     1.0000 0.45000  0.78890  0.98070  Biso   1.000  C
  C142     1.0000 0.48880  0.77670  0.96460  Biso   1.000  C
  H132     1.0000 0.48780  0.76240  0.94160  Biso   1.000  H
  C143     1.0000 0.52890  0.78530  0.98220  Biso   1.000  C
  C144     1.0000 0.53040  0.80620  0.01580  Biso   1.000  C
  H133     1.0000 0.55780  0.81220  0.02790  Biso   1.000  H
  C145     1.0000 0.49160  0.81850  0.03190  Biso   1.000  C
  C146     1.0000 0.45150  0.80980  0.01440  Biso   1.000  C
  C147     1.0000 0.40580  0.77930  0.95890  Biso   1.000  C
  H134     1.0000 0.38130  0.78950  0.97340  Biso   1.000  H
  H135     1.0000 0.40620  0.78450  0.92760  Biso   1.000  H
  H136     1.0000 0.40200  0.75770  0.96210  Biso   1.000  H
  C148     1.0000 0.57100  0.77110  0.96150  Biso   1.000  C
  H137     1.0000 0.56240  0.75700  0.93840  Biso   1.000  H
  H138     1.0000 0.58950  0.78670  0.94870  Biso   1.000  H
  H139     1.0000 0.58760  0.76060  0.98440  Biso   1.000  H
  C149     1.0000 0.49270  0.83960  0.06910  Biso   1.000  C
  H140     1.0000 0.46260  0.84600  0.07610  Biso   1.000  H
  H141     1.0000 0.50570  0.82990  0.09490  Biso   1.000  H
  H142     1.0000 0.51030  0.85700  0.06100  Biso   1.000  H
  C150     1.0000 0.44550  0.77380  0.10580  Biso   1.000  C
  C151     1.0000 0.51200  0.72740  0.06350  Biso   1.000  C
  C152     1.0000 0.54430  0.68830  0.01200  Biso   1.000  C
  C153     1.0000 0.58500  0.67890  0.03020  Biso   1.000  C
  C154     1.0000 0.60620  0.65680  0.00690  Biso   1.000  C
  H143     1.0000 0.63360  0.64990  0.01780  Biso   1.000  H
  C155     1.0000 0.59020  0.64410  0.96870  Biso   1.000  C
  C156     1.0000 0.55010  0.65490  0.95110  Biso   1.000  C
  H144     1.0000 0.53830  0.64680  0.92480  Biso   1.000  H
  C157     1.0000 0.52840  0.67750  0.97290  Biso   1.000  C
  C158     1.0000 0.48490  0.68800  0.95410  Biso   1.000  C
  C159     1.0000 0.48080  0.70190  0.91510  Biso   1.000  C
  C160     1.0000 0.43960  0.71080  0.89900  Biso   1.000  C
  H145     1.0000 0.43780  0.72260  0.87310  Biso   1.000  H
  C161     1.0000 0.40180  0.70250  0.92050  Biso   1.000  C
  C162     1.0000 0.40520  0.68630  0.95840  Biso   1.000  C
  H146     1.0000 0.37900  0.68050  0.97310  Biso   1.000  H
  C163     1.0000 0.44410  0.67830  0.97590  Biso   1.000  C
  C164     1.0000 0.44610  0.65850  0.01430  Biso   1.000  C
  H147     1.0000 0.47690  0.65510  0.02240  Biso   1.000  H
  H148     1.0000 0.43060  0.66770  0.03900  Biso   1.000  H
  H149     1.0000 0.43220  0.63950  0.00700  Biso   1.000  H
  C165     1.0000 0.52240  0.71000  0.89020  Biso   1.000  C
  H150     1.0000 0.51450  0.71990  0.86260  Biso   1.000  H
  H151     1.0000 0.54030  0.72340  0.90810  Biso   1.000  H
  H152     1.0000 0.53910  0.69190  0.88370  Biso   1.000  H
  C166     1.0000 0.36270  0.71140  0.89260  Biso   1.000  C
  H153     1.0000 0.37290  0.72310  0.86740  Biso   1.000  H
  H154     1.0000 0.34770  0.69350  0.88200  Biso   1.000  H
  H155     1.0000 0.34230  0.72320  0.91030  Biso   1.000  H
  C167     1.0000 0.60470  0.69040  0.07290  Biso   1.000  C
  C168     1.0000 0.58420  0.68220  0.11040  Biso   1.000  C
  C169     1.0000 0.54450  0.66100  0.11240  Biso   1.000  C
  H156     1.0000 0.53540  0.65840  0.14310  Biso   1.000  H
  H157     1.0000 0.52010  0.66950  0.09550  Biso   1.000  H
  H158     1.0000 0.55270  0.64170  0.09990  Biso   1.000  H
  C170     1.0000 0.60310  0.69150  0.15010  Biso   1.000  C
  H159     1.0000 0.58920  0.68650  0.17710  Biso   1.000  H
  C171     1.0000 0.64340  0.70850  0.15110  Biso   1.000  C
  C172     1.0000 0.65480  0.71780  0.11470  Biso   1.000  C
  H160     1.0000 0.67410  0.73440  0.11450  Biso   1.000  H
  C173     1.0000 0.64210  0.70620  0.07280  Biso   1.000  C
  C174     1.0000 0.66450  0.71580  0.02940  Biso   1.000  C
  H161     1.0000 0.69120  0.72710  0.03610  Biso   1.000  H
  H162     1.0000 0.67210  0.69820  0.01220  Biso   1.000  H
  H163     1.0000 0.64430  0.72830  0.01250  Biso   1.000  H
  C175     1.0000 0.66830  0.71680  0.18970  Biso   1.000  C
  H164     1.0000 0.65510  0.70770  0.21580  Biso   1.000  H
  H165     1.0000 0.69870  0.70990  0.18650  Biso   1.000  H
  H166     1.0000 0.66810  0.73850  0.19290  Biso   1.000  H
  C176     1.0000 0.61330  0.62000  0.94520  Biso   1.000  C
  C177     1.0000 0.60560  0.61140  0.90510  Biso   1.000  C
  H167     1.0000 0.58350  0.62200  0.88940  Biso   1.000  H
  C178     1.0000 0.62620  0.58880  0.88310  Biso   1.000  C
  C179     1.0000 0.66040  0.57350  0.90500  Biso   1.000  C
  C180     1.0000 0.67160  0.58180  0.94780  Biso   1.000  C
  C181     1.0000 0.64650  0.60410  0.96880  Biso   1.000  C
  H168     1.0000 0.65180  0.60850  0.99890  Biso   1.000  H
  C182     1.0000 0.70810  0.56860  0.97210  Biso   1.000  C
  C183     1.0000 0.70790  0.53970  0.98550  Biso   1.000  C
  C184     1.0000 0.74280  0.53040  0.01330  Biso   1.000  C
  H169     1.0000 0.73920  0.51280  0.03030  Biso   1.000  H
  C185     1.0000 0.78090  0.54550  0.01650  Biso   1.000  C
  C186     1.0000 0.78070  0.57360  0.00400  Biso   1.000  C
  H170     1.0000 0.80550  0.58550  0.01110  Biso   1.000  H
  C187     1.0000 0.74660  0.58670  0.98100  Biso   1.000  C
  C188     1.0000 0.75010  0.61740  0.96460  Biso   1.000  C
  H171     1.0000 0.72300  0.62280  0.94920  Biso   1.000  H
  H172     1.0000 0.75480  0.63090  0.98940  Biso   1.000  H
  H173     1.0000 0.77500  0.61880  0.94420  Biso   1.000  H
  C189     1.0000 0.66970  0.51880  0.98010  Biso   1.000  C
  H174     1.0000 0.67740  0.49930  0.99220  Biso   1.000  H
  H175     1.0000 0.64410  0.52680  0.99570  Biso   1.000  H
  H176     1.0000 0.66270  0.51680  0.94870  Biso   1.000  H
  C190     1.0000 0.82420  0.53170  0.03870  Biso   1.000  C
  H177     1.0000 0.81890  0.51080  0.04600  Biso   1.000  H
  H178     1.0000 0.84880  0.53310  0.01800  Biso   1.000  H
  H179     1.0000 0.83130  0.54280  0.06550  Biso   1.000  H
  C191     1.0000 0.60710  0.57820  0.83980  Biso   1.000  C
  C192     1.0000 0.61670  0.59190  0.80000  Biso   1.000  C
  C193     1.0000 0.59710  0.58190  0.76140  Biso   1.000  C
  H180     1.0000 0.60370  0.59130  0.73420  Biso   1.000  H
  C194     1.0000 0.56790  0.55820  0.76270  Biso   1.000  C
  C195     1.0000 0.55830  0.54450  0.80250  Biso   1.000  C
  H181     1.0000 0.53830  0.52820  0.80340  Biso   1.000  H
  C196     1.0000 0.57790  0.55450  0.84100  Biso   1.000  C
  C197     1.0000 0.64480  0.61850  0.80150  Biso   1.000  C
  H182     1.0000 0.63810  0.63130  0.77630  Biso   1.000  H
  H183     1.0000 0.67570  0.61250  0.80030  Biso   1.000  H
  H184     1.0000 0.63930  0.62940  0.82890  Biso   1.000  H
  C198     1.0000 0.56740  0.53760  0.88090  Biso   1.000  C
  H185     1.0000 0.55580  0.55250  0.89840  Biso   1.000  H
  H186     1.0000 0.54620  0.52120  0.87530  Biso   1.000  H
  H187     1.0000 0.59370  0.52800  0.89540  Biso   1.000  H
  C199     1.0000 0.54710  0.54910  0.71760  Biso   1.000  C
  H188     1.0000 0.52710  0.53220  0.72210  Biso   1.000  H
  H189     1.0000 0.53070  0.56590  0.70550  Biso   1.000  H
  H190     1.0000 0.57040  0.54330  0.69710  Biso   1.000  H
  C200     1.0000 0.70500  0.52970  0.87740  Biso   1.000  C
  Cu3      1.0000 0.99870  0.25012  0.11646  Biso   1.000  Cu
  N9       1.0000 0.76640  0.45300  0.93840  Biso   1.000  N
  N10      1.0000 0.91810  0.28970  0.09440  Biso   1.000  N
  N11      1.0000 0.02290  0.21120  0.03540  Biso   1.000  N
  N12      1.0000 0.18110  0.04930  0.88570  Biso   1.000  N
  C201     1.0000 0.75760  0.47100  0.91540  Biso   1.000  C
  C202     1.0000 0.78610  0.42890  0.96300  Biso   1.000  C
  C203     1.0000 0.82870  0.41970  0.94910  Biso   1.000  C
  C204     1.0000 0.84740  0.39700  0.97010  Biso   1.000  C
  H191     1.0000 0.87580  0.39060  0.96100  Biso   1.000  H
  C205     1.0000 0.82740  0.38240  0.00410  Biso   1.000  C
  C206     1.0000 0.78470  0.39110  0.01670  Biso   1.000  C
  H192     1.0000 0.77000  0.38010  0.03900  Biso   1.000  H
  C207     1.0000 0.76410  0.41450  0.99800  Biso   1.000  C
  C208     1.0000 0.72130  0.42580  0.01550  Biso   1.000  C
  C209     1.0000 0.72340  0.44810  0.04960  Biso   1.000  C
  C210     1.0000 0.68140  0.45720  0.06990  Biso   1.000  C
  H193     1.0000 0.68140  0.47130  0.09310  Biso   1.000  H
  C211     1.0000 0.64370  0.44580  0.05600  Biso   1.000  C
  C212     1.0000 0.64160  0.42150  0.02530  Biso   1.000  C
  H194     1.0000 0.61470  0.41240  0.01710  Biso   1.000  H
  C213     1.0000 0.68430  0.41190  0.00750  Biso   1.000  C
  C214     1.0000 0.67980  0.38450  0.97840  Biso   1.000  C
  H195     1.0000 0.64890  0.37820  0.97760  Biso   1.000  H
  H196     1.0000 0.68960  0.38930  0.94850  Biso   1.000  H
  H197     1.0000 0.69780  0.36840  0.99020  Biso   1.000  H
  C215     1.0000 0.76680  0.46070  0.06470  Biso   1.000  C
  H198     1.0000 0.76170  0.47540  0.08790  Biso   1.000  H
  H199     1.0000 0.78530  0.44470  0.07610  Biso   1.000  H
  H200     1.0000 0.78160  0.47030  0.03980  Biso   1.000  H
  C216     1.0000 0.59840  0.45590  0.07460  Biso   1.000  C
  H201     1.0000 0.57490  0.44480  0.06000  Biso   1.000  H
  H202     1.0000 0.59750  0.45210  0.10640  Biso   1.000  H
  H203     1.0000 0.59450  0.47720  0.06920  Biso   1.000  H
  C217     1.0000 0.85080  0.43450  0.91020  Biso   1.000  C
  C218     1.0000 0.86040  0.41590  0.87240  Biso   1.000  C
  C219     1.0000 0.88490  0.42810  0.83850  Biso   1.000  C
  H204     1.0000 0.89420  0.41560  0.81510  Biso   1.000  H
  C220     1.0000 0.89660  0.45890  0.83730  Biso   1.000  C
  C221     1.0000 0.89050  0.47360  0.87440  Biso   1.000  C
  H205     1.0000 0.90130  0.49330  0.87610  Biso   1.000  H
  C222     1.0000 0.86870  0.46180  0.91170  Biso   1.000  C
  C223     1.0000 0.86280  0.48200  0.95210  Biso   1.000  C
  H206     1.0000 0.87810  0.50090  0.94720  Biso   1.000  H
  H207     1.0000 0.83140  0.48580  0.95680  Biso   1.000  H
  H208     1.0000 0.87510  0.47220  0.97810  Biso   1.000  H
  C224     1.0000 0.91480  0.47210  0.79770  Biso   1.000  C
  H209     1.0000 0.91630  0.45700  0.77450  Biso   1.000  H
  H210     1.0000 0.89600  0.48850  0.78810  Biso   1.000  H
  H211     1.0000 0.94440  0.47960  0.80390  Biso   1.000  H
  C225     1.0000 0.84490  0.38390  0.86990  Biso   1.000  C
  H212     1.0000 0.82820  0.37900  0.89650  Biso   1.000  H
  H213     1.0000 0.82620  0.38130  0.84400  Biso   1.000  H
  H214     1.0000 0.87040  0.37070  0.86760  Biso   1.000  H
  C226     1.0000 0.84910  0.35700  0.02760  Biso   1.000  C
  C227     1.0000 0.88760  0.34430  0.01010  Biso   1.000  C
  H215     1.0000 0.89820  0.35080  0.98240  Biso   1.000  H
  C228     1.0000 0.90990  0.32270  0.03300  Biso   1.000  C
  C229     1.0000 0.89350  0.31160  0.07210  Biso   1.000  C
  C230     1.0000 0.85460  0.32310  0.09080  Biso   1.000  C
  C231     1.0000 0.83470  0.34600  0.06820  Biso   1.000  C
  C232     1.0000 0.83760  0.31320  0.13420  Biso   1.000  C
  C233     1.0000 0.85860  0.32110  0.17130  Biso   1.000  C
  C234     1.0000 0.84310  0.31390  0.21320  Biso   1.000  C
  H216     1.0000 0.85960  0.31930  0.23850  Biso   1.000  H
  C235     1.0000 0.80660  0.30000  0.21720  Biso   1.000  C
  C236     1.0000 0.78320  0.29190  0.17970  Biso   1.000  C
  H217     1.0000 0.75690  0.28080  0.18350  Biso   1.000  H
  C237     1.0000 0.79650  0.29940  0.13520  Biso   1.000  C
  C238     1.0000 0.76980  0.29260  0.09780  Biso   1.000  C
  H218     1.0000 0.74260  0.28290  0.10750  Biso   1.000  H
  H219     1.0000 0.76270  0.31090  0.08200  Biso   1.000  H
  H220     1.0000 0.78590  0.27910  0.07820  Biso   1.000  H
  C239     1.0000 0.90250  0.33980  0.16910  Biso   1.000  C
  H221     1.0000 0.91320  0.34350  0.19900  Biso   1.000  H
  H222     1.0000 0.92470  0.32860  0.15260  Biso   1.000  H
  H223     1.0000 0.89680  0.35880  0.15430  Biso   1.000  H
  C240     1.0000 0.78960  0.29000  0.26410  Biso   1.000  C
  H224     1.0000 0.76140  0.27970  0.26100  Biso   1.000  H
  H225     1.0000 0.81110  0.27650  0.27750  Biso   1.000  H
  H226     1.0000 0.78590  0.30750  0.28290  Biso   1.000  H
  C241     1.0000 0.95000  0.28890  0.98070  Biso   1.000  C
  C242     1.0000 0.98880  0.27670  0.96460  Biso   1.000  C
  H227     1.0000 0.98780  0.26240  0.94160  Biso   1.000  H
  C243     1.0000 0.02890  0.28530  0.98220  Biso   1.000  C
  C244     1.0000 0.03040  0.30620  0.01580  Biso   1.000  C
  H228     1.0000 0.05780  0.31220  0.02790  Biso   1.000  H
  C245     1.0000 0.99160  0.31850  0.03190  Biso   1.000  C
  C246     1.0000 0.95150  0.30980  0.01440  Biso   1.000  C
  C247     1.0000 0.90580  0.27930  0.95890  Biso   1.000  C
  H229     1.0000 0.88130  0.28950  0.97340  Biso   1.000  H
  H230     1.0000 0.90620  0.28450  0.92760  Biso   1.000  H
  H231     1.0000 0.90200  0.25770  0.96210  Biso   1.000  H
  C248     1.0000 0.07100  0.27110  0.96150  Biso   1.000  C
  H232     1.0000 0.06240  0.25700  0.93840  Biso   1.000  H
  H233     1.0000 0.08950  0.28670  0.94870  Biso   1.000  H
  H234     1.0000 0.08760  0.26060  0.98440  Biso   1.000  H
  C249     1.0000 0.99270  0.33960  0.06910  Biso   1.000  C
  H235     1.0000 0.96260  0.34600  0.07610  Biso   1.000  H
  H236     1.0000 0.00570  0.32990  0.09490  Biso   1.000  H
  H237     1.0000 0.01030  0.35700  0.06100  Biso   1.000  H
  C250     1.0000 0.94550  0.27380  0.10580  Biso   1.000  C
  C251     1.0000 0.01200  0.22740  0.06350  Biso   1.000  C
  C252     1.0000 0.04430  0.18830  0.01200  Biso   1.000  C
  C253     1.0000 0.08500  0.17890  0.03020  Biso   1.000  C
  C254     1.0000 0.10620  0.15680  0.00690  Biso   1.000  C
  H238     1.0000 0.13360  0.14990  0.01780  Biso   1.000  H
  C255     1.0000 0.09020  0.14410  0.96870  Biso   1.000  C
  C256     1.0000 0.05010  0.15490  0.95110  Biso   1.000  C
  H239     1.0000 0.03830  0.14680  0.92480  Biso   1.000  H
  C257     1.0000 0.02840  0.17750  0.97290  Biso   1.000  C
  C258     1.0000 0.98490  0.18800  0.95410  Biso   1.000  C
  C259     1.0000 0.98080  0.20190  0.91510  Biso   1.000  C
  C260     1.0000 0.93960  0.21080  0.89900  Biso   1.000  C
  H240     1.0000 0.93780  0.22260  0.87310  Biso   1.000  H
  C261     1.0000 0.90180  0.20250  0.92050  Biso   1.000  C
  C262     1.0000 0.90520  0.18630  0.95840  Biso   1.000  C
  H241     1.0000 0.87900  0.18050  0.97310  Biso   1.000  H
  C263     1.0000 0.94410  0.17830  0.97590  Biso   1.000  C
  C264     1.0000 0.94610  0.15850  0.01430  Biso   1.000  C
  H242     1.0000 0.97690  0.15510  0.02240  Biso   1.000  H
  H243     1.0000 0.93060  0.16770  0.03900  Biso   1.000  H
  H244     1.0000 0.93220  0.13950  0.00700  Biso   1.000  H
  C265     1.0000 0.02240  0.21000  0.89020  Biso   1.000  C
  H245     1.0000 0.01450  0.21990  0.86260  Biso   1.000  H
  H246     1.0000 0.04030  0.22340  0.90810  Biso   1.000  H
  H247     1.0000 0.03910  0.19190  0.88370  Biso   1.000  H
  C266     1.0000 0.86270  0.21140  0.89260  Biso   1.000  C
  H248     1.0000 0.87290  0.22310  0.86740  Biso   1.000  H
  H249     1.0000 0.84770  0.19350  0.88200  Biso   1.000  H
  H250     1.0000 0.84230  0.22320  0.91030  Biso   1.000  H
  C267     1.0000 0.10470  0.19040  0.07290  Biso   1.000  C
  C268     1.0000 0.08420  0.18220  0.11040  Biso   1.000  C
  C269     1.0000 0.04450  0.16100  0.11240  Biso   1.000  C
  H251     1.0000 0.03540  0.15840  0.14310  Biso   1.000  H
  H252     1.0000 0.02010  0.16950  0.09550  Biso   1.000  H
  H253     1.0000 0.05270  0.14170  0.09990  Biso   1.000  H
  C270     1.0000 0.10310  0.19150  0.15010  Biso   1.000  C
  H254     1.0000 0.08920  0.18650  0.17710  Biso   1.000  H
  C271     1.0000 0.14340  0.20850  0.15110  Biso   1.000  C
  C272     1.0000 0.15480  0.21780  0.11470  Biso   1.000  C
  H255     1.0000 0.17410  0.23440  0.11450  Biso   1.000  H
  C273     1.0000 0.14210  0.20620  0.07280  Biso   1.000  C
  C274     1.0000 0.16450  0.21580  0.02940  Biso   1.000  C
  H256     1.0000 0.19120  0.22710  0.03610  Biso   1.000  H
  H257     1.0000 0.17210  0.19820  0.01220  Biso   1.000  H
  H258     1.0000 0.14430  0.22830  0.01250  Biso   1.000  H
  C275     1.0000 0.16830  0.21680  0.18970  Biso   1.000  C
  H259     1.0000 0.15510  0.20770  0.21580  Biso   1.000  H
  H260     1.0000 0.19870  0.20990  0.18650  Biso   1.000  H
  H261     1.0000 0.16810  0.23850  0.19290  Biso   1.000  H
  C276     1.0000 0.11330  0.12000  0.94520  Biso   1.000  C
  C277     1.0000 0.10560  0.11140  0.90510  Biso   1.000  C
  H262     1.0000 0.08350  0.12200  0.88940  Biso   1.000  H
  C278     1.0000 0.12620  0.08880  0.88310  Biso   1.000  C
  C279     1.0000 0.16040  0.07350  0.90500  Biso   1.000  C
  C280     1.0000 0.17160  0.08180  0.94780  Biso   1.000  C
  C281     1.0000 0.14650  0.10410  0.96880  Biso   1.000  C
  H263     1.0000 0.15180  0.10850  0.99890  Biso   1.000  H
  C282     1.0000 0.20810  0.06860  0.97210  Biso   1.000  C
  C283     1.0000 0.20790  0.03970  0.98550  Biso   1.000  C
  C284     1.0000 0.24280  0.03040  0.01330  Biso   1.000  C
  H264     1.0000 0.23920  0.01280  0.03030  Biso   1.000  H
  C285     1.0000 0.28090  0.04550  0.01650  Biso   1.000  C
  C286     1.0000 0.28070  0.07360  0.00400  Biso   1.000  C
  H265     1.0000 0.30550  0.08550  0.01110  Biso   1.000  H
  C287     1.0000 0.24660  0.08670  0.98100  Biso   1.000  C
  C288     1.0000 0.25010  0.11740  0.96460  Biso   1.000  C
  H266     1.0000 0.22300  0.12280  0.94920  Biso   1.000  H
  H267     1.0000 0.25480  0.13090  0.98940  Biso   1.000  H
  H268     1.0000 0.27500  0.11880  0.94420  Biso   1.000  H
  C289     1.0000 0.16970  0.01880  0.98010  Biso   1.000  C
  H269     1.0000 0.17740  0.99930  0.99220  Biso   1.000  H
  H270     1.0000 0.14410  0.02680  0.99570  Biso   1.000  H
  H271     1.0000 0.16270  0.01680  0.94870  Biso   1.000  H
  C290     1.0000 0.32420  0.03170  0.03870  Biso   1.000  C
  H272     1.0000 0.31890  0.01080  0.04600  Biso   1.000  H
  H273     1.0000 0.34880  0.03310  0.01800  Biso   1.000  H
  H274     1.0000 0.33130  0.04280  0.06550  Biso   1.000  H
  C291     1.0000 0.10710  0.07820  0.83980  Biso   1.000  C
  C292     1.0000 0.11670  0.09190  0.80000  Biso   1.000  C
  C293     1.0000 0.09710  0.08190  0.76140  Biso   1.000  C
  H275     1.0000 0.10370  0.09130  0.73420  Biso   1.000  H
  C294     1.0000 0.06790  0.05820  0.76270  Biso   1.000  C
  C295     1.0000 0.05830  0.04450  0.80250  Biso   1.000  C
  H276     1.0000 0.03830  0.02820  0.80340  Biso   1.000  H
  C296     1.0000 0.07790  0.05450  0.84100  Biso   1.000  C
  C297     1.0000 0.14480  0.11850  0.80150  Biso   1.000  C
  H277     1.0000 0.13810  0.13130  0.77630  Biso   1.000  H
  H278     1.0000 0.17570  0.11250  0.80030  Biso   1.000  H
  H279     1.0000 0.13930  0.12940  0.82890  Biso   1.000  H
  C298     1.0000 0.06740  0.03760  0.88090  Biso   1.000  C
  H280     1.0000 0.05580  0.05250  0.89840  Biso   1.000  H
  H281     1.0000 0.04620  0.02120  0.87530  Biso   1.000  H
  H282     1.0000 0.09370  0.02800  0.89540  Biso   1.000  H
  C299     1.0000 0.04710  0.04910  0.71760  Biso   1.000  C
  H283     1.0000 0.02710  0.03220  0.72210  Biso   1.000  H
  H284     1.0000 0.03070  0.06590  0.70550  Biso   1.000  H
  H285     1.0000 0.07040  0.04330  0.69710  Biso   1.000  H
  C300     1.0000 0.20500  0.02970  0.87740  Biso   1.000  C
  Cu4      1.0000 0.99870  0.75012  0.61646  Biso   1.000  Cu
  N13      1.0000 0.76640  0.95300  0.43840  Biso   1.000  N
  N14      1.0000 0.91810  0.78970  0.59440  Biso   1.000  N
  N15      1.0000 0.02290  0.71120  0.53540  Biso   1.000  N
  N16      1.0000 0.18110  0.54930  0.38570  Biso   1.000  N
  C301     1.0000 0.75760  0.97100  0.41540  Biso   1.000  C
  C302     1.0000 0.78610  0.92890  0.46300  Biso   1.000  C
  C303     1.0000 0.82870  0.91970  0.44910  Biso   1.000  C
  C304     1.0000 0.84740  0.89700  0.47010  Biso   1.000  C
  H286     1.0000 0.87580  0.89060  0.46100  Biso   1.000  H
  C305     1.0000 0.82740  0.88240  0.50410  Biso   1.000  C
  C306     1.0000 0.78470  0.89110  0.51670  Biso   1.000  C
  H287     1.0000 0.77000  0.88010  0.53900  Biso   1.000  H
  C307     1.0000 0.76410  0.91450  0.49800  Biso   1.000  C
  C308     1.0000 0.72130  0.92580  0.51550  Biso   1.000  C
  C309     1.0000 0.72340  0.94810  0.54960  Biso   1.000  C
  C310     1.0000 0.68140  0.95720  0.56990  Biso   1.000  C
  H288     1.0000 0.68140  0.97130  0.59310  Biso   1.000  H
  C311     1.0000 0.64370  0.94580  0.55600  Biso   1.000  C
  C312     1.0000 0.64160  0.92150  0.52530  Biso   1.000  C
  H289     1.0000 0.61470  0.91240  0.51710  Biso   1.000  H
  C313     1.0000 0.68430  0.91190  0.50750  Biso   1.000  C
  C314     1.0000 0.67980  0.88450  0.47840  Biso   1.000  C
  H290     1.0000 0.64890  0.87820  0.47760  Biso   1.000  H
  H291     1.0000 0.68960  0.88930  0.44850  Biso   1.000  H
  H292     1.0000 0.69780  0.86840  0.49020  Biso   1.000  H
  C315     1.0000 0.76680  0.96070  0.56470  Biso   1.000  C
  H293     1.0000 0.76170  0.97540  0.58790  Biso   1.000  H
  H294     1.0000 0.78530  0.94470  0.57610  Biso   1.000  H
  H295     1.0000 0.78160  0.97030  0.53980  Biso   1.000  H
  C316     1.0000 0.59840  0.95590  0.57460  Biso   1.000  C
  H296     1.0000 0.57490  0.94480  0.56000  Biso   1.000  H
  H297     1.0000 0.59750  0.95210  0.60640  Biso   1.000  H
  H298     1.0000 0.59450  0.97720  0.56920  Biso   1.000  H
  C317     1.0000 0.85080  0.93450  0.41020  Biso   1.000  C
  C318     1.0000 0.86040  0.91590  0.37240  Biso   1.000  C
  C319     1.0000 0.88490  0.92810  0.33850  Biso   1.000  C
  H299     1.0000 0.89420  0.91560  0.31510  Biso   1.000  H
  C320     1.0000 0.89660  0.95890  0.33730  Biso   1.000  C
  C321     1.0000 0.89050  0.97360  0.37440  Biso   1.000  C
  H300     1.0000 0.90130  0.99330  0.37610  Biso   1.000  H
  C322     1.0000 0.86870  0.96180  0.41170  Biso   1.000  C
  C323     1.0000 0.86280  0.98200  0.45210  Biso   1.000  C
  H301     1.0000 0.87810  0.00090  0.44720  Biso   1.000  H
  H302     1.0000 0.83140  0.98580  0.45680  Biso   1.000  H
  H303     1.0000 0.87510  0.97220  0.47810  Biso   1.000  H
  C324     1.0000 0.91480  0.97210  0.29770  Biso   1.000  C
  H304     1.0000 0.91630  0.95700  0.27450  Biso   1.000  H
  H305     1.0000 0.89600  0.98850  0.28810  Biso   1.000  H
  H306     1.0000 0.94440  0.97960  0.30390  Biso   1.000  H
  C325     1.0000 0.84490  0.88390  0.36990  Biso   1.000  C
  H307     1.0000 0.82820  0.87900  0.39650  Biso   1.000  H
  H308     1.0000 0.82620  0.88130  0.34400  Biso   1.000  H
  H309     1.0000 0.87040  0.87070  0.36760  Biso   1.000  H
  C326     1.0000 0.84910  0.85700  0.52760  Biso   1.000  C
  C327     1.0000 0.88760  0.84430  0.51010  Biso   1.000  C
  H310     1.0000 0.89820  0.85080  0.48240  Biso   1.000  H
  C328     1.0000 0.90990  0.82270  0.53300  Biso   1.000  C
  C329     1.0000 0.89350  0.81160  0.57210  Biso   1.000  C
  C330     1.0000 0.85460  0.82310  0.59080  Biso   1.000  C
  C331     1.0000 0.83470  0.84600  0.56820  Biso   1.000  C
  C332     1.0000 0.83760  0.81320  0.63420  Biso   1.000  C
  C333     1.0000 0.85860  0.82110  0.67130  Biso   1.000  C
  C334     1.0000 0.84310  0.81390  0.71320  Biso   1.000  C
  H311     1.0000 0.85960  0.81930  0.73850  Biso   1.000  H
  C335     1.0000 0.80660  0.80000  0.71720  Biso   1.000  C
  C336     1.0000 0.78320  0.79190  0.67970  Biso   1.000  C
  H312     1.0000 0.75690  0.78080  0.68350  Biso   1.000  H
  C337     1.0000 0.79650  0.79940  0.63520  Biso   1.000  C
  C338     1.0000 0.76980  0.79260  0.59780  Biso   1.000  C
  H313     1.0000 0.74260  0.78290  0.60750  Biso   1.000  H
  H314     1.0000 0.76270  0.81090  0.58200  Biso   1.000  H
  H315     1.0000 0.78590  0.77910  0.57820  Biso   1.000  H
  C339     1.0000 0.90250  0.83980  0.66910  Biso   1.000  C
  H316     1.0000 0.91320  0.84350  0.69900  Biso   1.000  H
  H317     1.0000 0.92470  0.82860  0.65260  Biso   1.000  H
  H318     1.0000 0.89680  0.85880  0.65430  Biso   1.000  H
  C340     1.0000 0.78960  0.79000  0.76410  Biso   1.000  C
  H319     1.0000 0.76140  0.77970  0.76100  Biso   1.000  H
  H320     1.0000 0.81110  0.77650  0.77750  Biso   1.000  H
  H321     1.0000 0.78590  0.80750  0.78290  Biso   1.000  H
  C341     1.0000 0.95000  0.78890  0.48070  Biso   1.000  C
  C342     1.0000 0.98880  0.77670  0.46460  Biso   1.000  C
  H322     1.0000 0.98780  0.76240  0.44160  Biso   1.000  H
  C343     1.0000 0.02890  0.78530  0.48220  Biso   1.000  C
  C344     1.0000 0.03040  0.80620  0.51580  Biso   1.000  C
  H323     1.0000 0.05780  0.81220  0.52790  Biso   1.000  H
  C345     1.0000 0.99160  0.81850  0.53190  Biso   1.000  C
  C346     1.0000 0.95150  0.80980  0.51440  Biso   1.000  C
  C347     1.0000 0.90580  0.77930  0.45890  Biso   1.000  C
  H324     1.0000 0.88130  0.78950  0.47340  Biso   1.000  H
  H325     1.0000 0.90620  0.78450  0.42760  Biso   1.000  H
  H326     1.0000 0.90200  0.75770  0.46210  Biso   1.000  H
  C348     1.0000 0.07100  0.77110  0.46150  Biso   1.000  C
  H327     1.0000 0.06240  0.75700  0.43840  Biso   1.000  H
  H328     1.0000 0.08950  0.78670  0.44870  Biso   1.000  H
  H329     1.0000 0.08760  0.76060  0.48440  Biso   1.000  H
  C349     1.0000 0.99270  0.83960  0.56910  Biso   1.000  C
  H330     1.0000 0.96260  0.84600  0.57610  Biso   1.000  H
  H331     1.0000 0.00570  0.82990  0.59490  Biso   1.000  H
  H332     1.0000 0.01030  0.85700  0.56100  Biso   1.000  H
  C350     1.0000 0.94550  0.77380  0.60580  Biso   1.000  C
  C351     1.0000 0.01200  0.72740  0.56350  Biso   1.000  C
  C352     1.0000 0.04430  0.68830  0.51200  Biso   1.000  C
  C353     1.0000 0.08500  0.67890  0.53020  Biso   1.000  C
  C354     1.0000 0.10620  0.65680  0.50690  Biso   1.000  C
  H333     1.0000 0.13360  0.64990  0.51780  Biso   1.000  H
  C355     1.0000 0.09020  0.64410  0.46870  Biso   1.000  C
  C356     1.0000 0.05010  0.65490  0.45110  Biso   1.000  C
  H334     1.0000 0.03830  0.64680  0.42480  Biso   1.000  H
  C357     1.0000 0.02840  0.67750  0.47290  Biso   1.000  C
  C358     1.0000 0.98490  0.68800  0.45410  Biso   1.000  C
  C359     1.0000 0.98080  0.70190  0.41510  Biso   1.000  C
  C360     1.0000 0.93960  0.71080  0.39900  Biso   1.000  C
  H335     1.0000 0.93780  0.72260  0.37310  Biso   1.000  H
  C361     1.0000 0.90180  0.70250  0.42050  Biso   1.000  C
  C362     1.0000 0.90520  0.68630  0.45840  Biso   1.000  C
  H336     1.0000 0.87900  0.68050  0.47310  Biso   1.000  H
  C363     1.0000 0.94410  0.67830  0.47590  Biso   1.000  C
  C364     1.0000 0.94610  0.65850  0.51430  Biso   1.000  C
  H337     1.0000 0.97690  0.65510  0.52240  Biso   1.000  H
  H338     1.0000 0.93060  0.66770  0.53900  Biso   1.000  H
  H339     1.0000 0.93220  0.63950  0.50700  Biso   1.000  H
  C365     1.0000 0.02240  0.71000  0.39020  Biso   1.000  C
  H340     1.0000 0.01450  0.71990  0.36260  Biso   1.000  H
  H341     1.0000 0.04030  0.72340  0.40810  Biso   1.000  H
  H342     1.0000 0.03910  0.69190  0.38370  Biso   1.000  H
  C366     1.0000 0.86270  0.71140  0.39260  Biso   1.000  C
  H343     1.0000 0.87290  0.72310  0.36740  Biso   1.000  H
  H344     1.0000 0.84770  0.69350  0.38200  Biso   1.000  H
  H345     1.0000 0.84230  0.72320  0.41030  Biso   1.000  H
  C367     1.0000 0.10470  0.69040  0.57290  Biso   1.000  C
  C368     1.0000 0.08420  0.68220  0.61040  Biso   1.000  C
  C369     1.0000 0.04450  0.66100  0.61240  Biso   1.000  C
  H346     1.0000 0.03540  0.65840  0.64310  Biso   1.000  H
  H347     1.0000 0.02010  0.66950  0.59550  Biso   1.000  H
  H348     1.0000 0.05270  0.64170  0.59990  Biso   1.000  H
  C370     1.0000 0.10310  0.69150  0.65010  Biso   1.000  C
  H349     1.0000 0.08920  0.68650  0.67710  Biso   1.000  H
  C371     1.0000 0.14340  0.70850  0.65110  Biso   1.000  C
  C372     1.0000 0.15480  0.71780  0.61470  Biso   1.000  C
  H350     1.0000 0.17410  0.73440  0.61450  Biso   1.000  H
  C373     1.0000 0.14210  0.70620  0.57280  Biso   1.000  C
  C374     1.0000 0.16450  0.71580  0.52940  Biso   1.000  C
  H351     1.0000 0.19120  0.72710  0.53610  Biso   1.000  H
  H352     1.0000 0.17210  0.69820  0.51220  Biso   1.000  H
  H353     1.0000 0.14430  0.72830  0.51250  Biso   1.000  H
  C375     1.0000 0.16830  0.71680  0.68970  Biso   1.000  C
  H354     1.0000 0.15510  0.70770  0.71580  Biso   1.000  H
  H355     1.0000 0.19870  0.70990  0.68650  Biso   1.000  H
  H356     1.0000 0.16810  0.73850  0.69290  Biso   1.000  H
  C376     1.0000 0.11330  0.62000  0.44520  Biso   1.000  C
  C377     1.0000 0.10560  0.61140  0.40510  Biso   1.000  C
  H357     1.0000 0.08350  0.62200  0.38940  Biso   1.000  H
  C378     1.0000 0.12620  0.58880  0.38310  Biso   1.000  C
  C379     1.0000 0.16040  0.57350  0.40500  Biso   1.000  C
  C380     1.0000 0.17160  0.58180  0.44780  Biso   1.000  C
  C381     1.0000 0.14650  0.60410  0.46880  Biso   1.000  C
  H358     1.0000 0.15180  0.60850  0.49890  Biso   1.000  H
  C382     1.0000 0.20810  0.56860  0.47210  Biso   1.000  C
  C383     1.0000 0.20790  0.53970  0.48550  Biso   1.000  C
  C384     1.0000 0.24280  0.53040  0.51330  Biso   1.000  C
  H359     1.0000 0.23920  0.51280  0.53030  Biso   1.000  H
  C385     1.0000 0.28090  0.54550  0.51650  Biso   1.000  C
  C386     1.0000 0.28070  0.57360  0.50400  Biso   1.000  C
  H360     1.0000 0.30550  0.58550  0.51110  Biso   1.000  H
  C387     1.0000 0.24660  0.58670  0.48100  Biso   1.000  C
  C388     1.0000 0.25010  0.61740  0.46460  Biso   1.000  C
  H361     1.0000 0.22300  0.62280  0.44920  Biso   1.000  H
  H362     1.0000 0.25480  0.63090  0.48940  Biso   1.000  H
  H363     1.0000 0.27500  0.61880  0.44420  Biso   1.000  H
  C389     1.0000 0.16970  0.51880  0.48010  Biso   1.000  C
  H364     1.0000 0.17740  0.49930  0.49220  Biso   1.000  H
  H365     1.0000 0.14410  0.52680  0.49570  Biso   1.000  H
  H366     1.0000 0.16270  0.51680  0.44870  Biso   1.000  H
  C390     1.0000 0.32420  0.53170  0.53870  Biso   1.000  C
  H367     1.0000 0.31890  0.51080  0.54600  Biso   1.000  H
  H368     1.0000 0.34880  0.53310  0.51800  Biso   1.000  H
  H369     1.0000 0.33130  0.54280  0.56550  Biso   1.000  H
  C391     1.0000 0.10710  0.57820  0.33980  Biso   1.000  C
  C392     1.0000 0.11670  0.59190  0.30000  Biso   1.000  C
  C393     1.0000 0.09710  0.58190  0.26140  Biso   1.000  C
  H370     1.0000 0.10370  0.59130  0.23420  Biso   1.000  H
  C394     1.0000 0.06790  0.55820  0.26270  Biso   1.000  C
  C395     1.0000 0.05830  0.54450  0.30250  Biso   1.000  C
  H371     1.0000 0.03830  0.52820  0.30340  Biso   1.000  H
  C396     1.0000 0.07790  0.55450  0.34100  Biso   1.000  C
  C397     1.0000 0.14480  0.61850  0.30150  Biso   1.000  C
  H372     1.0000 0.13810  0.63130  0.27630  Biso   1.000  H
  H373     1.0000 0.17570  0.61250  0.30030  Biso   1.000  H
  H374     1.0000 0.13930  0.62940  0.32890  Biso   1.000  H
  C398     1.0000 0.06740  0.53760  0.38090  Biso   1.000  C
  H375     1.0000 0.05580  0.55250  0.39840  Biso   1.000  H
  H376     1.0000 0.04620  0.52120  0.37530  Biso   1.000  H
  H377     1.0000 0.09370  0.52800  0.39540  Biso   1.000  H
  C399     1.0000 0.04710  0.54910  0.21760  Biso   1.000  C
  H378     1.0000 0.02710  0.53220  0.22210  Biso   1.000  H
  H379     1.0000 0.03070  0.56590  0.20550  Biso   1.000  H
  H380     1.0000 0.07040  0.54330  0.19710  Biso   1.000  H
  C400     1.0000 0.20500  0.52970  0.37740  Biso   1.000  C
  Cu5      1.0000 0.75130  0.50012  0.86646  Biso   1.000  Cu
  N17      1.0000 0.98360  0.70300  0.68840  Biso   1.000  N
  N18      1.0000 0.83190  0.53970  0.84440  Biso   1.000  N
  N19      1.0000 0.72710  0.46120  0.78540  Biso   1.000  N
  N20      1.0000 0.56890  0.29930  0.63570  Biso   1.000  N
  C401     1.0000 0.99240  0.72100  0.66540  Biso   1.000  C
  C402     1.0000 0.96390  0.67890  0.71300  Biso   1.000  C
  C403     1.0000 0.92130  0.66970  0.69910  Biso   1.000  C
  C404     1.0000 0.90260  0.64700  0.72010  Biso   1.000  C
  H381     1.0000 0.87420  0.64060  0.71100  Biso   1.000  H
  C405     1.0000 0.92260  0.63240  0.75410  Biso   1.000  C
  C406     1.0000 0.96530  0.64110  0.76670  Biso   1.000  C
  H382     1.0000 0.98000  0.63010  0.78900  Biso   1.000  H
  C407     1.0000 0.98590  0.66450  0.74800  Biso   1.000  C
  C408     1.0000 0.02870  0.67580  0.76550  Biso   1.000  C
  C409     1.0000 0.02660  0.69810  0.79960  Biso   1.000  C
  C410     1.0000 0.06860  0.70720  0.81990  Biso   1.000  C
  H383     1.0000 0.06860  0.72130  0.84310  Biso   1.000  H
  C411     1.0000 0.10630  0.69580  0.80600  Biso   1.000  C
  C412     1.0000 0.10840  0.67150  0.77530  Biso   1.000  C
  H384     1.0000 0.13530  0.66240  0.76710  Biso   1.000  H
  C413     1.0000 0.06570  0.66190  0.75750  Biso   1.000  C
  C414     1.0000 0.07020  0.63450  0.72840  Biso   1.000  C
  H385     1.0000 0.10110  0.62820  0.72760  Biso   1.000  H
  H386     1.0000 0.06040  0.63930  0.69850  Biso   1.000  H
  H387     1.0000 0.05220  0.61840  0.74020  Biso   1.000  H
  C415     1.0000 0.98320  0.71070  0.81470  Biso   1.000  C
  H388     1.0000 0.98830  0.72540  0.83790  Biso   1.000  H
  H389     1.0000 0.96470  0.69470  0.82610  Biso   1.000  H
  H390     1.0000 0.96840  0.72030  0.78980  Biso   1.000  H
  C416     1.0000 0.15160  0.70590  0.82460  Biso   1.000  C
  H391     1.0000 0.17510  0.69480  0.81000  Biso   1.000  H
  H392     1.0000 0.15250  0.70210  0.85640  Biso   1.000  H
  H393     1.0000 0.15550  0.72720  0.81920  Biso   1.000  H
  C417     1.0000 0.89920  0.68450  0.66020  Biso   1.000  C
  C418     1.0000 0.88960  0.66590  0.62240  Biso   1.000  C
  C419     1.0000 0.86510  0.67810  0.58850  Biso   1.000  C
  H394     1.0000 0.85580  0.66560  0.56510  Biso   1.000  H
  C420     1.0000 0.85340  0.70890  0.58730  Biso   1.000  C
  C421     1.0000 0.85950  0.72360  0.62440  Biso   1.000  C
  H395     1.0000 0.84870  0.74330  0.62610  Biso   1.000  H
  C422     1.0000 0.88130  0.71180  0.66170  Biso   1.000  C
  C423     1.0000 0.88720  0.73200  0.70210  Biso   1.000  C
  H396     1.0000 0.87190  0.75090  0.69720  Biso   1.000  H
  H397     1.0000 0.91860  0.73580  0.70680  Biso   1.000  H
  H398     1.0000 0.87490  0.72220  0.72810  Biso   1.000  H
  C424     1.0000 0.83520  0.72210  0.54770  Biso   1.000  C
  H399     1.0000 0.83370  0.70700  0.52450  Biso   1.000  H
  H400     1.0000 0.85400  0.73850  0.53810  Biso   1.000  H
  H401     1.0000 0.80560  0.72960  0.55390  Biso   1.000  H
  C425     1.0000 0.90510  0.63390  0.61990  Biso   1.000  C
  H402     1.0000 0.92180  0.62900  0.64650  Biso   1.000  H
  H403     1.0000 0.92380  0.63130  0.59400  Biso   1.000  H
  H404     1.0000 0.87960  0.62070  0.61760  Biso   1.000  H
  C426     1.0000 0.90090  0.60700  0.77760  Biso   1.000  C
  C427     1.0000 0.86240  0.59430  0.76010  Biso   1.000  C
  H405     1.0000 0.85180  0.60080  0.73240  Biso   1.000  H
  C428     1.0000 0.84010  0.57270  0.78300  Biso   1.000  C
  C429     1.0000 0.85650  0.56160  0.82210  Biso   1.000  C
  C430     1.0000 0.89540  0.57310  0.84080  Biso   1.000  C
  C431     1.0000 0.91530  0.59600  0.81820  Biso   1.000  C
  C432     1.0000 0.91240  0.56320  0.88420  Biso   1.000  C
  C433     1.0000 0.89140  0.57110  0.92130  Biso   1.000  C
  C434     1.0000 0.90690  0.56390  0.96320  Biso   1.000  C
  H406     1.0000 0.89040  0.56930  0.98850  Biso   1.000  H
  C435     1.0000 0.94340  0.55000  0.96720  Biso   1.000  C
  C436     1.0000 0.96680  0.54190  0.92970  Biso   1.000  C
  H407     1.0000 0.99310  0.53080  0.93350  Biso   1.000  H
  C437     1.0000 0.95350  0.54940  0.88520  Biso   1.000  C
  C438     1.0000 0.98020  0.54260  0.84780  Biso   1.000  C
  H408     1.0000 0.00740  0.53290  0.85750  Biso   1.000  H
  H409     1.0000 0.98730  0.56090  0.83200  Biso   1.000  H
  H410     1.0000 0.96410  0.52910  0.82820  Biso   1.000  H
  C439     1.0000 0.84750  0.58980  0.91910  Biso   1.000  C
  H411     1.0000 0.83680  0.59350  0.94900  Biso   1.000  H
  H412     1.0000 0.82530  0.57860  0.90260  Biso   1.000  H
  H413     1.0000 0.85320  0.60880  0.90430  Biso   1.000  H
  C440     1.0000 0.96040  0.54000  0.01410  Biso   1.000  C
  H414     1.0000 0.98860  0.52970  0.01100  Biso   1.000  H
  H415     1.0000 0.93890  0.52650  0.02750  Biso   1.000  H
  H416     1.0000 0.96410  0.55750  0.03290  Biso   1.000  H
  C441     1.0000 0.80000  0.53890  0.73070  Biso   1.000  C
  C442     1.0000 0.76120  0.52670  0.71460  Biso   1.000  C
  H417     1.0000 0.76220  0.51240  0.69160  Biso   1.000  H
  C443     1.0000 0.72110  0.53530  0.73220  Biso   1.000  C
  C444     1.0000 0.71960  0.55620  0.76580  Biso   1.000  C
  H418     1.0000 0.69220  0.56220  0.77790  Biso   1.000  H
  C445     1.0000 0.75840  0.56850  0.78190  Biso   1.000  C
  C446     1.0000 0.79850  0.55980  0.76440  Biso   1.000  C
  C447     1.0000 0.84420  0.52930  0.70890  Biso   1.000  C
  H419     1.0000 0.86870  0.53950  0.72340  Biso   1.000  H
  H420     1.0000 0.84380  0.53450  0.67760  Biso   1.000  H
  H421     1.0000 0.84800  0.50770  0.71210  Biso   1.000  H
  C448     1.0000 0.67900  0.52110  0.71150  Biso   1.000  C
  H422     1.0000 0.68760  0.50700  0.68840  Biso   1.000  H
  H423     1.0000 0.66050  0.53670  0.69870  Biso   1.000  H
  H424     1.0000 0.66240  0.51060  0.73440  Biso   1.000  H
  C449     1.0000 0.75730  0.58960  0.81910  Biso   1.000  C
  H425     1.0000 0.78740  0.59600  0.82610  Biso   1.000  H
  H426     1.0000 0.74430  0.57990  0.84490  Biso   1.000  H
  H427     1.0000 0.73970  0.60700  0.81100  Biso   1.000  H
  C450     1.0000 0.80450  0.52380  0.85580  Biso   1.000  C
  C451     1.0000 0.73800  0.47740  0.81350  Biso   1.000  C
  C452     1.0000 0.70570  0.43830  0.76200  Biso   1.000  C
  C453     1.0000 0.66500  0.42890  0.78020  Biso   1.000  C
  C454     1.0000 0.64380  0.40680  0.75690  Biso   1.000  C
  H428     1.0000 0.61640  0.39990  0.76780  Biso   1.000  H
  C455     1.0000 0.65980  0.39410  0.71870  Biso   1.000  C
  C456     1.0000 0.69990  0.40490  0.70110  Biso   1.000  C
  H429     1.0000 0.71170  0.39680  0.67480  Biso   1.000  H
  C457     1.0000 0.72160  0.42750  0.72290  Biso   1.000  C
  C458     1.0000 0.76510  0.43800  0.70410  Biso   1.000  C
  C459     1.0000 0.76920  0.45190  0.66510  Biso   1.000  C
  C460     1.0000 0.81040  0.46080  0.64900  Biso   1.000  C
  H430     1.0000 0.81220  0.47260  0.62310  Biso   1.000  H
  C461     1.0000 0.84820  0.45250  0.67050  Biso   1.000  C
  C462     1.0000 0.84480  0.43630  0.70840  Biso   1.000  C
  H431     1.0000 0.87100  0.43050  0.72310  Biso   1.000  H
  C463     1.0000 0.80590  0.42830  0.72590  Biso   1.000  C
  C464     1.0000 0.80390  0.40850  0.76430  Biso   1.000  C
  H432     1.0000 0.77310  0.40510  0.77240  Biso   1.000  H
  H433     1.0000 0.81940  0.41770  0.78900  Biso   1.000  H
  H434     1.0000 0.81780  0.38950  0.75700  Biso   1.000  H
  C465     1.0000 0.72760  0.46000  0.64020  Biso   1.000  C
  H435     1.0000 0.73550  0.46990  0.61260  Biso   1.000  H
  H436     1.0000 0.70970  0.47340  0.65810  Biso   1.000  H
  H437     1.0000 0.71090  0.44190  0.63370  Biso   1.000  H
  C466     1.0000 0.88730  0.46140  0.64260  Biso   1.000  C
  H438     1.0000 0.87710  0.47310  0.61740  Biso   1.000  H
  H439     1.0000 0.90230  0.44350  0.63200  Biso   1.000  H
  H440     1.0000 0.90770  0.47320  0.66030  Biso   1.000  H
  C467     1.0000 0.64530  0.44040  0.82290  Biso   1.000  C
  C468     1.0000 0.66580  0.43220  0.86040  Biso   1.000  C
  C469     1.0000 0.70550  0.41100  0.86240  Biso   1.000  C
  H441     1.0000 0.71460  0.40840  0.89310  Biso   1.000  H
  H442     1.0000 0.72990  0.41950  0.84550  Biso   1.000  H
  H443     1.0000 0.69730  0.39170  0.84990  Biso   1.000  H
  C470     1.0000 0.64690  0.44150  0.90010  Biso   1.000  C
  H444     1.0000 0.66080  0.43650  0.92710  Biso   1.000  H
  C471     1.0000 0.60660  0.45850  0.90110  Biso   1.000  C
  C472     1.0000 0.59520  0.46780  0.86470  Biso   1.000  C
  H445     1.0000 0.57590  0.48440  0.86450  Biso   1.000  H
  C473     1.0000 0.60790  0.45620  0.82280  Biso   1.000  C
  C474     1.0000 0.58550  0.46580  0.77940  Biso   1.000  C
  H446     1.0000 0.55880  0.47710  0.78610  Biso   1.000  H
  H447     1.0000 0.57790  0.44820  0.76220  Biso   1.000  H
  H448     1.0000 0.60570  0.47830  0.76250  Biso   1.000  H
  C475     1.0000 0.58170  0.46680  0.93970  Biso   1.000  C
  H449     1.0000 0.59490  0.45770  0.96580  Biso   1.000  H
  H450     1.0000 0.55130  0.45990  0.93650  Biso   1.000  H
  H451     1.0000 0.58190  0.48850  0.94290  Biso   1.000  H
  C476     1.0000 0.63670  0.37000  0.69520  Biso   1.000  C
  C477     1.0000 0.64440  0.36140  0.65510  Biso   1.000  C
  H452     1.0000 0.66650  0.37200  0.63940  Biso   1.000  H
  C478     1.0000 0.62380  0.33880  0.63310  Biso   1.000  C
  C479     1.0000 0.58960  0.32350  0.65500  Biso   1.000  C
  C480     1.0000 0.57840  0.33180  0.69780  Biso   1.000  C
  C481     1.0000 0.60350  0.35410  0.71880  Biso   1.000  C
  H453     1.0000 0.59820  0.35850  0.74890  Biso   1.000  H
  C482     1.0000 0.54190  0.31860  0.72210  Biso   1.000  C
  C483     1.0000 0.54210  0.28970  0.73550  Biso   1.000  C
  C484     1.0000 0.50720  0.28040  0.76330  Biso   1.000  C
  H454     1.0000 0.51080  0.26280  0.78030  Biso   1.000  H
  C485     1.0000 0.46910  0.29550  0.76650  Biso   1.000  C
  C486     1.0000 0.46930  0.32360  0.75400  Biso   1.000  C
  H455     1.0000 0.44450  0.33550  0.76110  Biso   1.000  H
  C487     1.0000 0.50340  0.33670  0.73100  Biso   1.000  C
  C488     1.0000 0.49990  0.36740  0.71460  Biso   1.000  C
  H456     1.0000 0.52700  0.37280  0.69920  Biso   1.000  H
  H457     1.0000 0.49520  0.38090  0.73940  Biso   1.000  H
  H458     1.0000 0.47500  0.36880  0.69420  Biso   1.000  H
  C489     1.0000 0.58030  0.26880  0.73010  Biso   1.000  C
  H459     1.0000 0.57260  0.24930  0.74220  Biso   1.000  H
  H460     1.0000 0.60590  0.27680  0.74570  Biso   1.000  H
  H461     1.0000 0.58730  0.26680  0.69870  Biso   1.000  H
  C490     1.0000 0.42580  0.28170  0.78870  Biso   1.000  C
  H462     1.0000 0.43110  0.26080  0.79600  Biso   1.000  H
  H463     1.0000 0.40120  0.28310  0.76800  Biso   1.000  H
  H464     1.0000 0.41870  0.29280  0.81550  Biso   1.000  H
  C491     1.0000 0.64290  0.32820  0.58980  Biso   1.000  C
  C492     1.0000 0.63330  0.34190  0.55000  Biso   1.000  C
  C493     1.0000 0.65290  0.33190  0.51140  Biso   1.000  C
  H465     1.0000 0.64630  0.34130  0.48420  Biso   1.000  H
  C494     1.0000 0.68210  0.30820  0.51270  Biso   1.000  C
  C495     1.0000 0.69170  0.29450  0.55250  Biso   1.000  C
  H466     1.0000 0.71170  0.27820  0.55340  Biso   1.000  H
  C496     1.0000 0.67210  0.30450  0.59100  Biso   1.000  C
  C497     1.0000 0.60520  0.36850  0.55150  Biso   1.000  C
  H467     1.0000 0.61190  0.38130  0.52630  Biso   1.000  H
  H468     1.0000 0.57430  0.36250  0.55030  Biso   1.000  H
  H469     1.0000 0.61070  0.37940  0.57890  Biso   1.000  H
  C498     1.0000 0.68260  0.28760  0.63090  Biso   1.000  C
  H470     1.0000 0.69420  0.30250  0.64840  Biso   1.000  H
  H471     1.0000 0.70380  0.27120  0.62530  Biso   1.000  H
  H472     1.0000 0.65630  0.27800  0.64540  Biso   1.000  H
  C499     1.0000 0.70290  0.29910  0.46760  Biso   1.000  C
  H473     1.0000 0.72290  0.28220  0.47210  Biso   1.000  H
  H474     1.0000 0.71930  0.31590  0.45550  Biso   1.000  H
  H475     1.0000 0.67960  0.29330  0.44710  Biso   1.000  H
  C500     1.0000 0.54500  0.27970  0.62740  Biso   1.000  C
  Cu6      1.0000 0.75130  0.00012  0.36646  Biso   1.000  Cu
  N21      1.0000 0.98360  0.20300  0.18840  Biso   1.000  N
  N22      1.0000 0.83190  0.03970  0.34440  Biso   1.000  N
  N23      1.0000 0.72710  0.96120  0.28540  Biso   1.000  N
  N24      1.0000 0.56890  0.79930  0.13570  Biso   1.000  N
  C501     1.0000 0.99240  0.22100  0.16540  Biso   1.000  C
  C502     1.0000 0.96390  0.17890  0.21300  Biso   1.000  C
  C503     1.0000 0.92130  0.16970  0.19910  Biso   1.000  C
  C504     1.0000 0.90260  0.14700  0.22010  Biso   1.000  C
  H476     1.0000 0.87420  0.14060  0.21100  Biso   1.000  H
  C505     1.0000 0.92260  0.13240  0.25410  Biso   1.000  C
  C506     1.0000 0.96530  0.14110  0.26670  Biso   1.000  C
  H477     1.0000 0.98000  0.13010  0.28900  Biso   1.000  H
  C507     1.0000 0.98590  0.16450  0.24800  Biso   1.000  C
  C508     1.0000 0.02870  0.17580  0.26550  Biso   1.000  C
  C509     1.0000 0.02660  0.19810  0.29960  Biso   1.000  C
  C510     1.0000 0.06860  0.20720  0.31990  Biso   1.000  C
  H478     1.0000 0.06860  0.22130  0.34310  Biso   1.000  H
  C511     1.0000 0.10630  0.19580  0.30600  Biso   1.000  C
  C512     1.0000 0.10840  0.17150  0.27530  Biso   1.000  C
  H479     1.0000 0.13530  0.16240  0.26710  Biso   1.000  H
  C513     1.0000 0.06570  0.16190  0.25750  Biso   1.000  C
  C514     1.0000 0.07020  0.13450  0.22840  Biso   1.000  C
  H480     1.0000 0.10110  0.12820  0.22760  Biso   1.000  H
  H481     1.0000 0.06040  0.13930  0.19850  Biso   1.000  H
  H482     1.0000 0.05220  0.11840  0.24020  Biso   1.000  H
  C515     1.0000 0.98320  0.21070  0.31470  Biso   1.000  C
  H483     1.0000 0.98830  0.22540  0.33790  Biso   1.000  H
  H484     1.0000 0.96470  0.19470  0.32610  Biso   1.000  H
  H485     1.0000 0.96840  0.22030  0.28980  Biso   1.000  H
  C516     1.0000 0.15160  0.20590  0.32460  Biso   1.000  C
  H486     1.0000 0.17510  0.19480  0.31000  Biso   1.000  H
  H487     1.0000 0.15250  0.20210  0.35640  Biso   1.000  H
  H488     1.0000 0.15550  0.22720  0.31920  Biso   1.000  H
  C517     1.0000 0.89920  0.18450  0.16020  Biso   1.000  C
  C518     1.0000 0.88960  0.16590  0.12240  Biso   1.000  C
  C519     1.0000 0.86510  0.17810  0.08850  Biso   1.000  C
  H489     1.0000 0.85580  0.16560  0.06510  Biso   1.000  H
  C520     1.0000 0.85340  0.20890  0.08730  Biso   1.000  C
  C521     1.0000 0.85950  0.22360  0.12440  Biso   1.000  C
  H490     1.0000 0.84870  0.24330  0.12610  Biso   1.000  H
  C522     1.0000 0.88130  0.21180  0.16170  Biso   1.000  C
  C523     1.0000 0.88720  0.23200  0.20210  Biso   1.000  C
  H491     1.0000 0.87190  0.25090  0.19720  Biso   1.000  H
  H492     1.0000 0.91860  0.23580  0.20680  Biso   1.000  H
  H493     1.0000 0.87490  0.22220  0.22810  Biso   1.000  H
  C524     1.0000 0.83520  0.22210  0.04770  Biso   1.000  C
  H494     1.0000 0.83370  0.20700  0.02450  Biso   1.000  H
  H495     1.0000 0.85400  0.23850  0.03810  Biso   1.000  H
  H496     1.0000 0.80560  0.22960  0.05390  Biso   1.000  H
  C525     1.0000 0.90510  0.13390  0.11990  Biso   1.000  C
  H497     1.0000 0.92180  0.12900  0.14650  Biso   1.000  H
  H498     1.0000 0.92380  0.13130  0.09400  Biso   1.000  H
  H499     1.0000 0.87960  0.12070  0.11760  Biso   1.000  H
  C526     1.0000 0.90090  0.10700  0.27760  Biso   1.000  C
  C527     1.0000 0.86240  0.09430  0.26010  Biso   1.000  C
  H500     1.0000 0.85180  0.10080  0.23240  Biso   1.000  H
  C528     1.0000 0.84010  0.07270  0.28300  Biso   1.000  C
  C529     1.0000 0.85650  0.06160  0.32210  Biso   1.000  C
  C530     1.0000 0.89540  0.07310  0.34080  Biso   1.000  C
  C531     1.0000 0.91530  0.09600  0.31820  Biso   1.000  C
  C532     1.0000 0.91240  0.06320  0.38420  Biso   1.000  C
  C533     1.0000 0.89140  0.07110  0.42130  Biso   1.000  C
  C534     1.0000 0.90690  0.06390  0.46320  Biso   1.000  C
  H501     1.0000 0.89040  0.06930  0.48850  Biso   1.000  H
  C535     1.0000 0.94340  0.05000  0.46720  Biso   1.000  C
  C536     1.0000 0.96680  0.04190  0.42970  Biso   1.000  C
  H502     1.0000 0.99310  0.03080  0.43350  Biso   1.000  H
  C537     1.0000 0.95350  0.04940  0.38520  Biso   1.000  C
  C538     1.0000 0.98020  0.04260  0.34780  Biso   1.000  C
  H503     1.0000 0.00740  0.03290  0.35750  Biso   1.000  H
  H504     1.0000 0.98730  0.06090  0.33200  Biso   1.000  H
  H505     1.0000 0.96410  0.02910  0.32820  Biso   1.000  H
  C539     1.0000 0.84750  0.08980  0.41910  Biso   1.000  C
  H506     1.0000 0.83680  0.09350  0.44900  Biso   1.000  H
  H507     1.0000 0.82530  0.07860  0.40260  Biso   1.000  H
  H508     1.0000 0.85320  0.10880  0.40430  Biso   1.000  H
  C540     1.0000 0.96040  0.04000  0.51410  Biso   1.000  C
  H509     1.0000 0.98860  0.02970  0.51100  Biso   1.000  H
  H510     1.0000 0.93890  0.02650  0.52750  Biso   1.000  H
  H511     1.0000 0.96410  0.05750  0.53290  Biso   1.000  H
  C541     1.0000 0.80000  0.03890  0.23070  Biso   1.000  C
  C542     1.0000 0.76120  0.02670  0.21460  Biso   1.000  C
  H512     1.0000 0.76220  0.01240  0.19160  Biso   1.000  H
  C543     1.0000 0.72110  0.03530  0.23220  Biso   1.000  C
  C544     1.0000 0.71960  0.05620  0.26580  Biso   1.000  C
  H513     1.0000 0.69220  0.06220  0.27790  Biso   1.000  H
  C545     1.0000 0.75840  0.06850  0.28190  Biso   1.000  C
  C546     1.0000 0.79850  0.05980  0.26440  Biso   1.000  C
  C547     1.0000 0.84420  0.02930  0.20890  Biso   1.000  C
  H514     1.0000 0.86870  0.03950  0.22340  Biso   1.000  H
  H515     1.0000 0.84380  0.03450  0.17760  Biso   1.000  H
  H516     1.0000 0.84800  0.00770  0.21210  Biso   1.000  H
  C548     1.0000 0.67900  0.02110  0.21150  Biso   1.000  C
  H517     1.0000 0.68760  0.00700  0.18840  Biso   1.000  H
  H518     1.0000 0.66050  0.03670  0.19870  Biso   1.000  H
  H519     1.0000 0.66240  0.01060  0.23440  Biso   1.000  H
  C549     1.0000 0.75730  0.08960  0.31910  Biso   1.000  C
  H520     1.0000 0.78740  0.09600  0.32610  Biso   1.000  H
  H521     1.0000 0.74430  0.07990  0.34490  Biso   1.000  H
  H522     1.0000 0.73970  0.10700  0.31100  Biso   1.000  H
  C550     1.0000 0.80450  0.02380  0.35580  Biso   1.000  C
  C551     1.0000 0.73800  0.97740  0.31350  Biso   1.000  C
  C552     1.0000 0.70570  0.93830  0.26200  Biso   1.000  C
  C553     1.0000 0.66500  0.92890  0.28020  Biso   1.000  C
  C554     1.0000 0.64380  0.90680  0.25690  Biso   1.000  C
  H523     1.0000 0.61640  0.89990  0.26780  Biso   1.000  H
  C555     1.0000 0.65980  0.89410  0.21870  Biso   1.000  C
  C556     1.0000 0.69990  0.90490  0.20110  Biso   1.000  C
  H524     1.0000 0.71170  0.89680  0.17480  Biso   1.000  H
  C557     1.0000 0.72160  0.92750  0.22290  Biso   1.000  C
  C558     1.0000 0.76510  0.93800  0.20410  Biso   1.000  C
  C559     1.0000 0.76920  0.95190  0.16510  Biso   1.000  C
  C560     1.0000 0.81040  0.96080  0.14900  Biso   1.000  C
  H525     1.0000 0.81220  0.97260  0.12310  Biso   1.000  H
  C561     1.0000 0.84820  0.95250  0.17050  Biso   1.000  C
  C562     1.0000 0.84480  0.93630  0.20840  Biso   1.000  C
  H526     1.0000 0.87100  0.93050  0.22310  Biso   1.000  H
  C563     1.0000 0.80590  0.92830  0.22590  Biso   1.000  C
  C564     1.0000 0.80390  0.90850  0.26430  Biso   1.000  C
  H527     1.0000 0.77310  0.90510  0.27240  Biso   1.000  H
  H528     1.0000 0.81940  0.91770  0.28900  Biso   1.000  H
  H529     1.0000 0.81780  0.88950  0.25700  Biso   1.000  H
  C565     1.0000 0.72760  0.96000  0.14020  Biso   1.000  C
  H530     1.0000 0.73550  0.96990  0.11260  Biso   1.000  H
  H531     1.0000 0.70970  0.97340  0.15810  Biso   1.000  H
  H532     1.0000 0.71090  0.94190  0.13370  Biso   1.000  H
  C566     1.0000 0.88730  0.96140  0.14260  Biso   1.000  C
  H533     1.0000 0.87710  0.97310  0.11740  Biso   1.000  H
  H534     1.0000 0.90230  0.94350  0.13200  Biso   1.000  H
  H535     1.0000 0.90770  0.97320  0.16030  Biso   1.000  H
  C567     1.0000 0.64530  0.94040  0.32290  Biso   1.000  C
  C568     1.0000 0.66580  0.93220  0.36040  Biso   1.000  C
  C569     1.0000 0.70550  0.91100  0.36240  Biso   1.000  C
  H536     1.0000 0.71460  0.90840  0.39310  Biso   1.000  H
  H537     1.0000 0.72990  0.91950  0.34550  Biso   1.000  H
  H538     1.0000 0.69730  0.89170  0.34990  Biso   1.000  H
  C570     1.0000 0.64690  0.94150  0.40010  Biso   1.000  C
  H539     1.0000 0.66080  0.93650  0.42710  Biso   1.000  H
  C571     1.0000 0.60660  0.95850  0.40110  Biso   1.000  C
  C572     1.0000 0.59520  0.96780  0.36470  Biso   1.000  C
  H540     1.0000 0.57590  0.98440  0.36450  Biso   1.000  H
  C573     1.0000 0.60790  0.95620  0.32280  Biso   1.000  C
  C574     1.0000 0.58550  0.96580  0.27940  Biso   1.000  C
  H541     1.0000 0.55880  0.97710  0.28610  Biso   1.000  H
  H542     1.0000 0.57790  0.94820  0.26220  Biso   1.000  H
  H543     1.0000 0.60570  0.97830  0.26250  Biso   1.000  H
  C575     1.0000 0.58170  0.96680  0.43970  Biso   1.000  C
  H544     1.0000 0.59490  0.95770  0.46580  Biso   1.000  H
  H545     1.0000 0.55130  0.95990  0.43650  Biso   1.000  H
  H546     1.0000 0.58190  0.98850  0.44290  Biso   1.000  H
  C576     1.0000 0.63670  0.87000  0.19520  Biso   1.000  C
  C577     1.0000 0.64440  0.86140  0.15510  Biso   1.000  C
  H547     1.0000 0.66650  0.87200  0.13940  Biso   1.000  H
  C578     1.0000 0.62380  0.83880  0.13310  Biso   1.000  C
  C579     1.0000 0.58960  0.82350  0.15500  Biso   1.000  C
  C580     1.0000 0.57840  0.83180  0.19780  Biso   1.000  C
  C581     1.0000 0.60350  0.85410  0.21880  Biso   1.000  C
  H548     1.0000 0.59820  0.85850  0.24890  Biso   1.000  H
  C582     1.0000 0.54190  0.81860  0.22210  Biso   1.000  C
  C583     1.0000 0.54210  0.78970  0.23550  Biso   1.000  C
  C584     1.0000 0.50720  0.78040  0.26330  Biso   1.000  C
  H549     1.0000 0.51080  0.76280  0.28030  Biso   1.000  H
  C585     1.0000 0.46910  0.79550  0.26650  Biso   1.000  C
  C586     1.0000 0.46930  0.82360  0.25400  Biso   1.000  C
  H550     1.0000 0.44450  0.83550  0.26110  Biso   1.000  H
  C587     1.0000 0.50340  0.83670  0.23100  Biso   1.000  C
  C588     1.0000 0.49990  0.86740  0.21460  Biso   1.000  C
  H551     1.0000 0.52700  0.87280  0.19920  Biso   1.000  H
  H552     1.0000 0.49520  0.88090  0.23940  Biso   1.000  H
  H553     1.0000 0.47500  0.86880  0.19420  Biso   1.000  H
  C589     1.0000 0.58030  0.76880  0.23010  Biso   1.000  C
  H554     1.0000 0.57260  0.74930  0.24220  Biso   1.000  H
  H555     1.0000 0.60590  0.77680  0.24570  Biso   1.000  H
  H556     1.0000 0.58730  0.76680  0.19870  Biso   1.000  H
  C590     1.0000 0.42580  0.78170  0.28870  Biso   1.000  C
  H557     1.0000 0.43110  0.76080  0.29600  Biso   1.000  H
  H558     1.0000 0.40120  0.78310  0.26800  Biso   1.000  H
  H559     1.0000 0.41870  0.79280  0.31550  Biso   1.000  H
  C591     1.0000 0.64290  0.82820  0.08980  Biso   1.000  C
  C592     1.0000 0.63330  0.84190  0.05000  Biso   1.000  C
  C593     1.0000 0.65290  0.83190  0.01140  Biso   1.000  C
  H560     1.0000 0.64630  0.84130  0.98420  Biso   1.000  H
  C594     1.0000 0.68210  0.80820  0.01270  Biso   1.000  C
  C595     1.0000 0.69170  0.79450  0.05250  Biso   1.000  C
  H561     1.0000 0.71170  0.77820  0.05340  Biso   1.000  H
  C596     1.0000 0.67210  0.80450  0.09100  Biso   1.000  C
  C597     1.0000 0.60520  0.86850  0.05150  Biso   1.000  C
  H562     1.0000 0.61190  0.88130  0.02630  Biso   1.000  H
  H563     1.0000 0.57430  0.86250  0.05030  Biso   1.000  H
  H564     1.0000 0.61070  0.87940  0.07890  Biso   1.000  H
  C598     1.0000 0.68260  0.78760  0.13090  Biso   1.000  C
  H565     1.0000 0.69420  0.80250  0.14840  Biso   1.000  H
  H566     1.0000 0.70380  0.77120  0.12530  Biso   1.000  H
  H567     1.0000 0.65630  0.77800  0.14540  Biso   1.000  H
  C599     1.0000 0.70290  0.79910  0.96760  Biso   1.000  C
  H568     1.0000 0.72290  0.78220  0.97210  Biso   1.000  H
  H569     1.0000 0.71930  0.81590  0.95550  Biso   1.000  H
  H570     1.0000 0.67960  0.79330  0.94710  Biso   1.000  H
  C600     1.0000 0.54500  0.77970  0.12740  Biso   1.000  C
  Cu7      1.0000 0.25130  0.50012  0.36646  Biso   1.000  Cu
  N25      1.0000 0.48360  0.70300  0.18840  Biso   1.000  N
  N26      1.0000 0.33190  0.53970  0.34440  Biso   1.000  N
  N27      1.0000 0.22710  0.46120  0.28540  Biso   1.000  N
  N28      1.0000 0.06890  0.29930  0.13570  Biso   1.000  N
  C601     1.0000 0.49240  0.72100  0.16540  Biso   1.000  C
  C602     1.0000 0.46390  0.67890  0.21300  Biso   1.000  C
  C603     1.0000 0.42130  0.66970  0.19910  Biso   1.000  C
  C604     1.0000 0.40260  0.64700  0.22010  Biso   1.000  C
  H571     1.0000 0.37420  0.64060  0.21100  Biso   1.000  H
  C605     1.0000 0.42260  0.63240  0.25410  Biso   1.000  C
  C606     1.0000 0.46530  0.64110  0.26670  Biso   1.000  C
  H572     1.0000 0.48000  0.63010  0.28900  Biso   1.000  H
  C607     1.0000 0.48590  0.66450  0.24800  Biso   1.000  C
  C608     1.0000 0.52870  0.67580  0.26550  Biso   1.000  C
  C609     1.0000 0.52660  0.69810  0.29960  Biso   1.000  C
  C610     1.0000 0.56860  0.70720  0.31990  Biso   1.000  C
  H573     1.0000 0.56860  0.72130  0.34310  Biso   1.000  H
  C611     1.0000 0.60630  0.69580  0.30600  Biso   1.000  C
  C612     1.0000 0.60840  0.67150  0.27530  Biso   1.000  C
  H574     1.0000 0.63530  0.66240  0.26710  Biso   1.000  H
  C613     1.0000 0.56570  0.66190  0.25750  Biso   1.000  C
  C614     1.0000 0.57020  0.63450  0.22840  Biso   1.000  C
  H575     1.0000 0.60110  0.62820  0.22760  Biso   1.000  H
  H576     1.0000 0.56040  0.63930  0.19850  Biso   1.000  H
  H577     1.0000 0.55220  0.61840  0.24020  Biso   1.000  H
  C615     1.0000 0.48320  0.71070  0.31470  Biso   1.000  C
  H578     1.0000 0.48830  0.72540  0.33790  Biso   1.000  H
  H579     1.0000 0.46470  0.69470  0.32610  Biso   1.000  H
  H580     1.0000 0.46840  0.72030  0.28980  Biso   1.000  H
  C616     1.0000 0.65160  0.70590  0.32460  Biso   1.000  C
  H581     1.0000 0.67510  0.69480  0.31000  Biso   1.000  H
  H582     1.0000 0.65250  0.70210  0.35640  Biso   1.000  H
  H583     1.0000 0.65550  0.72720  0.31920  Biso   1.000  H
  C617     1.0000 0.39920  0.68450  0.16020  Biso   1.000  C
  C618     1.0000 0.38960  0.66590  0.12240  Biso   1.000  C
  C619     1.0000 0.36510  0.67810  0.08850  Biso   1.000  C
  H584     1.0000 0.35580  0.66560  0.06510  Biso   1.000  H
  C620     1.0000 0.35340  0.70890  0.08730  Biso   1.000  C
  C621     1.0000 0.35950  0.72360  0.12440  Biso   1.000  C
  H585     1.0000 0.34870  0.74330  0.12610  Biso   1.000  H
  C622     1.0000 0.38130  0.71180  0.16170  Biso   1.000  C
  C623     1.0000 0.38720  0.73200  0.20210  Biso   1.000  C
  H586     1.0000 0.37190  0.75090  0.19720  Biso   1.000  H
  H587     1.0000 0.41860  0.73580  0.20680  Biso   1.000  H
  H588     1.0000 0.37490  0.72220  0.22810  Biso   1.000  H
  C624     1.0000 0.33520  0.72210  0.04770  Biso   1.000  C
  H589     1.0000 0.33370  0.70700  0.02450  Biso   1.000  H
  H590     1.0000 0.35400  0.73850  0.03810  Biso   1.000  H
  H591     1.0000 0.30560  0.72960  0.05390  Biso   1.000  H
  C625     1.0000 0.40510  0.63390  0.11990  Biso   1.000  C
  H592     1.0000 0.42180  0.62900  0.14650  Biso   1.000  H
  H593     1.0000 0.42380  0.63130  0.09400  Biso   1.000  H
  H594     1.0000 0.37960  0.62070  0.11760  Biso   1.000  H
  C626     1.0000 0.40090  0.60700  0.27760  Biso   1.000  C
  C627     1.0000 0.36240  0.59430  0.26010  Biso   1.000  C
  H595     1.0000 0.35180  0.60080  0.23240  Biso   1.000  H
  C628     1.0000 0.34010  0.57270  0.28300  Biso   1.000  C
  C629     1.0000 0.35650  0.56160  0.32210  Biso   1.000  C
  C630     1.0000 0.39540  0.57310  0.34080  Biso   1.000  C
  C631     1.0000 0.41530  0.59600  0.31820  Biso   1.000  C
  C632     1.0000 0.41240  0.56320  0.38420  Biso   1.000  C
  C633     1.0000 0.39140  0.57110  0.42130  Biso   1.000  C
  C634     1.0000 0.40690  0.56390  0.46320  Biso   1.000  C
  H596     1.0000 0.39040  0.56930  0.48850  Biso   1.000  H
  C635     1.0000 0.44340  0.55000  0.46720  Biso   1.000  C
  C636     1.0000 0.46680  0.54190  0.42970  Biso   1.000  C
  H597     1.0000 0.49310  0.53080  0.43350  Biso   1.000  H
  C637     1.0000 0.45350  0.54940  0.38520  Biso   1.000  C
  C638     1.0000 0.48020  0.54260  0.34780  Biso   1.000  C
  H598     1.0000 0.50740  0.53290  0.35750  Biso   1.000  H
  H599     1.0000 0.48730  0.56090  0.33200  Biso   1.000  H
  H600     1.0000 0.46410  0.52910  0.32820  Biso   1.000  H
  C639     1.0000 0.34750  0.58980  0.41910  Biso   1.000  C
  H601     1.0000 0.33680  0.59350  0.44900  Biso   1.000  H
  H602     1.0000 0.32530  0.57860  0.40260  Biso   1.000  H
  H603     1.0000 0.35320  0.60880  0.40430  Biso   1.000  H
  C640     1.0000 0.46040  0.54000  0.51410  Biso   1.000  C
  H604     1.0000 0.48860  0.52970  0.51100  Biso   1.000  H
  H605     1.0000 0.43890  0.52650  0.52750  Biso   1.000  H
  H606     1.0000 0.46410  0.55750  0.53290  Biso   1.000  H
  C641     1.0000 0.30000  0.53890  0.23070  Biso   1.000  C
  C642     1.0000 0.26120  0.52670  0.21460  Biso   1.000  C
  H607     1.0000 0.26220  0.51240  0.19160  Biso   1.000  H
  C643     1.0000 0.22110  0.53530  0.23220  Biso   1.000  C
  C644     1.0000 0.21960  0.55620  0.26580  Biso   1.000  C
  H608     1.0000 0.19220  0.56220  0.27790  Biso   1.000  H
  C645     1.0000 0.25840  0.56850  0.28190  Biso   1.000  C
  C646     1.0000 0.29850  0.55980  0.26440  Biso   1.000  C
  C647     1.0000 0.34420  0.52930  0.20890  Biso   1.000  C
  H609     1.0000 0.36870  0.53950  0.22340  Biso   1.000  H
  H610     1.0000 0.34380  0.53450  0.17760  Biso   1.000  H
  H611     1.0000 0.34800  0.50770  0.21210  Biso   1.000  H
  C648     1.0000 0.17900  0.52110  0.21150  Biso   1.000  C
  H612     1.0000 0.18760  0.50700  0.18840  Biso   1.000  H
  H613     1.0000 0.16050  0.53670  0.19870  Biso   1.000  H
  H614     1.0000 0.16240  0.51060  0.23440  Biso   1.000  H
  C649     1.0000 0.25730  0.58960  0.31910  Biso   1.000  C
  H615     1.0000 0.28740  0.59600  0.32610  Biso   1.000  H
  H616     1.0000 0.24430  0.57990  0.34490  Biso   1.000  H
  H617     1.0000 0.23970  0.60700  0.31100  Biso   1.000  H
  C650     1.0000 0.30450  0.52380  0.35580  Biso   1.000  C
  C651     1.0000 0.23800  0.47740  0.31350  Biso   1.000  C
  C652     1.0000 0.20570  0.43830  0.26200  Biso   1.000  C
  C653     1.0000 0.16500  0.42890  0.28020  Biso   1.000  C
  C654     1.0000 0.14380  0.40680  0.25690  Biso   1.000  C
  H618     1.0000 0.11640  0.39990  0.26780  Biso   1.000  H
  C655     1.0000 0.15980  0.39410  0.21870  Biso   1.000  C
  C656     1.0000 0.19990  0.40490  0.20110  Biso   1.000  C
  H619     1.0000 0.21170  0.39680  0.17480  Biso   1.000  H
  C657     1.0000 0.22160  0.42750  0.22290  Biso   1.000  C
  C658     1.0000 0.26510  0.43800  0.20410  Biso   1.000  C
  C659     1.0000 0.26920  0.45190  0.16510  Biso   1.000  C
  C660     1.0000 0.31040  0.46080  0.14900  Biso   1.000  C
  H620     1.0000 0.31220  0.47260  0.12310  Biso   1.000  H
  C661     1.0000 0.34820  0.45250  0.17050  Biso   1.000  C
  C662     1.0000 0.34480  0.43630  0.20840  Biso   1.000  C
  H621     1.0000 0.37100  0.43050  0.22310  Biso   1.000  H
  C663     1.0000 0.30590  0.42830  0.22590  Biso   1.000  C
  C664     1.0000 0.30390  0.40850  0.26430  Biso   1.000  C
  H622     1.0000 0.27310  0.40510  0.27240  Biso   1.000  H
  H623     1.0000 0.31940  0.41770  0.28900  Biso   1.000  H
  H624     1.0000 0.31780  0.38950  0.25700  Biso   1.000  H
  C665     1.0000 0.22760  0.46000  0.14020  Biso   1.000  C
  H625     1.0000 0.23550  0.46990  0.11260  Biso   1.000  H
  H626     1.0000 0.20970  0.47340  0.15810  Biso   1.000  H
  H627     1.0000 0.21090  0.44190  0.13370  Biso   1.000  H
  C666     1.0000 0.38730  0.46140  0.14260  Biso   1.000  C
  H628     1.0000 0.37710  0.47310  0.11740  Biso   1.000  H
  H629     1.0000 0.40230  0.44350  0.13200  Biso   1.000  H
  H630     1.0000 0.40770  0.47320  0.16030  Biso   1.000  H
  C667     1.0000 0.14530  0.44040  0.32290  Biso   1.000  C
  C668     1.0000 0.16580  0.43220  0.36040  Biso   1.000  C
  C669     1.0000 0.20550  0.41100  0.36240  Biso   1.000  C
  H631     1.0000 0.21460  0.40840  0.39310  Biso   1.000  H
  H632     1.0000 0.22990  0.41950  0.34550  Biso   1.000  H
  H633     1.0000 0.19730  0.39170  0.34990  Biso   1.000  H
  C670     1.0000 0.14690  0.44150  0.40010  Biso   1.000  C
  H634     1.0000 0.16080  0.43650  0.42710  Biso   1.000  H
  C671     1.0000 0.10660  0.45850  0.40110  Biso   1.000  C
  C672     1.0000 0.09520  0.46780  0.36470  Biso   1.000  C
  H635     1.0000 0.07590  0.48440  0.36450  Biso   1.000  H
  C673     1.0000 0.10790  0.45620  0.32280  Biso   1.000  C
  C674     1.0000 0.08550  0.46580  0.27940  Biso   1.000  C
  H636     1.0000 0.05880  0.47710  0.28610  Biso   1.000  H
  H637     1.0000 0.07790  0.44820  0.26220  Biso   1.000  H
  H638     1.0000 0.10570  0.47830  0.26250  Biso   1.000  H
  C675     1.0000 0.08170  0.46680  0.43970  Biso   1.000  C
  H639     1.0000 0.09490  0.45770  0.46580  Biso   1.000  H
  H640     1.0000 0.05130  0.45990  0.43650  Biso   1.000  H
  H641     1.0000 0.08190  0.48850  0.44290  Biso   1.000  H
  C676     1.0000 0.13670  0.37000  0.19520  Biso   1.000  C
  C677     1.0000 0.14440  0.36140  0.15510  Biso   1.000  C
  H642     1.0000 0.16650  0.37200  0.13940  Biso   1.000  H
  C678     1.0000 0.12380  0.33880  0.13310  Biso   1.000  C
  C679     1.0000 0.08960  0.32350  0.15500  Biso   1.000  C
  C680     1.0000 0.07840  0.33180  0.19780  Biso   1.000  C
  C681     1.0000 0.10350  0.35410  0.21880  Biso   1.000  C
  H643     1.0000 0.09820  0.35850  0.24890  Biso   1.000  H
  C682     1.0000 0.04190  0.31860  0.22210  Biso   1.000  C
  C683     1.0000 0.04210  0.28970  0.23550  Biso   1.000  C
  C684     1.0000 0.00720  0.28040  0.26330  Biso   1.000  C
  H644     1.0000 0.01080  0.26280  0.28030  Biso   1.000  H
  C685     1.0000 0.96910  0.29550  0.26650  Biso   1.000  C
  C686     1.0000 0.96930  0.32360  0.25400  Biso   1.000  C
  H645     1.0000 0.94450  0.33550  0.26110  Biso   1.000  H
  C687     1.0000 0.00340  0.33670  0.23100  Biso   1.000  C
  C688     1.0000 0.99990  0.36740  0.21460  Biso   1.000  C
  H646     1.0000 0.02700  0.37280  0.19920  Biso   1.000  H
  H647     1.0000 0.99520  0.38090  0.23940  Biso   1.000  H
  H648     1.0000 0.97500  0.36880  0.19420  Biso   1.000  H
  C689     1.0000 0.08030  0.26880  0.23010  Biso   1.000  C
  H649     1.0000 0.07260  0.24930  0.24220  Biso   1.000  H
  H650     1.0000 0.10590  0.27680  0.24570  Biso   1.000  H
  H651     1.0000 0.08730  0.26680  0.19870  Biso   1.000  H
  C690     1.0000 0.92580  0.28170  0.28870  Biso   1.000  C
  H652     1.0000 0.93110  0.26080  0.29600  Biso   1.000  H
  H653     1.0000 0.90120  0.28310  0.26800  Biso   1.000  H
  H654     1.0000 0.91870  0.29280  0.31550  Biso   1.000  H
  C691     1.0000 0.14290  0.32820  0.08980  Biso   1.000  C
  C692     1.0000 0.13330  0.34190  0.05000  Biso   1.000  C
  C693     1.0000 0.15290  0.33190  0.01140  Biso   1.000  C
  H655     1.0000 0.14630  0.34130  0.98420  Biso   1.000  H
  C694     1.0000 0.18210  0.30820  0.01270  Biso   1.000  C
  C695     1.0000 0.19170  0.29450  0.05250  Biso   1.000  C
  H656     1.0000 0.21170  0.27820  0.05340  Biso   1.000  H
  C696     1.0000 0.17210  0.30450  0.09100  Biso   1.000  C
  C697     1.0000 0.10520  0.36850  0.05150  Biso   1.000  C
  H657     1.0000 0.11190  0.38130  0.02630  Biso   1.000  H
  H658     1.0000 0.07430  0.36250  0.05030  Biso   1.000  H
  H659     1.0000 0.11070  0.37940  0.07890  Biso   1.000  H
  C698     1.0000 0.18260  0.28760  0.13090  Biso   1.000  C
  H660     1.0000 0.19420  0.30250  0.14840  Biso   1.000  H
  H661     1.0000 0.20380  0.27120  0.12530  Biso   1.000  H
  H662     1.0000 0.15630  0.27800  0.14540  Biso   1.000  H
  C699     1.0000 0.20290  0.29910  0.96760  Biso   1.000  C
  H663     1.0000 0.22290  0.28220  0.97210  Biso   1.000  H
  H664     1.0000 0.21930  0.31590  0.95550  Biso   1.000  H
  H665     1.0000 0.17960  0.29330  0.94710  Biso   1.000  H
  C700     1.0000 0.04500  0.27970  0.12740  Biso   1.000  C
  Cu8      1.0000 0.25130  0.00012  0.86646  Biso   1.000  Cu
  N29      1.0000 0.48360  0.20300  0.68840  Biso   1.000  N
  N30      1.0000 0.33190  0.03970  0.84440  Biso   1.000  N
  N31      1.0000 0.22710  0.96120  0.78540  Biso   1.000  N
  N32      1.0000 0.06890  0.79930  0.63570  Biso   1.000  N
  C701     1.0000 0.49240  0.22100  0.66540  Biso   1.000  C
  C702     1.0000 0.46390  0.17890  0.71300  Biso   1.000  C
  C703     1.0000 0.42130  0.16970  0.69910  Biso   1.000  C
  C704     1.0000 0.40260  0.14700  0.72010  Biso   1.000  C
  H666     1.0000 0.37420  0.14060  0.71100  Biso   1.000  H
  C705     1.0000 0.42260  0.13240  0.75410  Biso   1.000  C
  C706     1.0000 0.46530  0.14110  0.76670  Biso   1.000  C
  H667     1.0000 0.48000  0.13010  0.78900  Biso   1.000  H
  C707     1.0000 0.48590  0.16450  0.74800  Biso   1.000  C
  C708     1.0000 0.52870  0.17580  0.76550  Biso   1.000  C
  C709     1.0000 0.52660  0.19810  0.79960  Biso   1.000  C
  C710     1.0000 0.56860  0.20720  0.81990  Biso   1.000  C
  H668     1.0000 0.56860  0.22130  0.84310  Biso   1.000  H
  C711     1.0000 0.60630  0.19580  0.80600  Biso   1.000  C
  C712     1.0000 0.60840  0.17150  0.77530  Biso   1.000  C
  H669     1.0000 0.63530  0.16240  0.76710  Biso   1.000  H
  C713     1.0000 0.56570  0.16190  0.75750  Biso   1.000  C
  C714     1.0000 0.57020  0.13450  0.72840  Biso   1.000  C
  H670     1.0000 0.60110  0.12820  0.72760  Biso   1.000  H
  H671     1.0000 0.56040  0.13930  0.69850  Biso   1.000  H
  H672     1.0000 0.55220  0.11840  0.74020  Biso   1.000  H
  C715     1.0000 0.48320  0.21070  0.81470  Biso   1.000  C
  H673     1.0000 0.48830  0.22540  0.83790  Biso   1.000  H
  H674     1.0000 0.46470  0.19470  0.82610  Biso   1.000  H
  H675     1.0000 0.46840  0.22030  0.78980  Biso   1.000  H
  C716     1.0000 0.65160  0.20590  0.82460  Biso   1.000  C
  H676     1.0000 0.67510  0.19480  0.81000  Biso   1.000  H
  H677     1.0000 0.65250  0.20210  0.85640  Biso   1.000  H
  H678     1.0000 0.65550  0.22720  0.81920  Biso   1.000  H
  C717     1.0000 0.39920  0.18450  0.66020  Biso   1.000  C
  C718     1.0000 0.38960  0.16590  0.62240  Biso   1.000  C
  C719     1.0000 0.36510  0.17810  0.58850  Biso   1.000  C
  H679     1.0000 0.35580  0.16560  0.56510  Biso   1.000  H
  C720     1.0000 0.35340  0.20890  0.58730  Biso   1.000  C
  C721     1.0000 0.35950  0.22360  0.62440  Biso   1.000  C
  H680     1.0000 0.34870  0.24330  0.62610  Biso   1.000  H
  C722     1.0000 0.38130  0.21180  0.66170  Biso   1.000  C
  C723     1.0000 0.38720  0.23200  0.70210  Biso   1.000  C
  H681     1.0000 0.37190  0.25090  0.69720  Biso   1.000  H
  H682     1.0000 0.41860  0.23580  0.70680  Biso   1.000  H
  H683     1.0000 0.37490  0.22220  0.72810  Biso   1.000  H
  C724     1.0000 0.33520  0.22210  0.54770  Biso   1.000  C
  H684     1.0000 0.33370  0.20700  0.52450  Biso   1.000  H
  H685     1.0000 0.35400  0.23850  0.53810  Biso   1.000  H
  H686     1.0000 0.30560  0.22960  0.55390  Biso   1.000  H
  C725     1.0000 0.40510  0.13390  0.61990  Biso   1.000  C
  H687     1.0000 0.42180  0.12900  0.64650  Biso   1.000  H
  H688     1.0000 0.42380  0.13130  0.59400  Biso   1.000  H
  H689     1.0000 0.37960  0.12070  0.61760  Biso   1.000  H
  C726     1.0000 0.40090  0.10700  0.77760  Biso   1.000  C
  C727     1.0000 0.36240  0.09430  0.76010  Biso   1.000  C
  H690     1.0000 0.35180  0.10080  0.73240  Biso   1.000  H
  C728     1.0000 0.34010  0.07270  0.78300  Biso   1.000  C
  C729     1.0000 0.35650  0.06160  0.82210  Biso   1.000  C
  C730     1.0000 0.39540  0.07310  0.84080  Biso   1.000  C
  C731     1.0000 0.41530  0.09600  0.81820  Biso   1.000  C
  C732     1.0000 0.41240  0.06320  0.88420  Biso   1.000  C
  C733     1.0000 0.39140  0.07110  0.92130  Biso   1.000  C
  C734     1.0000 0.40690  0.06390  0.96320  Biso   1.000  C
  H691     1.0000 0.39040  0.06930  0.98850  Biso   1.000  H
  C735     1.0000 0.44340  0.05000  0.96720  Biso   1.000  C
  C736     1.0000 0.46680  0.04190  0.92970  Biso   1.000  C
  H692     1.0000 0.49310  0.03080  0.93350  Biso   1.000  H
  C737     1.0000 0.45350  0.04940  0.88520  Biso   1.000  C
  C738     1.0000 0.48020  0.04260  0.84780  Biso   1.000  C
  H693     1.0000 0.50740  0.03290  0.85750  Biso   1.000  H
  H694     1.0000 0.48730  0.06090  0.83200  Biso   1.000  H
  H695     1.0000 0.46410  0.02910  0.82820  Biso   1.000  H
  C739     1.0000 0.34750  0.08980  0.91910  Biso   1.000  C
  H696     1.0000 0.33680  0.09350  0.94900  Biso   1.000  H
  H697     1.0000 0.32530  0.07860  0.90260  Biso   1.000  H
  H698     1.0000 0.35320  0.10880  0.90430  Biso   1.000  H
  C740     1.0000 0.46040  0.04000  0.01410  Biso   1.000  C
  H699     1.0000 0.48860  0.02970  0.01100  Biso   1.000  H
  H700     1.0000 0.43890  0.02650  0.02750  Biso   1.000  H
  H701     1.0000 0.46410  0.05750  0.03290  Biso   1.000  H
  C741     1.0000 0.30000  0.03890  0.73070  Biso   1.000  C
  C742     1.0000 0.26120  0.02670  0.71460  Biso   1.000  C
  H702     1.0000 0.26220  0.01240  0.69160  Biso   1.000  H
  C743     1.0000 0.22110  0.03530  0.73220  Biso   1.000  C
  C744     1.0000 0.21960  0.05620  0.76580  Biso   1.000  C
  H703     1.0000 0.19220  0.06220  0.77790  Biso   1.000  H
  C745     1.0000 0.25840  0.06850  0.78190  Biso   1.000  C
  C746     1.0000 0.29850  0.05980  0.76440  Biso   1.000  C
  C747     1.0000 0.34420  0.02930  0.70890  Biso   1.000  C
  H704     1.0000 0.36870  0.03950  0.72340  Biso   1.000  H
  H705     1.0000 0.34380  0.03450  0.67760  Biso   1.000  H
  H706     1.0000 0.34800  0.00770  0.71210  Biso   1.000  H
  C748     1.0000 0.17900  0.02110  0.71150  Biso   1.000  C
  H707     1.0000 0.18760  0.00700  0.68840  Biso   1.000  H
  H708     1.0000 0.16050  0.03670  0.69870  Biso   1.000  H
  H709     1.0000 0.16240  0.01060  0.73440  Biso   1.000  H
  C749     1.0000 0.25730  0.08960  0.81910  Biso   1.000  C
  H710     1.0000 0.28740  0.09600  0.82610  Biso   1.000  H
  H711     1.0000 0.24430  0.07990  0.84490  Biso   1.000  H
  H712     1.0000 0.23970  0.10700  0.81100  Biso   1.000  H
  C750     1.0000 0.30450  0.02380  0.85580  Biso   1.000  C
  C751     1.0000 0.23800  0.97740  0.81350  Biso   1.000  C
  C752     1.0000 0.20570  0.93830  0.76200  Biso   1.000  C
  C753     1.0000 0.16500  0.92890  0.78020  Biso   1.000  C
  C754     1.0000 0.14380  0.90680  0.75690  Biso   1.000  C
  H713     1.0000 0.11640  0.89990  0.76780  Biso   1.000  H
  C755     1.0000 0.15980  0.89410  0.71870  Biso   1.000  C
  C756     1.0000 0.19990  0.90490  0.70110  Biso   1.000  C
  H714     1.0000 0.21170  0.89680  0.67480  Biso   1.000  H
  C757     1.0000 0.22160  0.92750  0.72290  Biso   1.000  C
  C758     1.0000 0.26510  0.93800  0.70410  Biso   1.000  C
  C759     1.0000 0.26920  0.95190  0.66510  Biso   1.000  C
  C760     1.0000 0.31040  0.96080  0.64900  Biso   1.000  C
  H715     1.0000 0.31220  0.97260  0.62310  Biso   1.000  H
  C761     1.0000 0.34820  0.95250  0.67050  Biso   1.000  C
  C762     1.0000 0.34480  0.93630  0.70840  Biso   1.000  C
  H716     1.0000 0.37100  0.93050  0.72310  Biso   1.000  H
  C763     1.0000 0.30590  0.92830  0.72590  Biso   1.000  C
  C764     1.0000 0.30390  0.90850  0.76430  Biso   1.000  C
  H717     1.0000 0.27310  0.90510  0.77240  Biso   1.000  H
  H718     1.0000 0.31940  0.91770  0.78900  Biso   1.000  H
  H719     1.0000 0.31780  0.88950  0.75700  Biso   1.000  H
  C765     1.0000 0.22760  0.96000  0.64020  Biso   1.000  C
  H720     1.0000 0.23550  0.96990  0.61260  Biso   1.000  H
  H721     1.0000 0.20970  0.97340  0.65810  Biso   1.000  H
  H722     1.0000 0.21090  0.94190  0.63370  Biso   1.000  H
  C766     1.0000 0.38730  0.96140  0.64260  Biso   1.000  C
  H723     1.0000 0.37710  0.97310  0.61740  Biso   1.000  H
  H724     1.0000 0.40230  0.94350  0.63200  Biso   1.000  H
  H725     1.0000 0.40770  0.97320  0.66030  Biso   1.000  H
  C767     1.0000 0.14530  0.94040  0.82290  Biso   1.000  C
  C768     1.0000 0.16580  0.93220  0.86040  Biso   1.000  C
  C769     1.0000 0.20550  0.91100  0.86240  Biso   1.000  C
  H726     1.0000 0.21460  0.90840  0.89310  Biso   1.000  H
  H727     1.0000 0.22990  0.91950  0.84550  Biso   1.000  H
  H728     1.0000 0.19730  0.89170  0.84990  Biso   1.000  H
  C770     1.0000 0.14690  0.94150  0.90010  Biso   1.000  C
  H729     1.0000 0.16080  0.93650  0.92710  Biso   1.000  H
  C771     1.0000 0.10660  0.95850  0.90110  Biso   1.000  C
  C772     1.0000 0.09520  0.96780  0.86470  Biso   1.000  C
  H730     1.0000 0.07590  0.98440  0.86450  Biso   1.000  H
  C773     1.0000 0.10790  0.95620  0.82280  Biso   1.000  C
  C774     1.0000 0.08550  0.96580  0.77940  Biso   1.000  C
  H731     1.0000 0.05880  0.97710  0.78610  Biso   1.000  H
  H732     1.0000 0.07790  0.94820  0.76220  Biso   1.000  H
  H733     1.0000 0.10570  0.97830  0.76250  Biso   1.000  H
  C775     1.0000 0.08170  0.96680  0.93970  Biso   1.000  C
  H734     1.0000 0.09490  0.95770  0.96580  Biso   1.000  H
  H735     1.0000 0.05130  0.95990  0.93650  Biso   1.000  H
  H736     1.0000 0.08190  0.98850  0.94290  Biso   1.000  H
  C776     1.0000 0.13670  0.87000  0.69520  Biso   1.000  C
  C777     1.0000 0.14440  0.86140  0.65510  Biso   1.000  C
  H737     1.0000 0.16650  0.87200  0.63940  Biso   1.000  H
  C778     1.0000 0.12380  0.83880  0.63310  Biso   1.000  C
  C779     1.0000 0.08960  0.82350  0.65500  Biso   1.000  C
  C780     1.0000 0.07840  0.83180  0.69780  Biso   1.000  C
  C781     1.0000 0.10350  0.85410  0.71880  Biso   1.000  C
  H738     1.0000 0.09820  0.85850  0.74890  Biso   1.000  H
  C782     1.0000 0.04190  0.81860  0.72210  Biso   1.000  C
  C783     1.0000 0.04210  0.78970  0.73550  Biso   1.000  C
  C784     1.0000 0.00720  0.78040  0.76330  Biso   1.000  C
  H739     1.0000 0.01080  0.76280  0.78030  Biso   1.000  H
  C785     1.0000 0.96910  0.79550  0.76650  Biso   1.000  C
  C786     1.0000 0.96930  0.82360  0.75400  Biso   1.000  C
  H740     1.0000 0.94450  0.83550  0.76110  Biso   1.000  H
  C787     1.0000 0.00340  0.83670  0.73100  Biso   1.000  C
  C788     1.0000 0.99990  0.86740  0.71460  Biso   1.000  C
  H741     1.0000 0.02700  0.87280  0.69920  Biso   1.000  H
  H742     1.0000 0.99520  0.88090  0.73940  Biso   1.000  H
  H743     1.0000 0.97500  0.86880  0.69420  Biso   1.000  H
  C789     1.0000 0.08030  0.76880  0.73010  Biso   1.000  C
  H744     1.0000 0.07260  0.74930  0.74220  Biso   1.000  H
  H745     1.0000 0.10590  0.77680  0.74570  Biso   1.000  H
  H746     1.0000 0.08730  0.76680  0.69870  Biso   1.000  H
  C790     1.0000 0.92580  0.78170  0.78870  Biso   1.000  C
  H747     1.0000 0.93110  0.76080  0.79600  Biso   1.000  H
  H748     1.0000 0.90120  0.78310  0.76800  Biso   1.000  H
  H749     1.0000 0.91870  0.79280  0.81550  Biso   1.000  H
  C791     1.0000 0.14290  0.82820  0.58980  Biso   1.000  C
  C792     1.0000 0.13330  0.84190  0.55000  Biso   1.000  C
  C793     1.0000 0.15290  0.83190  0.51140  Biso   1.000  C
  H750     1.0000 0.14630  0.84130  0.48420  Biso   1.000  H
  C794     1.0000 0.18210  0.80820  0.51270  Biso   1.000  C
  C795     1.0000 0.19170  0.79450  0.55250  Biso   1.000  C
  H751     1.0000 0.21170  0.77820  0.55340  Biso   1.000  H
  C796     1.0000 0.17210  0.80450  0.59100  Biso   1.000  C
  C797     1.0000 0.10520  0.86850  0.55150  Biso   1.000  C
  H752     1.0000 0.11190  0.88130  0.52630  Biso   1.000  H
  H753     1.0000 0.07430  0.86250  0.55030  Biso   1.000  H
  H754     1.0000 0.11070  0.87940  0.57890  Biso   1.000  H
  C798     1.0000 0.18260  0.78760  0.63090  Biso   1.000  C
  H755     1.0000 0.19420  0.80250  0.64840  Biso   1.000  H
  H756     1.0000 0.20380  0.77120  0.62530  Biso   1.000  H
  H757     1.0000 0.15630  0.77800  0.64540  Biso   1.000  H
  C799     1.0000 0.20290  0.79910  0.46760  Biso   1.000  C
  H758     1.0000 0.22290  0.78220  0.47210  Biso   1.000  H
  H759     1.0000 0.21930  0.81590  0.45550  Biso   1.000  H
  H760     1.0000 0.17960  0.79330  0.44710  Biso   1.000  H
  C800     1.0000 0.04500  0.77970  0.62740  Biso   1.000  C
  Cu9      1.0000 0.50130  0.74988  0.61646  Biso   1.000  Cu
  N33      1.0000 0.73360  0.54700  0.43840  Biso   1.000  N
  N34      1.0000 0.58190  0.71030  0.59440  Biso   1.000  N
  N35      1.0000 0.47710  0.78880  0.53540  Biso   1.000  N
  N36      1.0000 0.31890  0.95070  0.38570  Biso   1.000  N
  C801     1.0000 0.74240  0.52900  0.41540  Biso   1.000  C
  C802     1.0000 0.71390  0.57110  0.46300  Biso   1.000  C
  C803     1.0000 0.67130  0.58030  0.44910  Biso   1.000  C
  C804     1.0000 0.65260  0.60300  0.47010  Biso   1.000  C
  H761     1.0000 0.62420  0.60940  0.46100  Biso   1.000  H
  C805     1.0000 0.67260  0.61760  0.50410  Biso   1.000  C
  C806     1.0000 0.71530  0.60890  0.51670  Biso   1.000  C
  H762     1.0000 0.73000  0.61990  0.53900  Biso   1.000  H
  C807     1.0000 0.73590  0.58550  0.49800  Biso   1.000  C
  C808     1.0000 0.77870  0.57420  0.51550  Biso   1.000  C
  C809     1.0000 0.77660  0.55190  0.54960  Biso   1.000  C
  C810     1.0000 0.81860  0.54280  0.56990  Biso   1.000  C
  H763     1.0000 0.81860  0.52870  0.59310  Biso   1.000  H
  C811     1.0000 0.85630  0.55420  0.55600  Biso   1.000  C
  C812     1.0000 0.85840  0.57850  0.52530  Biso   1.000  C
  H764     1.0000 0.88530  0.58760  0.51710  Biso   1.000  H
  C813     1.0000 0.81570  0.58810  0.50750  Biso   1.000  C
  C814     1.0000 0.82020  0.61550  0.47840  Biso   1.000  C
  H765     1.0000 0.85110  0.62180  0.47760  Biso   1.000  H
  H766     1.0000 0.81040  0.61070  0.44850  Biso   1.000  H
  H767     1.0000 0.80220  0.63160  0.49020  Biso   1.000  H
  C815     1.0000 0.73320  0.53930  0.56470  Biso   1.000  C
  H768     1.0000 0.73830  0.52460  0.58790  Biso   1.000  H
  H769     1.0000 0.71470  0.55530  0.57610  Biso   1.000  H
  H770     1.0000 0.71840  0.52970  0.53980  Biso   1.000  H
  C816     1.0000 0.90160  0.54410  0.57460  Biso   1.000  C
  H771     1.0000 0.92510  0.55520  0.56000  Biso   1.000  H
  H772     1.0000 0.90250  0.54790  0.60640  Biso   1.000  H
  H773     1.0000 0.90550  0.52280  0.56920  Biso   1.000  H
  C817     1.0000 0.64920  0.56550  0.41020  Biso   1.000  C
  C818     1.0000 0.63960  0.58410  0.37240  Biso   1.000  C
  C819     1.0000 0.61510  0.57190  0.33850  Biso   1.000  C
  H774     1.0000 0.60580  0.58440  0.31510  Biso   1.000  H
  C820     1.0000 0.60340  0.54110  0.33730  Biso   1.000  C
  C821     1.0000 0.60950  0.52640  0.37440  Biso   1.000  C
  H775     1.0000 0.59870  0.50670  0.37610  Biso   1.000  H
  C822     1.0000 0.63130  0.53820  0.41170  Biso   1.000  C
  C823     1.0000 0.63720  0.51800  0.45210  Biso   1.000  C
  H776     1.0000 0.62190  0.49910  0.44720  Biso   1.000  H
  H777     1.0000 0.66860  0.51420  0.45680  Biso   1.000  H
  H778     1.0000 0.62490  0.52780  0.47810  Biso   1.000  H
  C824     1.0000 0.58520  0.52790  0.29770  Biso   1.000  C
  H779     1.0000 0.58370  0.54300  0.27450  Biso   1.000  H
  H780     1.0000 0.60400  0.51150  0.28810  Biso   1.000  H
  H781     1.0000 0.55560  0.52040  0.30390  Biso   1.000  H
  C825     1.0000 0.65510  0.61610  0.36990  Biso   1.000  C
  H782     1.0000 0.67180  0.62100  0.39650  Biso   1.000  H
  H783     1.0000 0.67380  0.61870  0.34400  Biso   1.000  H
  H784     1.0000 0.62960  0.62930  0.36760  Biso   1.000  H
  C826     1.0000 0.65090  0.64300  0.52760  Biso   1.000  C
  C827     1.0000 0.61240  0.65570  0.51010  Biso   1.000  C
  H785     1.0000 0.60180  0.64920  0.48240  Biso   1.000  H
  C828     1.0000 0.59010  0.67730  0.53300  Biso   1.000  C
  C829     1.0000 0.60650  0.68840  0.57210  Biso   1.000  C
  C830     1.0000 0.64540  0.67690  0.59080  Biso   1.000  C
  C831     1.0000 0.66530  0.65400  0.56820  Biso   1.000  C
  C832     1.0000 0.66240  0.68680  0.63420  Biso   1.000  C
  C833     1.0000 0.64140  0.67890  0.67130  Biso   1.000  C
  C834     1.0000 0.65690  0.68610  0.71320  Biso   1.000  C
  H786     1.0000 0.64040  0.68070  0.73850  Biso   1.000  H
  C835     1.0000 0.69340  0.70000  0.71720  Biso   1.000  C
  C836     1.0000 0.71680  0.70810  0.67970  Biso   1.000  C
  H787     1.0000 0.74310  0.71920  0.68350  Biso   1.000  H
  C837     1.0000 0.70350  0.70060  0.63520  Biso   1.000  C
  C838     1.0000 0.73020  0.70740  0.59780  Biso   1.000  C
  H788     1.0000 0.75740  0.71710  0.60750  Biso   1.000  H
  H789     1.0000 0.73730  0.68910  0.58200  Biso   1.000  H
  H790     1.0000 0.71410  0.72090  0.57820  Biso   1.000  H
  C839     1.0000 0.59750  0.66020  0.66910  Biso   1.000  C
  H791     1.0000 0.58680  0.65650  0.69900  Biso   1.000  H
  H792     1.0000 0.57530  0.67140  0.65260  Biso   1.000  H
  H793     1.0000 0.60320  0.64120  0.65430  Biso   1.000  H
  C840     1.0000 0.71040  0.71000  0.76410  Biso   1.000  C
  H794     1.0000 0.73860  0.72030  0.76100  Biso   1.000  H
  H795     1.0000 0.68890  0.72350  0.77750  Biso   1.000  H
  H796     1.0000 0.71410  0.69250  0.78290  Biso   1.000  H
  C841     1.0000 0.55000  0.71110  0.48070  Biso   1.000  C
  C842     1.0000 0.51120  0.72330  0.46460  Biso   1.000  C
  H797     1.0000 0.51220  0.73760  0.44160  Biso   1.000  H
  C843     1.0000 0.47110  0.71470  0.48220  Biso   1.000  C
  C844     1.0000 0.46960  0.69380  0.51580  Biso   1.000  C
  H798     1.0000 0.44220  0.68780  0.52790  Biso   1.000  H
  C845     1.0000 0.50840  0.68150  0.53190  Biso   1.000  C
  C846     1.0000 0.54850  0.69020  0.51440  Biso   1.000  C
  C847     1.0000 0.59420  0.72070  0.45890  Biso   1.000  C
  H799     1.0000 0.61870  0.71050  0.47340  Biso   1.000  H
  H800     1.0000 0.59380  0.71550  0.42760  Biso   1.000  H
  H801     1.0000 0.59800  0.74230  0.46210  Biso   1.000  H
  C848     1.0000 0.42900  0.72890  0.46150  Biso   1.000  C
  H802     1.0000 0.43760  0.74300  0.43840  Biso   1.000  H
  H803     1.0000 0.41050  0.71330  0.44870  Biso   1.000  H
  H804     1.0000 0.41240  0.73940  0.48440  Biso   1.000  H
  C849     1.0000 0.50730  0.66040  0.56910  Biso   1.000  C
  H805     1.0000 0.53740  0.65400  0.57610  Biso   1.000  H
  H806     1.0000 0.49430  0.67010  0.59490  Biso   1.000  H
  H807     1.0000 0.48970  0.64300  0.56100  Biso   1.000  H
  C850     1.0000 0.55450  0.72620  0.60580  Biso   1.000  C
  C851     1.0000 0.48800  0.77260  0.56350  Biso   1.000  C
  C852     1.0000 0.45570  0.81170  0.51200  Biso   1.000  C
  C853     1.0000 0.41500  0.82110  0.53020  Biso   1.000  C
  C854     1.0000 0.39380  0.84320  0.50690  Biso   1.000  C
  H808     1.0000 0.36640  0.85010  0.51780  Biso   1.000  H
  C855     1.0000 0.40980  0.85590  0.46870  Biso   1.000  C
  C856     1.0000 0.44990  0.84510  0.45110  Biso   1.000  C
  H809     1.0000 0.46170  0.85320  0.42480  Biso   1.000  H
  C857     1.0000 0.47160  0.82250  0.47290  Biso   1.000  C
  C858     1.0000 0.51510  0.81200  0.45410  Biso   1.000  C
  C859     1.0000 0.51920  0.79810  0.41510  Biso   1.000  C
  C860     1.0000 0.56040  0.78920  0.39900  Biso   1.000  C
  H810     1.0000 0.56220  0.77740  0.37310  Biso   1.000  H
  C861     1.0000 0.59820  0.79750  0.42050  Biso   1.000  C
  C862     1.0000 0.59480  0.81370  0.45840  Biso   1.000  C
  H811     1.0000 0.62100  0.81950  0.47310  Biso   1.000  H
  C863     1.0000 0.55590  0.82170  0.47590  Biso   1.000  C
  C864     1.0000 0.55390  0.84150  0.51430  Biso   1.000  C
  H812     1.0000 0.52310  0.84490  0.52240  Biso   1.000  H
  H813     1.0000 0.56940  0.83230  0.53900  Biso   1.000  H
  H814     1.0000 0.56780  0.86050  0.50700  Biso   1.000  H
  C865     1.0000 0.47760  0.79000  0.39020  Biso   1.000  C
  H815     1.0000 0.48550  0.78010  0.36260  Biso   1.000  H
  H816     1.0000 0.45970  0.77660  0.40810  Biso   1.000  H
  H817     1.0000 0.46090  0.80810  0.38370  Biso   1.000  H
  C866     1.0000 0.63730  0.78860  0.39260  Biso   1.000  C
  H818     1.0000 0.62710  0.77690  0.36740  Biso   1.000  H
  H819     1.0000 0.65230  0.80650  0.38200  Biso   1.000  H
  H820     1.0000 0.65770  0.77680  0.41030  Biso   1.000  H
  C867     1.0000 0.39530  0.80960  0.57290  Biso   1.000  C
  C868     1.0000 0.41580  0.81780  0.61040  Biso   1.000  C
  C869     1.0000 0.45550  0.83900  0.61240  Biso   1.000  C
  H821     1.0000 0.46460  0.84160  0.64310  Biso   1.000  H
  H822     1.0000 0.47990  0.83050  0.59550  Biso   1.000  H
  H823     1.0000 0.44730  0.85830  0.59990  Biso   1.000  H
  C870     1.0000 0.39690  0.80850  0.65010  Biso   1.000  C
  H824     1.0000 0.41080  0.81350  0.67710  Biso   1.000  H
  C871     1.0000 0.35660  0.79150  0.65110  Biso   1.000  C
  C872     1.0000 0.34520  0.78220  0.61470  Biso   1.000  C
  H825     1.0000 0.32590  0.76560  0.61450  Biso   1.000  H
  C873     1.0000 0.35790  0.79380  0.57280  Biso   1.000  C
  C874     1.0000 0.33550  0.78420  0.52940  Biso   1.000  C
  H826     1.0000 0.30880  0.77290  0.53610  Biso   1.000  H
  H827     1.0000 0.32790  0.80180  0.51220  Biso   1.000  H
  H828     1.0000 0.35570  0.77170  0.51250  Biso   1.000  H
  C875     1.0000 0.33170  0.78320  0.68970  Biso   1.000  C
  H829     1.0000 0.34490  0.79230  0.71580  Biso   1.000  H
  H830     1.0000 0.30130  0.79010  0.68650  Biso   1.000  H
  H831     1.0000 0.33190  0.76150  0.69290  Biso   1.000  H
  C876     1.0000 0.38670  0.88000  0.44520  Biso   1.000  C
  C877     1.0000 0.39440  0.88860  0.40510  Biso   1.000  C
  H832     1.0000 0.41650  0.87800  0.38940  Biso   1.000  H
  C878     1.0000 0.37380  0.91120  0.38310  Biso   1.000  C
  C879     1.0000 0.33960  0.92650  0.40500  Biso   1.000  C
  C880     1.0000 0.32840  0.91820  0.44780  Biso   1.000  C
  C881     1.0000 0.35350  0.89590  0.46880  Biso   1.000  C
  H833     1.0000 0.34820  0.89150  0.49890  Biso   1.000  H
  C882     1.0000 0.29190  0.93140  0.47210  Biso   1.000  C
  C883     1.0000 0.29210  0.96030  0.48550  Biso   1.000  C
  C884     1.0000 0.25720  0.96960  0.51330  Biso   1.000  C
  H834     1.0000 0.26080  0.98720  0.53030  Biso   1.000  H
  C885     1.0000 0.21910  0.95450  0.51650  Biso   1.000  C
  C886     1.0000 0.21930  0.92640  0.50400  Biso   1.000  C
  H835     1.0000 0.19450  0.91450  0.51110  Biso   1.000  H
  C887     1.0000 0.25340  0.91330  0.48100  Biso   1.000  C
  C888     1.0000 0.24990  0.88260  0.46460  Biso   1.000  C
  H836     1.0000 0.27700  0.87720  0.44920  Biso   1.000  H
  H837     1.0000 0.24520  0.86910  0.48940  Biso   1.000  H
  H838     1.0000 0.22500  0.88120  0.44420  Biso   1.000  H
  C889     1.0000 0.33030  0.98120  0.48010  Biso   1.000  C
  H839     1.0000 0.32260  0.00070  0.49220  Biso   1.000  H
  H840     1.0000 0.35590  0.97320  0.49570  Biso   1.000  H
  H841     1.0000 0.33730  0.98320  0.44870  Biso   1.000  H
  C890     1.0000 0.17580  0.96830  0.53870  Biso   1.000  C
  H842     1.0000 0.18110  0.98920  0.54600  Biso   1.000  H
  H843     1.0000 0.15120  0.96690  0.51800  Biso   1.000  H
  H844     1.0000 0.16870  0.95720  0.56550  Biso   1.000  H
  C891     1.0000 0.39290  0.92180  0.33980  Biso   1.000  C
  C892     1.0000 0.38330  0.90810  0.30000  Biso   1.000  C
  C893     1.0000 0.40290  0.91810  0.26140  Biso   1.000  C
  H845     1.0000 0.39630  0.90870  0.23420  Biso   1.000  H
  C894     1.0000 0.43210  0.94180  0.26270  Biso   1.000  C
  C895     1.0000 0.44170  0.95550  0.30250  Biso   1.000  C
  H846     1.0000 0.46170  0.97180  0.30340  Biso   1.000  H
  C896     1.0000 0.42210  0.94550  0.34100  Biso   1.000  C
  C897     1.0000 0.35520  0.88150  0.30150  Biso   1.000  C
  H847     1.0000 0.36190  0.86870  0.27630  Biso   1.000  H
  H848     1.0000 0.32430  0.88750  0.30030  Biso   1.000  H
  H849     1.0000 0.36070  0.87060  0.32890  Biso   1.000  H
  C898     1.0000 0.43260  0.96240  0.38090  Biso   1.000  C
  H850     1.0000 0.44420  0.94750  0.39840  Biso   1.000  H
  H851     1.0000 0.45380  0.97880  0.37530  Biso   1.000  H
  H852     1.0000 0.40630  0.97200  0.39540  Biso   1.000  H
  C899     1.0000 0.45290  0.95090  0.21760  Biso   1.000  C
  H853     1.0000 0.47290  0.96780  0.22210  Biso   1.000  H
  H854     1.0000 0.46930  0.93410  0.20550  Biso   1.000  H
  H855     1.0000 0.42960  0.95670  0.19710  Biso   1.000  H
  C900     1.0000 0.29500  0.97030  0.37740  Biso   1.000  C
  Cu10     1.0000 0.50130  0.24988  0.11646  Biso   1.000  Cu
  N37      1.0000 0.73360  0.04700  0.93840  Biso   1.000  N
  N38      1.0000 0.58190  0.21030  0.09440  Biso   1.000  N
  N39      1.0000 0.47710  0.28880  0.03540  Biso   1.000  N
  N40      1.0000 0.31890  0.45070  0.88570  Biso   1.000  N
  C901     1.0000 0.74240  0.02900  0.91540  Biso   1.000  C
  C902     1.0000 0.71390  0.07110  0.96300  Biso   1.000  C
  C903     1.0000 0.67130  0.08030  0.94910  Biso   1.000  C
  C904     1.0000 0.65260  0.10300  0.97010  Biso   1.000  C
  H856     1.0000 0.62420  0.10940  0.96100  Biso   1.000  H
  C905     1.0000 0.67260  0.11760  0.00410  Biso   1.000  C
  C906     1.0000 0.71530  0.10890  0.01670  Biso   1.000  C
  H857     1.0000 0.73000  0.11990  0.03900  Biso   1.000  H
  C907     1.0000 0.73590  0.08550  0.99800  Biso   1.000  C
  C908     1.0000 0.77870  0.07420  0.01550  Biso   1.000  C
  C909     1.0000 0.77660  0.05190  0.04960  Biso   1.000  C
  C910     1.0000 0.81860  0.04280  0.06990  Biso   1.000  C
  H858     1.0000 0.81860  0.02870  0.09310  Biso   1.000  H
  C911     1.0000 0.85630  0.05420  0.05600  Biso   1.000  C
  C912     1.0000 0.85840  0.07850  0.02530  Biso   1.000  C
  H859     1.0000 0.88530  0.08760  0.01710  Biso   1.000  H
  C913     1.0000 0.81570  0.08810  0.00750  Biso   1.000  C
  C914     1.0000 0.82020  0.11550  0.97840  Biso   1.000  C
  H860     1.0000 0.85110  0.12180  0.97760  Biso   1.000  H
  H861     1.0000 0.81040  0.11070  0.94850  Biso   1.000  H
  H862     1.0000 0.80220  0.13160  0.99020  Biso   1.000  H
  C915     1.0000 0.73320  0.03930  0.06470  Biso   1.000  C
  H863     1.0000 0.73830  0.02460  0.08790  Biso   1.000  H
  H864     1.0000 0.71470  0.05530  0.07610  Biso   1.000  H
  H865     1.0000 0.71840  0.02970  0.03980  Biso   1.000  H
  C916     1.0000 0.90160  0.04410  0.07460  Biso   1.000  C
  H866     1.0000 0.92510  0.05520  0.06000  Biso   1.000  H
  H867     1.0000 0.90250  0.04790  0.10640  Biso   1.000  H
  H868     1.0000 0.90550  0.02280  0.06920  Biso   1.000  H
  C917     1.0000 0.64920  0.06550  0.91020  Biso   1.000  C
  C918     1.0000 0.63960  0.08410  0.87240  Biso   1.000  C
  C919     1.0000 0.61510  0.07190  0.83850  Biso   1.000  C
  H869     1.0000 0.60580  0.08440  0.81510  Biso   1.000  H
  C920     1.0000 0.60340  0.04110  0.83730  Biso   1.000  C
  C921     1.0000 0.60950  0.02640  0.87440  Biso   1.000  C
  H870     1.0000 0.59870  0.00670  0.87610  Biso   1.000  H
  C922     1.0000 0.63130  0.03820  0.91170  Biso   1.000  C
  C923     1.0000 0.63720  0.01800  0.95210  Biso   1.000  C
  H871     1.0000 0.62190  0.99910  0.94720  Biso   1.000  H
  H872     1.0000 0.66860  0.01420  0.95680  Biso   1.000  H
  H873     1.0000 0.62490  0.02780  0.97810  Biso   1.000  H
  C924     1.0000 0.58520  0.02790  0.79770  Biso   1.000  C
  H874     1.0000 0.58370  0.04300  0.77450  Biso   1.000  H
  H875     1.0000 0.60400  0.01150  0.78810  Biso   1.000  H
  H876     1.0000 0.55560  0.02040  0.80390  Biso   1.000  H
  C925     1.0000 0.65510  0.11610  0.86990  Biso   1.000  C
  H877     1.0000 0.67180  0.12100  0.89650  Biso   1.000  H
  H878     1.0000 0.67380  0.11870  0.84400  Biso   1.000  H
  H879     1.0000 0.62960  0.12930  0.86760  Biso   1.000  H
  C926     1.0000 0.65090  0.14300  0.02760  Biso   1.000  C
  C927     1.0000 0.61240  0.15570  0.01010  Biso   1.000  C
  H880     1.0000 0.60180  0.14920  0.98240  Biso   1.000  H
  C928     1.0000 0.59010  0.17730  0.03300  Biso   1.000  C
  C929     1.0000 0.60650  0.18840  0.07210  Biso   1.000  C
  C930     1.0000 0.64540  0.17690  0.09080  Biso   1.000  C
  C931     1.0000 0.66530  0.15400  0.06820  Biso   1.000  C
  C932     1.0000 0.66240  0.18680  0.13420  Biso   1.000  C
  C933     1.0000 0.64140  0.17890  0.17130  Biso   1.000  C
  C934     1.0000 0.65690  0.18610  0.21320  Biso   1.000  C
  H881     1.0000 0.64040  0.18070  0.23850  Biso   1.000  H
  C935     1.0000 0.69340  0.20000  0.21720  Biso   1.000  C
  C936     1.0000 0.71680  0.20810  0.17970  Biso   1.000  C
  H882     1.0000 0.74310  0.21920  0.18350  Biso   1.000  H
  C937     1.0000 0.70350  0.20060  0.13520  Biso   1.000  C
  C938     1.0000 0.73020  0.20740  0.09780  Biso   1.000  C
  H883     1.0000 0.75740  0.21710  0.10750  Biso   1.000  H
  H884     1.0000 0.73730  0.18910  0.08200  Biso   1.000  H
  H885     1.0000 0.71410  0.22090  0.07820  Biso   1.000  H
  C939     1.0000 0.59750  0.16020  0.16910  Biso   1.000  C
  H886     1.0000 0.58680  0.15650  0.19900  Biso   1.000  H
  H887     1.0000 0.57530  0.17140  0.15260  Biso   1.000  H
  H888     1.0000 0.60320  0.14120  0.15430  Biso   1.000  H
  C940     1.0000 0.71040  0.21000  0.26410  Biso   1.000  C
  H889     1.0000 0.73860  0.22030  0.26100  Biso   1.000  H
  H890     1.0000 0.68890  0.22350  0.27750  Biso   1.000  H
  H891     1.0000 0.71410  0.19250  0.28290  Biso   1.000  H
  C941     1.0000 0.55000  0.21110  0.98070  Biso   1.000  C
  C942     1.0000 0.51120  0.22330  0.96460  Biso   1.000  C
  H892     1.0000 0.51220  0.23760  0.94160  Biso   1.000  H
  C943     1.0000 0.47110  0.21470  0.98220  Biso   1.000  C
  C944     1.0000 0.46960  0.19380  0.01580  Biso   1.000  C
  H893     1.0000 0.44220  0.18780  0.02790  Biso   1.000  H
  C945     1.0000 0.50840  0.18150  0.03190  Biso   1.000  C
  C946     1.0000 0.54850  0.19020  0.01440  Biso   1.000  C
  C947     1.0000 0.59420  0.22070  0.95890  Biso   1.000  C
  H894     1.0000 0.61870  0.21050  0.97340  Biso   1.000  H
  H895     1.0000 0.59380  0.21550  0.92760  Biso   1.000  H
  H896     1.0000 0.59800  0.24230  0.96210  Biso   1.000  H
  C948     1.0000 0.42900  0.22890  0.96150  Biso   1.000  C
  H897     1.0000 0.43760  0.24300  0.93840  Biso   1.000  H
  H898     1.0000 0.41050  0.21330  0.94870  Biso   1.000  H
  H899     1.0000 0.41240  0.23940  0.98440  Biso   1.000  H
  C949     1.0000 0.50730  0.16040  0.06910  Biso   1.000  C
  H900     1.0000 0.53740  0.15400  0.07610  Biso   1.000  H
  H901     1.0000 0.49430  0.17010  0.09490  Biso   1.000  H
  H902     1.0000 0.48970  0.14300  0.06100  Biso   1.000  H
  C950     1.0000 0.55450  0.22620  0.10580  Biso   1.000  C
  C951     1.0000 0.48800  0.27260  0.06350  Biso   1.000  C
  C952     1.0000 0.45570  0.31170  0.01200  Biso   1.000  C
  C953     1.0000 0.41500  0.32110  0.03020  Biso   1.000  C
  C954     1.0000 0.39380  0.34320  0.00690  Biso   1.000  C
  H903     1.0000 0.36640  0.35010  0.01780  Biso   1.000  H
  C955     1.0000 0.40980  0.35590  0.96870  Biso   1.000  C
  C956     1.0000 0.44990  0.34510  0.95110  Biso   1.000  C
  H904     1.0000 0.46170  0.35320  0.92480  Biso   1.000  H
  C957     1.0000 0.47160  0.32250  0.97290  Biso   1.000  C
  C958     1.0000 0.51510  0.31200  0.95410  Biso   1.000  C
  C959     1.0000 0.51920  0.29810  0.91510  Biso   1.000  C
  C960     1.0000 0.56040  0.28920  0.89900  Biso   1.000  C
  H905     1.0000 0.56220  0.27740  0.87310  Biso   1.000  H
  C961     1.0000 0.59820  0.29750  0.92050  Biso   1.000  C
  C962     1.0000 0.59480  0.31370  0.95840  Biso   1.000  C
  H906     1.0000 0.62100  0.31950  0.97310  Biso   1.000  H
  C963     1.0000 0.55590  0.32170  0.97590  Biso   1.000  C
  C964     1.0000 0.55390  0.34150  0.01430  Biso   1.000  C
  H907     1.0000 0.52310  0.34490  0.02240  Biso   1.000  H
  H908     1.0000 0.56940  0.33230  0.03900  Biso   1.000  H
  H909     1.0000 0.56780  0.36050  0.00700  Biso   1.000  H
  C965     1.0000 0.47760  0.29000  0.89020  Biso   1.000  C
  H910     1.0000 0.48550  0.28010  0.86260  Biso   1.000  H
  H911     1.0000 0.45970  0.27660  0.90810  Biso   1.000  H
  H912     1.0000 0.46090  0.30810  0.88370  Biso   1.000  H
  C966     1.0000 0.63730  0.28860  0.89260  Biso   1.000  C
  H913     1.0000 0.62710  0.27690  0.86740  Biso   1.000  H
  H914     1.0000 0.65230  0.30650  0.88200  Biso   1.000  H
  H915     1.0000 0.65770  0.27680  0.91030  Biso   1.000  H
  C967     1.0000 0.39530  0.30960  0.07290  Biso   1.000  C
  C968     1.0000 0.41580  0.31780  0.11040  Biso   1.000  C
  C969     1.0000 0.45550  0.33900  0.11240  Biso   1.000  C
  H916     1.0000 0.46460  0.34160  0.14310  Biso   1.000  H
  H917     1.0000 0.47990  0.33050  0.09550  Biso   1.000  H
  H918     1.0000 0.44730  0.35830  0.09990  Biso   1.000  H
  C970     1.0000 0.39690  0.30850  0.15010  Biso   1.000  C
  H919     1.0000 0.41080  0.31350  0.17710  Biso   1.000  H
  C971     1.0000 0.35660  0.29150  0.15110  Biso   1.000  C
  C972     1.0000 0.34520  0.28220  0.11470  Biso   1.000  C
  H920     1.0000 0.32590  0.26560  0.11450  Biso   1.000  H
  C973     1.0000 0.35790  0.29380  0.07280  Biso   1.000  C
  C974     1.0000 0.33550  0.28420  0.02940  Biso   1.000  C
  H921     1.0000 0.30880  0.27290  0.03610  Biso   1.000  H
  H922     1.0000 0.32790  0.30180  0.01220  Biso   1.000  H
  H923     1.0000 0.35570  0.27170  0.01250  Biso   1.000  H
  C975     1.0000 0.33170  0.28320  0.18970  Biso   1.000  C
  H924     1.0000 0.34490  0.29230  0.21580  Biso   1.000  H
  H925     1.0000 0.30130  0.29010  0.18650  Biso   1.000  H
  H926     1.0000 0.33190  0.26150  0.19290  Biso   1.000  H
  C976     1.0000 0.38670  0.38000  0.94520  Biso   1.000  C
  C977     1.0000 0.39440  0.38860  0.90510  Biso   1.000  C
  H927     1.0000 0.41650  0.37800  0.88940  Biso   1.000  H
  C978     1.0000 0.37380  0.41120  0.88310  Biso   1.000  C
  C979     1.0000 0.33960  0.42650  0.90500  Biso   1.000  C
  C980     1.0000 0.32840  0.41820  0.94780  Biso   1.000  C
  C981     1.0000 0.35350  0.39590  0.96880  Biso   1.000  C
  H928     1.0000 0.34820  0.39150  0.99890  Biso   1.000  H
  C982     1.0000 0.29190  0.43140  0.97210  Biso   1.000  C
  C983     1.0000 0.29210  0.46030  0.98550  Biso   1.000  C
  C984     1.0000 0.25720  0.46960  0.01330  Biso   1.000  C
  H929     1.0000 0.26080  0.48720  0.03030  Biso   1.000  H
  C985     1.0000 0.21910  0.45450  0.01650  Biso   1.000  C
  C986     1.0000 0.21930  0.42640  0.00400  Biso   1.000  C
  H930     1.0000 0.19450  0.41450  0.01110  Biso   1.000  H
  C987     1.0000 0.25340  0.41330  0.98100  Biso   1.000  C
  C988     1.0000 0.24990  0.38260  0.96460  Biso   1.000  C
  H931     1.0000 0.27700  0.37720  0.94920  Biso   1.000  H
  H932     1.0000 0.24520  0.36910  0.98940  Biso   1.000  H
  H933     1.0000 0.22500  0.38120  0.94420  Biso   1.000  H
  C989     1.0000 0.33030  0.48120  0.98010  Biso   1.000  C
  H934     1.0000 0.32260  0.50070  0.99220  Biso   1.000  H
  H935     1.0000 0.35590  0.47320  0.99570  Biso   1.000  H
  H936     1.0000 0.33730  0.48320  0.94870  Biso   1.000  H
  C990     1.0000 0.17580  0.46830  0.03870  Biso   1.000  C
  H937     1.0000 0.18110  0.48920  0.04600  Biso   1.000  H
  H938     1.0000 0.15120  0.46690  0.01800  Biso   1.000  H
  H939     1.0000 0.16870  0.45720  0.06550  Biso   1.000  H
  C991     1.0000 0.39290  0.42180  0.83980  Biso   1.000  C
  C992     1.0000 0.38330  0.40810  0.80000  Biso   1.000  C
  C993     1.0000 0.40290  0.41810  0.76140  Biso   1.000  C
  H940     1.0000 0.39630  0.40870  0.73420  Biso   1.000  H
  C994     1.0000 0.43210  0.44180  0.76270  Biso   1.000  C
  C995     1.0000 0.44170  0.45550  0.80250  Biso   1.000  C
  H941     1.0000 0.46170  0.47180  0.80340  Biso   1.000  H
  C996     1.0000 0.42210  0.44550  0.84100  Biso   1.000  C
  C997     1.0000 0.35520  0.38150  0.80150  Biso   1.000  C
  H942     1.0000 0.36190  0.36870  0.77630  Biso   1.000  H
  H943     1.0000 0.32430  0.38750  0.80030  Biso   1.000  H
  H944     1.0000 0.36070  0.37060  0.82890  Biso   1.000  H
  C998     1.0000 0.43260  0.46240  0.88090  Biso   1.000  C
  H945     1.0000 0.44420  0.44750  0.89840  Biso   1.000  H
  H946     1.0000 0.45380  0.47880  0.87530  Biso   1.000  H
  H947     1.0000 0.40630  0.47200  0.89540  Biso   1.000  H
  C999     1.0000 0.45290  0.45090  0.71760  Biso   1.000  C
  H948     1.0000 0.47290  0.46780  0.72210  Biso   1.000  H
  H949     1.0000 0.46930  0.43410  0.70550  Biso   1.000  H
  H950     1.0000 0.42960  0.45670  0.69710  Biso   1.000  H
  C1000    1.0000 0.29500  0.47030  0.87740  Biso   1.000  C
  Cu11     1.0000 0.00130  0.74988  0.11646  Biso   1.000  Cu
  N41      1.0000 0.23360  0.54700  0.93840  Biso   1.000  N
  N42      1.0000 0.08190  0.71030  0.09440  Biso   1.000  N
  N43      1.0000 0.97710  0.78880  0.03540  Biso   1.000  N
  N44      1.0000 0.81890  0.95070  0.88570  Biso   1.000  N
  C1001    1.0000 0.24240  0.52900  0.91540  Biso   1.000  C
  C1002    1.0000 0.21390  0.57110  0.96300  Biso   1.000  C
  C1003    1.0000 0.17130  0.58030  0.94910  Biso   1.000  C
  C1004    1.0000 0.15260  0.60300  0.97010  Biso   1.000  C
  H951     1.0000 0.12420  0.60940  0.96100  Biso   1.000  H
  C1005    1.0000 0.17260  0.61760  0.00410  Biso   1.000  C
  C1006    1.0000 0.21530  0.60890  0.01670  Biso   1.000  C
  H952     1.0000 0.23000  0.61990  0.03900  Biso   1.000  H
  C1007    1.0000 0.23590  0.58550  0.99800  Biso   1.000  C
  C1008    1.0000 0.27870  0.57420  0.01550  Biso   1.000  C
  C1009    1.0000 0.27660  0.55190  0.04960  Biso   1.000  C
  C1010    1.0000 0.31860  0.54280  0.06990  Biso   1.000  C
  H953     1.0000 0.31860  0.52870  0.09310  Biso   1.000  H
  C1011    1.0000 0.35630  0.55420  0.05600  Biso   1.000  C
  C1012    1.0000 0.35840  0.57850  0.02530  Biso   1.000  C
  H954     1.0000 0.38530  0.58760  0.01710  Biso   1.000  H
  C1013    1.0000 0.31570  0.58810  0.00750  Biso   1.000  C
  C1014    1.0000 0.32020  0.61550  0.97840  Biso   1.000  C
  H955     1.0000 0.35110  0.62180  0.97760  Biso   1.000  H
  H956     1.0000 0.31040  0.61070  0.94850  Biso   1.000  H
  H957     1.0000 0.30220  0.63160  0.99020  Biso   1.000  H
  C1015    1.0000 0.23320  0.53930  0.06470  Biso   1.000  C
  H958     1.0000 0.23830  0.52460  0.08790  Biso   1.000  H
  H959     1.0000 0.21470  0.55530  0.07610  Biso   1.000  H
  H960     1.0000 0.21840  0.52970  0.03980  Biso   1.000  H
  C1016    1.0000 0.40160  0.54410  0.07460  Biso   1.000  C
  H961     1.0000 0.42510  0.55520  0.06000  Biso   1.000  H
  H962     1.0000 0.40250  0.54790  0.10640  Biso   1.000  H
  H963     1.0000 0.40550  0.52280  0.06920  Biso   1.000  H
  C1017    1.0000 0.14920  0.56550  0.91020  Biso   1.000  C
  C1018    1.0000 0.13960  0.58410  0.87240  Biso   1.000  C
  C1019    1.0000 0.11510  0.57190  0.83850  Biso   1.000  C
  H964     1.0000 0.10580  0.58440  0.81510  Biso   1.000  H
  C1020    1.0000 0.10340  0.54110  0.83730  Biso   1.000  C
  C1021    1.0000 0.10950  0.52640  0.87440  Biso   1.000  C
  H965     1.0000 0.09870  0.50670  0.87610  Biso   1.000  H
  C1022    1.0000 0.13130  0.53820  0.91170  Biso   1.000  C
  C1023    1.0000 0.13720  0.51800  0.95210  Biso   1.000  C
  H966     1.0000 0.12190  0.49910  0.94720  Biso   1.000  H
  H967     1.0000 0.16860  0.51420  0.95680  Biso   1.000  H
  H968     1.0000 0.12490  0.52780  0.97810  Biso   1.000  H
  C1024    1.0000 0.08520  0.52790  0.79770  Biso   1.000  C
  H969     1.0000 0.08370  0.54300  0.77450  Biso   1.000  H
  H970     1.0000 0.10400  0.51150  0.78810  Biso   1.000  H
  H971     1.0000 0.05560  0.52040  0.80390  Biso   1.000  H
  C1025    1.0000 0.15510  0.61610  0.86990  Biso   1.000  C
  H972     1.0000 0.17180  0.62100  0.89650  Biso   1.000  H
  H973     1.0000 0.17380  0.61870  0.84400  Biso   1.000  H
  H974     1.0000 0.12960  0.62930  0.86760  Biso   1.000  H
  C1026    1.0000 0.15090  0.64300  0.02760  Biso   1.000  C
  C1027    1.0000 0.11240  0.65570  0.01010  Biso   1.000  C
  H975     1.0000 0.10180  0.64920  0.98240  Biso   1.000  H
  C1028    1.0000 0.09010  0.67730  0.03300  Biso   1.000  C
  C1029    1.0000 0.10650  0.68840  0.07210  Biso   1.000  C
  C1030    1.0000 0.14540  0.67690  0.09080  Biso   1.000  C
  C1031    1.0000 0.16530  0.65400  0.06820  Biso   1.000  C
  C1032    1.0000 0.16240  0.68680  0.13420  Biso   1.000  C
  C1033    1.0000 0.14140  0.67890  0.17130  Biso   1.000  C
  C1034    1.0000 0.15690  0.68610  0.21320  Biso   1.000  C
  H976     1.0000 0.14040  0.68070  0.23850  Biso   1.000  H
  C1035    1.0000 0.19340  0.70000  0.21720  Biso   1.000  C
  C1036    1.0000 0.21680  0.70810  0.17970  Biso   1.000  C
  H977     1.0000 0.24310  0.71920  0.18350  Biso   1.000  H
  C1037    1.0000 0.20350  0.70060  0.13520  Biso   1.000  C
  C1038    1.0000 0.23020  0.70740  0.09780  Biso   1.000  C
  H978     1.0000 0.25740  0.71710  0.10750  Biso   1.000  H
  H979     1.0000 0.23730  0.68910  0.08200  Biso   1.000  H
  H980     1.0000 0.21410  0.72090  0.07820  Biso   1.000  H
  C1039    1.0000 0.09750  0.66020  0.16910  Biso   1.000  C
  H981     1.0000 0.08680  0.65650  0.19900  Biso   1.000  H
  H982     1.0000 0.07530  0.67140  0.15260  Biso   1.000  H
  H983     1.0000 0.10320  0.64120  0.15430  Biso   1.000  H
  C1040    1.0000 0.21040  0.71000  0.26410  Biso   1.000  C
  H984     1.0000 0.23860  0.72030  0.26100  Biso   1.000  H
  H985     1.0000 0.18890  0.72350  0.27750  Biso   1.000  H
  H986     1.0000 0.21410  0.69250  0.28290  Biso   1.000  H
  C1041    1.0000 0.05000  0.71110  0.98070  Biso   1.000  C
  C1042    1.0000 0.01120  0.72330  0.96460  Biso   1.000  C
  H987     1.0000 0.01220  0.73760  0.94160  Biso   1.000  H
  C1043    1.0000 0.97110  0.71470  0.98220  Biso   1.000  C
  C1044    1.0000 0.96960  0.69380  0.01580  Biso   1.000  C
  H988     1.0000 0.94220  0.68780  0.02790  Biso   1.000  H
  C1045    1.0000 0.00840  0.68150  0.03190  Biso   1.000  C
  C1046    1.0000 0.04850  0.69020  0.01440  Biso   1.000  C
  C1047    1.0000 0.09420  0.72070  0.95890  Biso   1.000  C
  H989     1.0000 0.11870  0.71050  0.97340  Biso   1.000  H
  H990     1.0000 0.09380  0.71550  0.92760  Biso   1.000  H
  H991     1.0000 0.09800  0.74230  0.96210  Biso   1.000  H
  C1048    1.0000 0.92900  0.72890  0.96150  Biso   1.000  C
  H992     1.0000 0.93760  0.74300  0.93840  Biso   1.000  H
  H993     1.0000 0.91050  0.71330  0.94870  Biso   1.000  H
  H994     1.0000 0.91240  0.73940  0.98440  Biso   1.000  H
  C1049    1.0000 0.00730  0.66040  0.06910  Biso   1.000  C
  H995     1.0000 0.03740  0.65400  0.07610  Biso   1.000  H
  H996     1.0000 0.99430  0.67010  0.09490  Biso   1.000  H
  H997     1.0000 0.98970  0.64300  0.06100  Biso   1.000  H
  C1050    1.0000 0.05450  0.72620  0.10580  Biso   1.000  C
  C1051    1.0000 0.98800  0.77260  0.06350  Biso   1.000  C
  C1052    1.0000 0.95570  0.81170  0.01200  Biso   1.000  C
  C1053    1.0000 0.91500  0.82110  0.03020  Biso   1.000  C
  C1054    1.0000 0.89380  0.84320  0.00690  Biso   1.000  C
  H998     1.0000 0.86640  0.85010  0.01780  Biso   1.000  H
  C1055    1.0000 0.90980  0.85590  0.96870  Biso   1.000  C
  C1056    1.0000 0.94990  0.84510  0.95110  Biso   1.000  C
  H999     1.0000 0.96170  0.85320  0.92480  Biso   1.000  H
  C1057    1.0000 0.97160  0.82250  0.97290  Biso   1.000  C
  C1058    1.0000 0.01510  0.81200  0.95410  Biso   1.000  C
  C1059    1.0000 0.01920  0.79810  0.91510  Biso   1.000  C
  C1060    1.0000 0.06040  0.78920  0.89900  Biso   1.000  C
  H1000    1.0000 0.06220  0.77740  0.87310  Biso   1.000  H
  C1061    1.0000 0.09820  0.79750  0.92050  Biso   1.000  C
  C1062    1.0000 0.09480  0.81370  0.95840  Biso   1.000  C
  H1001    1.0000 0.12100  0.81950  0.97310  Biso   1.000  H
  C1063    1.0000 0.05590  0.82170  0.97590  Biso   1.000  C
  C1064    1.0000 0.05390  0.84150  0.01430  Biso   1.000  C
  H1002    1.0000 0.02310  0.84490  0.02240  Biso   1.000  H
  H1003    1.0000 0.06940  0.83230  0.03900  Biso   1.000  H
  H1004    1.0000 0.06780  0.86050  0.00700  Biso   1.000  H
  C1065    1.0000 0.97760  0.79000  0.89020  Biso   1.000  C
  H1005    1.0000 0.98550  0.78010  0.86260  Biso   1.000  H
  H1006    1.0000 0.95970  0.77660  0.90810  Biso   1.000  H
  H1007    1.0000 0.96090  0.80810  0.88370  Biso   1.000  H
  C1066    1.0000 0.13730  0.78860  0.89260  Biso   1.000  C
  H1008    1.0000 0.12710  0.77690  0.86740  Biso   1.000  H
  H1009    1.0000 0.15230  0.80650  0.88200  Biso   1.000  H
  H1010    1.0000 0.15770  0.77680  0.91030  Biso   1.000  H
  C1067    1.0000 0.89530  0.80960  0.07290  Biso   1.000  C
  C1068    1.0000 0.91580  0.81780  0.11040  Biso   1.000  C
  C1069    1.0000 0.95550  0.83900  0.11240  Biso   1.000  C
  H1011    1.0000 0.96460  0.84160  0.14310  Biso   1.000  H
  H1012    1.0000 0.97990  0.83050  0.09550  Biso   1.000  H
  H1013    1.0000 0.94730  0.85830  0.09990  Biso   1.000  H
  C1070    1.0000 0.89690  0.80850  0.15010  Biso   1.000  C
  H1014    1.0000 0.91080  0.81350  0.17710  Biso   1.000  H
  C1071    1.0000 0.85660  0.79150  0.15110  Biso   1.000  C
  C1072    1.0000 0.84520  0.78220  0.11470  Biso   1.000  C
  H1015    1.0000 0.82590  0.76560  0.11450  Biso   1.000  H
  C1073    1.0000 0.85790  0.79380  0.07280  Biso   1.000  C
  C1074    1.0000 0.83550  0.78420  0.02940  Biso   1.000  C
  H1016    1.0000 0.80880  0.77290  0.03610  Biso   1.000  H
  H1017    1.0000 0.82790  0.80180  0.01220  Biso   1.000  H
  H1018    1.0000 0.85570  0.77170  0.01250  Biso   1.000  H
  C1075    1.0000 0.83170  0.78320  0.18970  Biso   1.000  C
  H1019    1.0000 0.84490  0.79230  0.21580  Biso   1.000  H
  H1020    1.0000 0.80130  0.79010  0.18650  Biso   1.000  H
  H1021    1.0000 0.83190  0.76150  0.19290  Biso   1.000  H
  C1076    1.0000 0.88670  0.88000  0.94520  Biso   1.000  C
  C1077    1.0000 0.89440  0.88860  0.90510  Biso   1.000  C
  H1022    1.0000 0.91650  0.87800  0.88940  Biso   1.000  H
  C1078    1.0000 0.87380  0.91120  0.88310  Biso   1.000  C
  C1079    1.0000 0.83960  0.92650  0.90500  Biso   1.000  C
  C1080    1.0000 0.82840  0.91820  0.94780  Biso   1.000  C
  C1081    1.0000 0.85350  0.89590  0.96880  Biso   1.000  C
  H1023    1.0000 0.84820  0.89150  0.99890  Biso   1.000  H
  C1082    1.0000 0.79190  0.93140  0.97210  Biso   1.000  C
  C1083    1.0000 0.79210  0.96030  0.98550  Biso   1.000  C
  C1084    1.0000 0.75720  0.96960  0.01330  Biso   1.000  C
  H1024    1.0000 0.76080  0.98720  0.03030  Biso   1.000  H
  C1085    1.0000 0.71910  0.95450  0.01650  Biso   1.000  C
  C1086    1.0000 0.71930  0.92640  0.00400  Biso   1.000  C
  H1025    1.0000 0.69450  0.91450  0.01110  Biso   1.000  H
  C1087    1.0000 0.75340  0.91330  0.98100  Biso   1.000  C
  C1088    1.0000 0.74990  0.88260  0.96460  Biso   1.000  C
  H1026    1.0000 0.77700  0.87720  0.94920  Biso   1.000  H
  H1027    1.0000 0.74520  0.86910  0.98940  Biso   1.000  H
  H1028    1.0000 0.72500  0.88120  0.94420  Biso   1.000  H
  C1089    1.0000 0.83030  0.98120  0.98010  Biso   1.000  C
  H1029    1.0000 0.82260  0.00070  0.99220  Biso   1.000  H
  H1030    1.0000 0.85590  0.97320  0.99570  Biso   1.000  H
  H1031    1.0000 0.83730  0.98320  0.94870  Biso   1.000  H
  C1090    1.0000 0.67580  0.96830  0.03870  Biso   1.000  C
  H1032    1.0000 0.68110  0.98920  0.04600  Biso   1.000  H
  H1033    1.0000 0.65120  0.96690  0.01800  Biso   1.000  H
  H1034    1.0000 0.66870  0.95720  0.06550  Biso   1.000  H
  C1091    1.0000 0.89290  0.92180  0.83980  Biso   1.000  C
  C1092    1.0000 0.88330  0.90810  0.80000  Biso   1.000  C
  C1093    1.0000 0.90290  0.91810  0.76140  Biso   1.000  C
  H1035    1.0000 0.89630  0.90870  0.73420  Biso   1.000  H
  C1094    1.0000 0.93210  0.94180  0.76270  Biso   1.000  C
  C1095    1.0000 0.94170  0.95550  0.80250  Biso   1.000  C
  H1036    1.0000 0.96170  0.97180  0.80340  Biso   1.000  H
  C1096    1.0000 0.92210  0.94550  0.84100  Biso   1.000  C
  C1097    1.0000 0.85520  0.88150  0.80150  Biso   1.000  C
  H1037    1.0000 0.86190  0.86870  0.77630  Biso   1.000  H
  H1038    1.0000 0.82430  0.88750  0.80030  Biso   1.000  H
  H1039    1.0000 0.86070  0.87060  0.82890  Biso   1.000  H
  C1098    1.0000 0.93260  0.96240  0.88090  Biso   1.000  C
  H1040    1.0000 0.94420  0.94750  0.89840  Biso   1.000  H
  H1041    1.0000 0.95380  0.97880  0.87530  Biso   1.000  H
  H1042    1.0000 0.90630  0.97200  0.89540  Biso   1.000  H
  C1099    1.0000 0.95290  0.95090  0.71760  Biso   1.000  C
  H1043    1.0000 0.97290  0.96780  0.72210  Biso   1.000  H
  H1044    1.0000 0.96930  0.93410  0.70550  Biso   1.000  H
  H1045    1.0000 0.92960  0.95670  0.69710  Biso   1.000  H
  C1100    1.0000 0.79500  0.97030  0.87740  Biso   1.000  C
  Cu12     1.0000 0.00130  0.24988  0.61646  Biso   1.000  Cu
  N45      1.0000 0.23360  0.04700  0.43840  Biso   1.000  N
  N46      1.0000 0.08190  0.21030  0.59440  Biso   1.000  N
  N47      1.0000 0.97710  0.28880  0.53540  Biso   1.000  N
  N48      1.0000 0.81890  0.45070  0.38570  Biso   1.000  N
  C1101    1.0000 0.24240  0.02900  0.41540  Biso   1.000  C
  C1102    1.0000 0.21390  0.07110  0.46300  Biso   1.000  C
  C1103    1.0000 0.17130  0.08030  0.44910  Biso   1.000  C
  C1104    1.0000 0.15260  0.10300  0.47010  Biso   1.000  C
  H1046    1.0000 0.12420  0.10940  0.46100  Biso   1.000  H
  C1105    1.0000 0.17260  0.11760  0.50410  Biso   1.000  C
  C1106    1.0000 0.21530  0.10890  0.51670  Biso   1.000  C
  H1047    1.0000 0.23000  0.11990  0.53900  Biso   1.000  H
  C1107    1.0000 0.23590  0.08550  0.49800  Biso   1.000  C
  C1108    1.0000 0.27870  0.07420  0.51550  Biso   1.000  C
  C1109    1.0000 0.27660  0.05190  0.54960  Biso   1.000  C
  C1110    1.0000 0.31860  0.04280  0.56990  Biso   1.000  C
  H1048    1.0000 0.31860  0.02870  0.59310  Biso   1.000  H
  C1111    1.0000 0.35630  0.05420  0.55600  Biso   1.000  C
  C1112    1.0000 0.35840  0.07850  0.52530  Biso   1.000  C
  H1049    1.0000 0.38530  0.08760  0.51710  Biso   1.000  H
  C1113    1.0000 0.31570  0.08810  0.50750  Biso   1.000  C
  C1114    1.0000 0.32020  0.11550  0.47840  Biso   1.000  C
  H1050    1.0000 0.35110  0.12180  0.47760  Biso   1.000  H
  H1051    1.0000 0.31040  0.11070  0.44850  Biso   1.000  H
  H1052    1.0000 0.30220  0.13160  0.49020  Biso   1.000  H
  C1115    1.0000 0.23320  0.03930  0.56470  Biso   1.000  C
  H1053    1.0000 0.23830  0.02460  0.58790  Biso   1.000  H
  H1054    1.0000 0.21470  0.05530  0.57610  Biso   1.000  H
  H1055    1.0000 0.21840  0.02970  0.53980  Biso   1.000  H
  C1116    1.0000 0.40160  0.04410  0.57460  Biso   1.000  C
  H1056    1.0000 0.42510  0.05520  0.56000  Biso   1.000  H
  H1057    1.0000 0.40250  0.04790  0.60640  Biso   1.000  H
  H1058    1.0000 0.40550  0.02280  0.56920  Biso   1.000  H
  C1117    1.0000 0.14920  0.06550  0.41020  Biso   1.000  C
  C1118    1.0000 0.13960  0.08410  0.37240  Biso   1.000  C
  C1119    1.0000 0.11510  0.07190  0.33850  Biso   1.000  C
  H1059    1.0000 0.10580  0.08440  0.31510  Biso   1.000  H
  C1120    1.0000 0.10340  0.04110  0.33730  Biso   1.000  C
  C1121    1.0000 0.10950  0.02640  0.37440  Biso   1.000  C
  H1060    1.0000 0.09870  0.00670  0.37610  Biso   1.000  H
  C1122    1.0000 0.13130  0.03820  0.41170  Biso   1.000  C
  C1123    1.0000 0.13720  0.01800  0.45210  Biso   1.000  C
  H1061    1.0000 0.12190  0.99910  0.44720  Biso   1.000  H
  H1062    1.0000 0.16860  0.01420  0.45680  Biso   1.000  H
  H1063    1.0000 0.12490  0.02780  0.47810  Biso   1.000  H
  C1124    1.0000 0.08520  0.02790  0.29770  Biso   1.000  C
  H1064    1.0000 0.08370  0.04300  0.27450  Biso   1.000  H
  H1065    1.0000 0.10400  0.01150  0.28810  Biso   1.000  H
  H1066    1.0000 0.05560  0.02040  0.30390  Biso   1.000  H
  C1125    1.0000 0.15510  0.11610  0.36990  Biso   1.000  C
  H1067    1.0000 0.17180  0.12100  0.39650  Biso   1.000  H
  H1068    1.0000 0.17380  0.11870  0.34400  Biso   1.000  H
  H1069    1.0000 0.12960  0.12930  0.36760  Biso   1.000  H
  C1126    1.0000 0.15090  0.14300  0.52760  Biso   1.000  C
  C1127    1.0000 0.11240  0.15570  0.51010  Biso   1.000  C
  H1070    1.0000 0.10180  0.14920  0.48240  Biso   1.000  H
  C1128    1.0000 0.09010  0.17730  0.53300  Biso   1.000  C
  C1129    1.0000 0.10650  0.18840  0.57210  Biso   1.000  C
  C1130    1.0000 0.14540  0.17690  0.59080  Biso   1.000  C
  C1131    1.0000 0.16530  0.15400  0.56820  Biso   1.000  C
  C1132    1.0000 0.16240  0.18680  0.63420  Biso   1.000  C
  C1133    1.0000 0.14140  0.17890  0.67130  Biso   1.000  C
  C1134    1.0000 0.15690  0.18610  0.71320  Biso   1.000  C
  H1071    1.0000 0.14040  0.18070  0.73850  Biso   1.000  H
  C1135    1.0000 0.19340  0.20000  0.71720  Biso   1.000  C
  C1136    1.0000 0.21680  0.20810  0.67970  Biso   1.000  C
  H1072    1.0000 0.24310  0.21920  0.68350  Biso   1.000  H
  C1137    1.0000 0.20350  0.20060  0.63520  Biso   1.000  C
  C1138    1.0000 0.23020  0.20740  0.59780  Biso   1.000  C
  H1073    1.0000 0.25740  0.21710  0.60750  Biso   1.000  H
  H1074    1.0000 0.23730  0.18910  0.58200  Biso   1.000  H
  H1075    1.0000 0.21410  0.22090  0.57820  Biso   1.000  H
  C1139    1.0000 0.09750  0.16020  0.66910  Biso   1.000  C
  H1076    1.0000 0.08680  0.15650  0.69900  Biso   1.000  H
  H1077    1.0000 0.07530  0.17140  0.65260  Biso   1.000  H
  H1078    1.0000 0.10320  0.14120  0.65430  Biso   1.000  H
  C1140    1.0000 0.21040  0.21000  0.76410  Biso   1.000  C
  H1079    1.0000 0.23860  0.22030  0.76100  Biso   1.000  H
  H1080    1.0000 0.18890  0.22350  0.77750  Biso   1.000  H
  H1081    1.0000 0.21410  0.19250  0.78290  Biso   1.000  H
  C1141    1.0000 0.05000  0.21110  0.48070  Biso   1.000  C
  C1142    1.0000 0.01120  0.22330  0.46460  Biso   1.000  C
  H1082    1.0000 0.01220  0.23760  0.44160  Biso   1.000  H
  C1143    1.0000 0.97110  0.21470  0.48220  Biso   1.000  C
  C1144    1.0000 0.96960  0.19380  0.51580  Biso   1.000  C
  H1083    1.0000 0.94220  0.18780  0.52790  Biso   1.000  H
  C1145    1.0000 0.00840  0.18150  0.53190  Biso   1.000  C
  C1146    1.0000 0.04850  0.19020  0.51440  Biso   1.000  C
  C1147    1.0000 0.09420  0.22070  0.45890  Biso   1.000  C
  H1084    1.0000 0.11870  0.21050  0.47340  Biso   1.000  H
  H1085    1.0000 0.09380  0.21550  0.42760  Biso   1.000  H
  H1086    1.0000 0.09800  0.24230  0.46210  Biso   1.000  H
  C1148    1.0000 0.92900  0.22890  0.46150  Biso   1.000  C
  H1087    1.0000 0.93760  0.24300  0.43840  Biso   1.000  H
  H1088    1.0000 0.91050  0.21330  0.44870  Biso   1.000  H
  H1089    1.0000 0.91240  0.23940  0.48440  Biso   1.000  H
  C1149    1.0000 0.00730  0.16040  0.56910  Biso   1.000  C
  H1090    1.0000 0.03740  0.15400  0.57610  Biso   1.000  H
  H1091    1.0000 0.99430  0.17010  0.59490  Biso   1.000  H
  H1092    1.0000 0.98970  0.14300  0.56100  Biso   1.000  H
  C1150    1.0000 0.05450  0.22620  0.60580  Biso   1.000  C
  C1151    1.0000 0.98800  0.27260  0.56350  Biso   1.000  C
  C1152    1.0000 0.95570  0.31170  0.51200  Biso   1.000  C
  C1153    1.0000 0.91500  0.32110  0.53020  Biso   1.000  C
  C1154    1.0000 0.89380  0.34320  0.50690  Biso   1.000  C
  H1093    1.0000 0.86640  0.35010  0.51780  Biso   1.000  H
  C1155    1.0000 0.90980  0.35590  0.46870  Biso   1.000  C
  C1156    1.0000 0.94990  0.34510  0.45110  Biso   1.000  C
  H1094    1.0000 0.96170  0.35320  0.42480  Biso   1.000  H
  C1157    1.0000 0.97160  0.32250  0.47290  Biso   1.000  C
  C1158    1.0000 0.01510  0.31200  0.45410  Biso   1.000  C
  C1159    1.0000 0.01920  0.29810  0.41510  Biso   1.000  C
  C1160    1.0000 0.06040  0.28920  0.39900  Biso   1.000  C
  H1095    1.0000 0.06220  0.27740  0.37310  Biso   1.000  H
  C1161    1.0000 0.09820  0.29750  0.42050  Biso   1.000  C
  C1162    1.0000 0.09480  0.31370  0.45840  Biso   1.000  C
  H1096    1.0000 0.12100  0.31950  0.47310  Biso   1.000  H
  C1163    1.0000 0.05590  0.32170  0.47590  Biso   1.000  C
  C1164    1.0000 0.05390  0.34150  0.51430  Biso   1.000  C
  H1097    1.0000 0.02310  0.34490  0.52240  Biso   1.000  H
  H1098    1.0000 0.06940  0.33230  0.53900  Biso   1.000  H
  H1099    1.0000 0.06780  0.36050  0.50700  Biso   1.000  H
  C1165    1.0000 0.97760  0.29000  0.39020  Biso   1.000  C
  H1100    1.0000 0.98550  0.28010  0.36260  Biso   1.000  H
  H1101    1.0000 0.95970  0.27660  0.40810  Biso   1.000  H
  H1102    1.0000 0.96090  0.30810  0.38370  Biso   1.000  H
  C1166    1.0000 0.13730  0.28860  0.39260  Biso   1.000  C
  H1103    1.0000 0.12710  0.27690  0.36740  Biso   1.000  H
  H1104    1.0000 0.15230  0.30650  0.38200  Biso   1.000  H
  H1105    1.0000 0.15770  0.27680  0.41030  Biso   1.000  H
  C1167    1.0000 0.89530  0.30960  0.57290  Biso   1.000  C
  C1168    1.0000 0.91580  0.31780  0.61040  Biso   1.000  C
  C1169    1.0000 0.95550  0.33900  0.61240  Biso   1.000  C
  H1106    1.0000 0.96460  0.34160  0.64310  Biso   1.000  H
  H1107    1.0000 0.97990  0.33050  0.59550  Biso   1.000  H
  H1108    1.0000 0.94730  0.35830  0.59990  Biso   1.000  H
  C1170    1.0000 0.89690  0.30850  0.65010  Biso   1.000  C
  H1109    1.0000 0.91080  0.31350  0.67710  Biso   1.000  H
  C1171    1.0000 0.85660  0.29150  0.65110  Biso   1.000  C
  C1172    1.0000 0.84520  0.28220  0.61470  Biso   1.000  C
  H1110    1.0000 0.82590  0.26560  0.61450  Biso   1.000  H
  C1173    1.0000 0.85790  0.29380  0.57280  Biso   1.000  C
  C1174    1.0000 0.83550  0.28420  0.52940  Biso   1.000  C
  H1111    1.0000 0.80880  0.27290  0.53610  Biso   1.000  H
  H1112    1.0000 0.82790  0.30180  0.51220  Biso   1.000  H
  H1113    1.0000 0.85570  0.27170  0.51250  Biso   1.000  H
  C1175    1.0000 0.83170  0.28320  0.68970  Biso   1.000  C
  H1114    1.0000 0.84490  0.29230  0.71580  Biso   1.000  H
  H1115    1.0000 0.80130  0.29010  0.68650  Biso   1.000  H
  H1116    1.0000 0.83190  0.26150  0.69290  Biso   1.000  H
  C1176    1.0000 0.88670  0.38000  0.44520  Biso   1.000  C
  C1177    1.0000 0.89440  0.38860  0.40510  Biso   1.000  C
  H1117    1.0000 0.91650  0.37800  0.38940  Biso   1.000  H
  C1178    1.0000 0.87380  0.41120  0.38310  Biso   1.000  C
  C1179    1.0000 0.83960  0.42650  0.40500  Biso   1.000  C
  C1180    1.0000 0.82840  0.41820  0.44780  Biso   1.000  C
  C1181    1.0000 0.85350  0.39590  0.46880  Biso   1.000  C
  H1118    1.0000 0.84820  0.39150  0.49890  Biso   1.000  H
  C1182    1.0000 0.79190  0.43140  0.47210  Biso   1.000  C
  C1183    1.0000 0.79210  0.46030  0.48550  Biso   1.000  C
  C1184    1.0000 0.75720  0.46960  0.51330  Biso   1.000  C
  H1119    1.0000 0.76080  0.48720  0.53030  Biso   1.000  H
  C1185    1.0000 0.71910  0.45450  0.51650  Biso   1.000  C
  C1186    1.0000 0.71930  0.42640  0.50400  Biso   1.000  C
  H1120    1.0000 0.69450  0.41450  0.51110  Biso   1.000  H
  C1187    1.0000 0.75340  0.41330  0.48100  Biso   1.000  C
  C1188    1.0000 0.74990  0.38260  0.46460  Biso   1.000  C
  H1121    1.0000 0.77700  0.37720  0.44920  Biso   1.000  H
  H1122    1.0000 0.74520  0.36910  0.48940  Biso   1.000  H
  H1123    1.0000 0.72500  0.38120  0.44420  Biso   1.000  H
  C1189    1.0000 0.83030  0.48120  0.48010  Biso   1.000  C
  H1124    1.0000 0.82260  0.50070  0.49220  Biso   1.000  H
  H1125    1.0000 0.85590  0.47320  0.49570  Biso   1.000  H
  H1126    1.0000 0.83730  0.48320  0.44870  Biso   1.000  H
  C1190    1.0000 0.67580  0.46830  0.53870  Biso   1.000  C
  H1127    1.0000 0.68110  0.48920  0.54600  Biso   1.000  H
  H1128    1.0000 0.65120  0.46690  0.51800  Biso   1.000  H
  H1129    1.0000 0.66870  0.45720  0.56550  Biso   1.000  H
  C1191    1.0000 0.89290  0.42180  0.33980  Biso   1.000  C
  C1192    1.0000 0.88330  0.40810  0.30000  Biso   1.000  C
  C1193    1.0000 0.90290  0.41810  0.26140  Biso   1.000  C
  H1130    1.0000 0.89630  0.40870  0.23420  Biso   1.000  H
  C1194    1.0000 0.93210  0.44180  0.26270  Biso   1.000  C
  C1195    1.0000 0.94170  0.45550  0.30250  Biso   1.000  C
  H1131    1.0000 0.96170  0.47180  0.30340  Biso   1.000  H
  C1196    1.0000 0.92210  0.44550  0.34100  Biso   1.000  C
  C1197    1.0000 0.85520  0.38150  0.30150  Biso   1.000  C
  H1132    1.0000 0.86190  0.36870  0.27630  Biso   1.000  H
  H1133    1.0000 0.82430  0.38750  0.30030  Biso   1.000  H
  H1134    1.0000 0.86070  0.37060  0.32890  Biso   1.000  H
  C1198    1.0000 0.93260  0.46240  0.38090  Biso   1.000  C
  H1135    1.0000 0.94420  0.44750  0.39840  Biso   1.000  H
  H1136    1.0000 0.95380  0.47880  0.37530  Biso   1.000  H
  H1137    1.0000 0.90630  0.47200  0.39540  Biso   1.000  H
  C1199    1.0000 0.95290  0.45090  0.21760  Biso   1.000  C
  H1138    1.0000 0.97290  0.46780  0.22210  Biso   1.000  H
  H1139    1.0000 0.96930  0.43410  0.20550  Biso   1.000  H
  H1140    1.0000 0.92960  0.45670  0.19710  Biso   1.000  H
  C1200    1.0000 0.79500  0.47030  0.37740  Biso   1.000  C
  Cu13     1.0000 0.74870  0.99988  0.86646  Biso   1.000  Cu
  N49      1.0000 0.51640  0.79700  0.68840  Biso   1.000  N
  N50      1.0000 0.66810  0.96030  0.84440  Biso   1.000  N
  N51      1.0000 0.77290  0.03880  0.78540  Biso   1.000  N
  N52      1.0000 0.93110  0.20070  0.63570  Biso   1.000  N
  C1201    1.0000 0.50760  0.77900  0.66540  Biso   1.000  C
  C1202    1.0000 0.53610  0.82110  0.71300  Biso   1.000  C
  C1203    1.0000 0.57870  0.83030  0.69910  Biso   1.000  C
  C1204    1.0000 0.59740  0.85300  0.72010  Biso   1.000  C
  H1141    1.0000 0.62580  0.85940  0.71100  Biso   1.000  H
  C1205    1.0000 0.57740  0.86760  0.75410  Biso   1.000  C
  C1206    1.0000 0.53470  0.85890  0.76670  Biso   1.000  C
  H1142    1.0000 0.52000  0.86990  0.78900  Biso   1.000  H
  C1207    1.0000 0.51410  0.83550  0.74800  Biso   1.000  C
  C1208    1.0000 0.47130  0.82420  0.76550  Biso   1.000  C
  C1209    1.0000 0.47340  0.80190  0.79960  Biso   1.000  C
  C1210    1.0000 0.43140  0.79280  0.81990  Biso   1.000  C
  H1143    1.0000 0.43140  0.77870  0.84310  Biso   1.000  H
  C1211    1.0000 0.39370  0.80420  0.80600  Biso   1.000  C
  C1212    1.0000 0.39160  0.82850  0.77530  Biso   1.000  C
  H1144    1.0000 0.36470  0.83760  0.76710  Biso   1.000  H
  C1213    1.0000 0.43430  0.83810  0.75750  Biso   1.000  C
  C1214    1.0000 0.42980  0.86550  0.72840  Biso   1.000  C
  H1145    1.0000 0.39890  0.87180  0.72760  Biso   1.000  H
  H1146    1.0000 0.43960  0.86070  0.69850  Biso   1.000  H
  H1147    1.0000 0.44780  0.88160  0.74020  Biso   1.000  H
  C1215    1.0000 0.51680  0.78930  0.81470  Biso   1.000  C
  H1148    1.0000 0.51170  0.77460  0.83790  Biso   1.000  H
  H1149    1.0000 0.53530  0.80530  0.82610  Biso   1.000  H
  H1150    1.0000 0.53160  0.77970  0.78980  Biso   1.000  H
  C1216    1.0000 0.34840  0.79410  0.82460  Biso   1.000  C
  H1151    1.0000 0.32490  0.80520  0.81000  Biso   1.000  H
  H1152    1.0000 0.34750  0.79790  0.85640  Biso   1.000  H
  H1153    1.0000 0.34450  0.77280  0.81920  Biso   1.000  H
  C1217    1.0000 0.60080  0.81550  0.66020  Biso   1.000  C
  C1218    1.0000 0.61040  0.83410  0.62240  Biso   1.000  C
  C1219    1.0000 0.63490  0.82190  0.58850  Biso   1.000  C
  H1154    1.0000 0.64420  0.83440  0.56510  Biso   1.000  H
  C1220    1.0000 0.64660  0.79110  0.58730  Biso   1.000  C
  C1221    1.0000 0.64050  0.77640  0.62440  Biso   1.000  C
  H1155    1.0000 0.65130  0.75670  0.62610  Biso   1.000  H
  C1222    1.0000 0.61870  0.78820  0.66170  Biso   1.000  C
  C1223    1.0000 0.61280  0.76800  0.70210  Biso   1.000  C
  H1156    1.0000 0.62810  0.74910  0.69720  Biso   1.000  H
  H1157    1.0000 0.58140  0.76420  0.70680  Biso   1.000  H
  H1158    1.0000 0.62510  0.77780  0.72810  Biso   1.000  H
  C1224    1.0000 0.66480  0.77790  0.54770  Biso   1.000  C
  H1159    1.0000 0.66630  0.79300  0.52450  Biso   1.000  H
  H1160    1.0000 0.64600  0.76150  0.53810  Biso   1.000  H
  H1161    1.0000 0.69440  0.77040  0.55390  Biso   1.000  H
  C1225    1.0000 0.59490  0.86610  0.61990  Biso   1.000  C
  H1162    1.0000 0.57820  0.87100  0.64650  Biso   1.000  H
  H1163    1.0000 0.57620  0.86870  0.59400  Biso   1.000  H
  H1164    1.0000 0.62040  0.87930  0.61760  Biso   1.000  H
  C1226    1.0000 0.59910  0.89300  0.77760  Biso   1.000  C
  C1227    1.0000 0.63760  0.90570  0.76010  Biso   1.000  C
  H1165    1.0000 0.64820  0.89920  0.73240  Biso   1.000  H
  C1228    1.0000 0.65990  0.92730  0.78300  Biso   1.000  C
  C1229    1.0000 0.64350  0.93840  0.82210  Biso   1.000  C
  C1230    1.0000 0.60460  0.92690  0.84080  Biso   1.000  C
  C1231    1.0000 0.58470  0.90400  0.81820  Biso   1.000  C
  C1232    1.0000 0.58760  0.93680  0.88420  Biso   1.000  C
  C1233    1.0000 0.60860  0.92890  0.92130  Biso   1.000  C
  C1234    1.0000 0.59310  0.93610  0.96320  Biso   1.000  C
  H1166    1.0000 0.60960  0.93070  0.98850  Biso   1.000  H
  C1235    1.0000 0.55660  0.95000  0.96720  Biso   1.000  C
  C1236    1.0000 0.53320  0.95810  0.92970  Biso   1.000  C
  H1167    1.0000 0.50690  0.96920  0.93350  Biso   1.000  H
  C1237    1.0000 0.54650  0.95060  0.88520  Biso   1.000  C
  C1238    1.0000 0.51980  0.95740  0.84780  Biso   1.000  C
  H1168    1.0000 0.49260  0.96710  0.85750  Biso   1.000  H
  H1169    1.0000 0.51270  0.93910  0.83200  Biso   1.000  H
  H1170    1.0000 0.53590  0.97090  0.82820  Biso   1.000  H
  C1239    1.0000 0.65250  0.91020  0.91910  Biso   1.000  C
  H1171    1.0000 0.66320  0.90650  0.94900  Biso   1.000  H
  H1172    1.0000 0.67470  0.92140  0.90260  Biso   1.000  H
  H1173    1.0000 0.64680  0.89120  0.90430  Biso   1.000  H
  C1240    1.0000 0.53960  0.96000  0.01410  Biso   1.000  C
  H1174    1.0000 0.51140  0.97030  0.01100  Biso   1.000  H
  H1175    1.0000 0.56110  0.97350  0.02750  Biso   1.000  H
  H1176    1.0000 0.53590  0.94250  0.03290  Biso   1.000  H
  C1241    1.0000 0.70000  0.96110  0.73070  Biso   1.000  C
  C1242    1.0000 0.73880  0.97330  0.71460  Biso   1.000  C
  H1177    1.0000 0.73780  0.98760  0.69160  Biso   1.000  H
  C1243    1.0000 0.77890  0.96470  0.73220  Biso   1.000  C
  C1244    1.0000 0.78040  0.94380  0.76580  Biso   1.000  C
  H1178    1.0000 0.80780  0.93780  0.77790  Biso   1.000  H
  C1245    1.0000 0.74160  0.93150  0.78190  Biso   1.000  C
  C1246    1.0000 0.70150  0.94020  0.76440  Biso   1.000  C
  C1247    1.0000 0.65580  0.97070  0.70890  Biso   1.000  C
  H1179    1.0000 0.63130  0.96050  0.72340  Biso   1.000  H
  H1180    1.0000 0.65620  0.96550  0.67760  Biso   1.000  H
  H1181    1.0000 0.65200  0.99230  0.71210  Biso   1.000  H
  C1248    1.0000 0.82100  0.97890  0.71150  Biso   1.000  C
  H1182    1.0000 0.81240  0.99300  0.68840  Biso   1.000  H
  H1183    1.0000 0.83950  0.96330  0.69870  Biso   1.000  H
  H1184    1.0000 0.83760  0.98940  0.73440  Biso   1.000  H
  C1249    1.0000 0.74270  0.91040  0.81910  Biso   1.000  C
  H1185    1.0000 0.71260  0.90400  0.82610  Biso   1.000  H
  H1186    1.0000 0.75570  0.92010  0.84490  Biso   1.000  H
  H1187    1.0000 0.76030  0.89300  0.81100  Biso   1.000  H
  C1250    1.0000 0.69550  0.97620  0.85580  Biso   1.000  C
  C1251    1.0000 0.76200  0.02260  0.81350  Biso   1.000  C
  C1252    1.0000 0.79430  0.06170  0.76200  Biso   1.000  C
  C1253    1.0000 0.83500  0.07110  0.78020  Biso   1.000  C
  C1254    1.0000 0.85620  0.09320  0.75690  Biso   1.000  C
  H1188    1.0000 0.88360  0.10010  0.76780  Biso   1.000  H
  C1255    1.0000 0.84020  0.10590  0.71870  Biso   1.000  C
  C1256    1.0000 0.80010  0.09510  0.70110  Biso   1.000  C
  H1189    1.0000 0.78830  0.10320  0.67480  Biso   1.000  H
  C1257    1.0000 0.77840  0.07250  0.72290  Biso   1.000  C
  C1258    1.0000 0.73490  0.06200  0.70410  Biso   1.000  C
  C1259    1.0000 0.73080  0.04810  0.66510  Biso   1.000  C
  C1260    1.0000 0.68960  0.03920  0.64900  Biso   1.000  C
  H1190    1.0000 0.68780  0.02740  0.62310  Biso   1.000  H
  C1261    1.0000 0.65180  0.04750  0.67050  Biso   1.000  C
  C1262    1.0000 0.65520  0.06370  0.70840  Biso   1.000  C
  H1191    1.0000 0.62900  0.06950  0.72310  Biso   1.000  H
  C1263    1.0000 0.69410  0.07170  0.72590  Biso   1.000  C
  C1264    1.0000 0.69610  0.09150  0.76430  Biso   1.000  C
  H1192    1.0000 0.72690  0.09490  0.77240  Biso   1.000  H
  H1193    1.0000 0.68060  0.08230  0.78900  Biso   1.000  H
  H1194    1.0000 0.68220  0.11050  0.75700  Biso   1.000  H
  C1265    1.0000 0.77240  0.04000  0.64020  Biso   1.000  C
  H1195    1.0000 0.76450  0.03010  0.61260  Biso   1.000  H
  H1196    1.0000 0.79030  0.02660  0.65810  Biso   1.000  H
  H1197    1.0000 0.78910  0.05810  0.63370  Biso   1.000  H
  C1266    1.0000 0.61270  0.03860  0.64260  Biso   1.000  C
  H1198    1.0000 0.62290  0.02690  0.61740  Biso   1.000  H
  H1199    1.0000 0.59770  0.05650  0.63200  Biso   1.000  H
  H1200    1.0000 0.59230  0.02680  0.66030  Biso   1.000  H
  C1267    1.0000 0.85470  0.05960  0.82290  Biso   1.000  C
  C1268    1.0000 0.83420  0.06780  0.86040  Biso   1.000  C
  C1269    1.0000 0.79450  0.08900  0.86240  Biso   1.000  C
  H1201    1.0000 0.78540  0.09160  0.89310  Biso   1.000  H
  H1202    1.0000 0.77010  0.08050  0.84550  Biso   1.000  H
  H1203    1.0000 0.80270  0.10830  0.84990  Biso   1.000  H
  C1270    1.0000 0.85310  0.05850  0.90010  Biso   1.000  C
  H1204    1.0000 0.83920  0.06350  0.92710  Biso   1.000  H
  C1271    1.0000 0.89340  0.04150  0.90110  Biso   1.000  C
  C1272    1.0000 0.90480  0.03220  0.86470  Biso   1.000  C
  H1205    1.0000 0.92410  0.01560  0.86450  Biso   1.000  H
  C1273    1.0000 0.89210  0.04380  0.82280  Biso   1.000  C
  C1274    1.0000 0.91450  0.03420  0.77940  Biso   1.000  C
  H1206    1.0000 0.94120  0.02290  0.78610  Biso   1.000  H
  H1207    1.0000 0.92210  0.05180  0.76220  Biso   1.000  H
  H1208    1.0000 0.89430  0.02170  0.76250  Biso   1.000  H
  C1275    1.0000 0.91830  0.03320  0.93970  Biso   1.000  C
  H1209    1.0000 0.90510  0.04230  0.96580  Biso   1.000  H
  H1210    1.0000 0.94870  0.04010  0.93650  Biso   1.000  H
  H1211    1.0000 0.91810  0.01150  0.94290  Biso   1.000  H
  C1276    1.0000 0.86330  0.13000  0.69520  Biso   1.000  C
  C1277    1.0000 0.85560  0.13860  0.65510  Biso   1.000  C
  H1212    1.0000 0.83350  0.12800  0.63940  Biso   1.000  H
  C1278    1.0000 0.87620  0.16120  0.63310  Biso   1.000  C
  C1279    1.0000 0.91040  0.17650  0.65500  Biso   1.000  C
  C1280    1.0000 0.92160  0.16820  0.69780  Biso   1.000  C
  C1281    1.0000 0.89650  0.14590  0.71880  Biso   1.000  C
  H1213    1.0000 0.90180  0.14150  0.74890  Biso   1.000  H
  C1282    1.0000 0.95810  0.18140  0.72210  Biso   1.000  C
  C1283    1.0000 0.95790  0.21030  0.73550  Biso   1.000  C
  C1284    1.0000 0.99280  0.21960  0.76330  Biso   1.000  C
  H1214    1.0000 0.98920  0.23720  0.78030  Biso   1.000  H
  C1285    1.0000 0.03090  0.20450  0.76650  Biso   1.000  C
  C1286    1.0000 0.03070  0.17640  0.75400  Biso   1.000  C
  H1215    1.0000 0.05550  0.16450  0.76110  Biso   1.000  H
  C1287    1.0000 0.99660  0.16330  0.73100  Biso   1.000  C
  C1288    1.0000 0.00010  0.13260  0.71460  Biso   1.000  C
  H1216    1.0000 0.97300  0.12720  0.69920  Biso   1.000  H
  H1217    1.0000 0.00480  0.11910  0.73940  Biso   1.000  H
  H1218    1.0000 0.02500  0.13120  0.69420  Biso   1.000  H
  C1289    1.0000 0.91970  0.23120  0.73010  Biso   1.000  C
  H1219    1.0000 0.92740  0.25070  0.74220  Biso   1.000  H
  H1220    1.0000 0.89410  0.22320  0.74570  Biso   1.000  H
  H1221    1.0000 0.91270  0.23320  0.69870  Biso   1.000  H
  C1290    1.0000 0.07420  0.21830  0.78870  Biso   1.000  C
  H1222    1.0000 0.06890  0.23920  0.79600  Biso   1.000  H
  H1223    1.0000 0.09880  0.21690  0.76800  Biso   1.000  H
  H1224    1.0000 0.08130  0.20720  0.81550  Biso   1.000  H
  C1291    1.0000 0.85710  0.17180  0.58980  Biso   1.000  C
  C1292    1.0000 0.86670  0.15810  0.55000  Biso   1.000  C
  C1293    1.0000 0.84710  0.16810  0.51140  Biso   1.000  C
  H1225    1.0000 0.85370  0.15870  0.48420  Biso   1.000  H
  C1294    1.0000 0.81790  0.19180  0.51270  Biso   1.000  C
  C1295    1.0000 0.80830  0.20550  0.55250  Biso   1.000  C
  H1226    1.0000 0.78830  0.22180  0.55340  Biso   1.000  H
  C1296    1.0000 0.82790  0.19550  0.59100  Biso   1.000  C
  C1297    1.0000 0.89480  0.13150  0.55150  Biso   1.000  C
  H1227    1.0000 0.88810  0.11870  0.52630  Biso   1.000  H
  H1228    1.0000 0.92570  0.13750  0.55030  Biso   1.000  H
  H1229    1.0000 0.88930  0.12060  0.57890  Biso   1.000  H
  C1298    1.0000 0.81740  0.21240  0.63090  Biso   1.000  C
  H1230    1.0000 0.80580  0.19750  0.64840  Biso   1.000  H
  H1231    1.0000 0.79620  0.22880  0.62530  Biso   1.000  H
  H1232    1.0000 0.84370  0.22200  0.64540  Biso   1.000  H
  C1299    1.0000 0.79710  0.20090  0.46760  Biso   1.000  C
  H1233    1.0000 0.77710  0.21780  0.47210  Biso   1.000  H
  H1234    1.0000 0.78070  0.18410  0.45550  Biso   1.000  H
  H1235    1.0000 0.82040  0.20670  0.44710  Biso   1.000  H
  C1300    1.0000 0.95500  0.22030  0.62740  Biso   1.000  C
  Cu14     1.0000 0.74870  0.49988  0.36646  Biso   1.000  Cu
  N53      1.0000 0.51640  0.29700  0.18840  Biso   1.000  N
  N54      1.0000 0.66810  0.46030  0.34440  Biso   1.000  N
  N55      1.0000 0.77290  0.53880  0.28540  Biso   1.000  N
  N56      1.0000 0.93110  0.70070  0.13570  Biso   1.000  N
  C1301    1.0000 0.50760  0.27900  0.16540  Biso   1.000  C
  C1302    1.0000 0.53610  0.32110  0.21300  Biso   1.000  C
  C1303    1.0000 0.57870  0.33030  0.19910  Biso   1.000  C
  C1304    1.0000 0.59740  0.35300  0.22010  Biso   1.000  C
  H1236    1.0000 0.62580  0.35940  0.21100  Biso   1.000  H
  C1305    1.0000 0.57740  0.36760  0.25410  Biso   1.000  C
  C1306    1.0000 0.53470  0.35890  0.26670  Biso   1.000  C
  H1237    1.0000 0.52000  0.36990  0.28900  Biso   1.000  H
  C1307    1.0000 0.51410  0.33550  0.24800  Biso   1.000  C
  C1308    1.0000 0.47130  0.32420  0.26550  Biso   1.000  C
  C1309    1.0000 0.47340  0.30190  0.29960  Biso   1.000  C
  C1310    1.0000 0.43140  0.29280  0.31990  Biso   1.000  C
  H1238    1.0000 0.43140  0.27870  0.34310  Biso   1.000  H
  C1311    1.0000 0.39370  0.30420  0.30600  Biso   1.000  C
  C1312    1.0000 0.39160  0.32850  0.27530  Biso   1.000  C
  H1239    1.0000 0.36470  0.33760  0.26710  Biso   1.000  H
  C1313    1.0000 0.43430  0.33810  0.25750  Biso   1.000  C
  C1314    1.0000 0.42980  0.36550  0.22840  Biso   1.000  C
  H1240    1.0000 0.39890  0.37180  0.22760  Biso   1.000  H
  H1241    1.0000 0.43960  0.36070  0.19850  Biso   1.000  H
  H1242    1.0000 0.44780  0.38160  0.24020  Biso   1.000  H
  C1315    1.0000 0.51680  0.28930  0.31470  Biso   1.000  C
  H1243    1.0000 0.51170  0.27460  0.33790  Biso   1.000  H
  H1244    1.0000 0.53530  0.30530  0.32610  Biso   1.000  H
  H1245    1.0000 0.53160  0.27970  0.28980  Biso   1.000  H
  C1316    1.0000 0.34840  0.29410  0.32460  Biso   1.000  C
  H1246    1.0000 0.32490  0.30520  0.31000  Biso   1.000  H
  H1247    1.0000 0.34750  0.29790  0.35640  Biso   1.000  H
  H1248    1.0000 0.34450  0.27280  0.31920  Biso   1.000  H
  C1317    1.0000 0.60080  0.31550  0.16020  Biso   1.000  C
  C1318    1.0000 0.61040  0.33410  0.12240  Biso   1.000  C
  C1319    1.0000 0.63490  0.32190  0.08850  Biso   1.000  C
  H1249    1.0000 0.64420  0.33440  0.06510  Biso   1.000  H
  C1320    1.0000 0.64660  0.29110  0.08730  Biso   1.000  C
  C1321    1.0000 0.64050  0.27640  0.12440  Biso   1.000  C
  H1250    1.0000 0.65130  0.25670  0.12610  Biso   1.000  H
  C1322    1.0000 0.61870  0.28820  0.16170  Biso   1.000  C
  C1323    1.0000 0.61280  0.26800  0.20210  Biso   1.000  C
  H1251    1.0000 0.62810  0.24910  0.19720  Biso   1.000  H
  H1252    1.0000 0.58140  0.26420  0.20680  Biso   1.000  H
  H1253    1.0000 0.62510  0.27780  0.22810  Biso   1.000  H
  C1324    1.0000 0.66480  0.27790  0.04770  Biso   1.000  C
  H1254    1.0000 0.66630  0.29300  0.02450  Biso   1.000  H
  H1255    1.0000 0.64600  0.26150  0.03810  Biso   1.000  H
  H1256    1.0000 0.69440  0.27040  0.05390  Biso   1.000  H
  C1325    1.0000 0.59490  0.36610  0.11990  Biso   1.000  C
  H1257    1.0000 0.57820  0.37100  0.14650  Biso   1.000  H
  H1258    1.0000 0.57620  0.36870  0.09400  Biso   1.000  H
  H1259    1.0000 0.62040  0.37930  0.11760  Biso   1.000  H
  C1326    1.0000 0.59910  0.39300  0.27760  Biso   1.000  C
  C1327    1.0000 0.63760  0.40570  0.26010  Biso   1.000  C
  H1260    1.0000 0.64820  0.39920  0.23240  Biso   1.000  H
  C1328    1.0000 0.65990  0.42730  0.28300  Biso   1.000  C
  C1329    1.0000 0.64350  0.43840  0.32210  Biso   1.000  C
  C1330    1.0000 0.60460  0.42690  0.34080  Biso   1.000  C
  C1331    1.0000 0.58470  0.40400  0.31820  Biso   1.000  C
  C1332    1.0000 0.58760  0.43680  0.38420  Biso   1.000  C
  C1333    1.0000 0.60860  0.42890  0.42130  Biso   1.000  C
  C1334    1.0000 0.59310  0.43610  0.46320  Biso   1.000  C
  H1261    1.0000 0.60960  0.43070  0.48850  Biso   1.000  H
  C1335    1.0000 0.55660  0.45000  0.46720  Biso   1.000  C
  C1336    1.0000 0.53320  0.45810  0.42970  Biso   1.000  C
  H1262    1.0000 0.50690  0.46920  0.43350  Biso   1.000  H
  C1337    1.0000 0.54650  0.45060  0.38520  Biso   1.000  C
  C1338    1.0000 0.51980  0.45740  0.34780  Biso   1.000  C
  H1263    1.0000 0.49260  0.46710  0.35750  Biso   1.000  H
  H1264    1.0000 0.51270  0.43910  0.33200  Biso   1.000  H
  H1265    1.0000 0.53590  0.47090  0.32820  Biso   1.000  H
  C1339    1.0000 0.65250  0.41020  0.41910  Biso   1.000  C
  H1266    1.0000 0.66320  0.40650  0.44900  Biso   1.000  H
  H1267    1.0000 0.67470  0.42140  0.40260  Biso   1.000  H
  H1268    1.0000 0.64680  0.39120  0.40430  Biso   1.000  H
  C1340    1.0000 0.53960  0.46000  0.51410  Biso   1.000  C
  H1269    1.0000 0.51140  0.47030  0.51100  Biso   1.000  H
  H1270    1.0000 0.56110  0.47350  0.52750  Biso   1.000  H
  H1271    1.0000 0.53590  0.44250  0.53290  Biso   1.000  H
  C1341    1.0000 0.70000  0.46110  0.23070  Biso   1.000  C
  C1342    1.0000 0.73880  0.47330  0.21460  Biso   1.000  C
  H1272    1.0000 0.73780  0.48760  0.19160  Biso   1.000  H
  C1343    1.0000 0.77890  0.46470  0.23220  Biso   1.000  C
  C1344    1.0000 0.78040  0.44380  0.26580  Biso   1.000  C
  H1273    1.0000 0.80780  0.43780  0.27790  Biso   1.000  H
  C1345    1.0000 0.74160  0.43150  0.28190  Biso   1.000  C
  C1346    1.0000 0.70150  0.44020  0.26440  Biso   1.000  C
  C1347    1.0000 0.65580  0.47070  0.20890  Biso   1.000  C
  H1274    1.0000 0.63130  0.46050  0.22340  Biso   1.000  H
  H1275    1.0000 0.65620  0.46550  0.17760  Biso   1.000  H
  H1276    1.0000 0.65200  0.49230  0.21210  Biso   1.000  H
  C1348    1.0000 0.82100  0.47890  0.21150  Biso   1.000  C
  H1277    1.0000 0.81240  0.49300  0.18840  Biso   1.000  H
  H1278    1.0000 0.83950  0.46330  0.19870  Biso   1.000  H
  H1279    1.0000 0.83760  0.48940  0.23440  Biso   1.000  H
  C1349    1.0000 0.74270  0.41040  0.31910  Biso   1.000  C
  H1280    1.0000 0.71260  0.40400  0.32610  Biso   1.000  H
  H1281    1.0000 0.75570  0.42010  0.34490  Biso   1.000  H
  H1282    1.0000 0.76030  0.39300  0.31100  Biso   1.000  H
  C1350    1.0000 0.69550  0.47620  0.35580  Biso   1.000  C
  C1351    1.0000 0.76200  0.52260  0.31350  Biso   1.000  C
  C1352    1.0000 0.79430  0.56170  0.26200  Biso   1.000  C
  C1353    1.0000 0.83500  0.57110  0.28020  Biso   1.000  C
  C1354    1.0000 0.85620  0.59320  0.25690  Biso   1.000  C
  H1283    1.0000 0.88360  0.60010  0.26780  Biso   1.000  H
  C1355    1.0000 0.84020  0.60590  0.21870  Biso   1.000  C
  C1356    1.0000 0.80010  0.59510  0.20110  Biso   1.000  C
  H1284    1.0000 0.78830  0.60320  0.17480  Biso   1.000  H
  C1357    1.0000 0.77840  0.57250  0.22290  Biso   1.000  C
  C1358    1.0000 0.73490  0.56200  0.20410  Biso   1.000  C
  C1359    1.0000 0.73080  0.54810  0.16510  Biso   1.000  C
  C1360    1.0000 0.68960  0.53920  0.14900  Biso   1.000  C
  H1285    1.0000 0.68780  0.52740  0.12310  Biso   1.000  H
  C1361    1.0000 0.65180  0.54750  0.17050  Biso   1.000  C
  C1362    1.0000 0.65520  0.56370  0.20840  Biso   1.000  C
  H1286    1.0000 0.62900  0.56950  0.22310  Biso   1.000  H
  C1363    1.0000 0.69410  0.57170  0.22590  Biso   1.000  C
  C1364    1.0000 0.69610  0.59150  0.26430  Biso   1.000  C
  H1287    1.0000 0.72690  0.59490  0.27240  Biso   1.000  H
  H1288    1.0000 0.68060  0.58230  0.28900  Biso   1.000  H
  H1289    1.0000 0.68220  0.61050  0.25700  Biso   1.000  H
  C1365    1.0000 0.77240  0.54000  0.14020  Biso   1.000  C
  H1290    1.0000 0.76450  0.53010  0.11260  Biso   1.000  H
  H1291    1.0000 0.79030  0.52660  0.15810  Biso   1.000  H
  H1292    1.0000 0.78910  0.55810  0.13370  Biso   1.000  H
  C1366    1.0000 0.61270  0.53860  0.14260  Biso   1.000  C
  H1293    1.0000 0.62290  0.52690  0.11740  Biso   1.000  H
  H1294    1.0000 0.59770  0.55650  0.13200  Biso   1.000  H
  H1295    1.0000 0.59230  0.52680  0.16030  Biso   1.000  H
  C1367    1.0000 0.85470  0.55960  0.32290  Biso   1.000  C
  C1368    1.0000 0.83420  0.56780  0.36040  Biso   1.000  C
  C1369    1.0000 0.79450  0.58900  0.36240  Biso   1.000  C
  H1296    1.0000 0.78540  0.59160  0.39310  Biso   1.000  H
  H1297    1.0000 0.77010  0.58050  0.34550  Biso   1.000  H
  H1298    1.0000 0.80270  0.60830  0.34990  Biso   1.000  H
  C1370    1.0000 0.85310  0.55850  0.40010  Biso   1.000  C
  H1299    1.0000 0.83920  0.56350  0.42710  Biso   1.000  H
  C1371    1.0000 0.89340  0.54150  0.40110  Biso   1.000  C
  C1372    1.0000 0.90480  0.53220  0.36470  Biso   1.000  C
  H1300    1.0000 0.92410  0.51560  0.36450  Biso   1.000  H
  C1373    1.0000 0.89210  0.54380  0.32280  Biso   1.000  C
  C1374    1.0000 0.91450  0.53420  0.27940  Biso   1.000  C
  H1301    1.0000 0.94120  0.52290  0.28610  Biso   1.000  H
  H1302    1.0000 0.92210  0.55180  0.26220  Biso   1.000  H
  H1303    1.0000 0.89430  0.52170  0.26250  Biso   1.000  H
  C1375    1.0000 0.91830  0.53320  0.43970  Biso   1.000  C
  H1304    1.0000 0.90510  0.54230  0.46580  Biso   1.000  H
  H1305    1.0000 0.94870  0.54010  0.43650  Biso   1.000  H
  H1306    1.0000 0.91810  0.51150  0.44290  Biso   1.000  H
  C1376    1.0000 0.86330  0.63000  0.19520  Biso   1.000  C
  C1377    1.0000 0.85560  0.63860  0.15510  Biso   1.000  C
  H1307    1.0000 0.83350  0.62800  0.13940  Biso   1.000  H
  C1378    1.0000 0.87620  0.66120  0.13310  Biso   1.000  C
  C1379    1.0000 0.91040  0.67650  0.15500  Biso   1.000  C
  C1380    1.0000 0.92160  0.66820  0.19780  Biso   1.000  C
  C1381    1.0000 0.89650  0.64590  0.21880  Biso   1.000  C
  H1308    1.0000 0.90180  0.64150  0.24890  Biso   1.000  H
  C1382    1.0000 0.95810  0.68140  0.22210  Biso   1.000  C
  C1383    1.0000 0.95790  0.71030  0.23550  Biso   1.000  C
  C1384    1.0000 0.99280  0.71960  0.26330  Biso   1.000  C
  H1309    1.0000 0.98920  0.73720  0.28030  Biso   1.000  H
  C1385    1.0000 0.03090  0.70450  0.26650  Biso   1.000  C
  C1386    1.0000 0.03070  0.67640  0.25400  Biso   1.000  C
  H1310    1.0000 0.05550  0.66450  0.26110  Biso   1.000  H
  C1387    1.0000 0.99660  0.66330  0.23100  Biso   1.000  C
  C1388    1.0000 0.00010  0.63260  0.21460  Biso   1.000  C
  H1311    1.0000 0.97300  0.62720  0.19920  Biso   1.000  H
  H1312    1.0000 0.00480  0.61910  0.23940  Biso   1.000  H
  H1313    1.0000 0.02500  0.63120  0.19420  Biso   1.000  H
  C1389    1.0000 0.91970  0.73120  0.23010  Biso   1.000  C
  H1314    1.0000 0.92740  0.75070  0.24220  Biso   1.000  H
  H1315    1.0000 0.89410  0.72320  0.24570  Biso   1.000  H
  H1316    1.0000 0.91270  0.73320  0.19870  Biso   1.000  H
  C1390    1.0000 0.07420  0.71830  0.28870  Biso   1.000  C
  H1317    1.0000 0.06890  0.73920  0.29600  Biso   1.000  H
  H1318    1.0000 0.09880  0.71690  0.26800  Biso   1.000  H
  H1319    1.0000 0.08130  0.70720  0.31550  Biso   1.000  H
  C1391    1.0000 0.85710  0.67180  0.08980  Biso   1.000  C
  C1392    1.0000 0.86670  0.65810  0.05000  Biso   1.000  C
  C1393    1.0000 0.84710  0.66810  0.01140  Biso   1.000  C
  H1320    1.0000 0.85370  0.65870  0.98420  Biso   1.000  H
  C1394    1.0000 0.81790  0.69180  0.01270  Biso   1.000  C
  C1395    1.0000 0.80830  0.70550  0.05250  Biso   1.000  C
  H1321    1.0000 0.78830  0.72180  0.05340  Biso   1.000  H
  C1396    1.0000 0.82790  0.69550  0.09100  Biso   1.000  C
  C1397    1.0000 0.89480  0.63150  0.05150  Biso   1.000  C
  H1322    1.0000 0.88810  0.61870  0.02630  Biso   1.000  H
  H1323    1.0000 0.92570  0.63750  0.05030  Biso   1.000  H
  H1324    1.0000 0.88930  0.62060  0.07890  Biso   1.000  H
  C1398    1.0000 0.81740  0.71240  0.13090  Biso   1.000  C
  H1325    1.0000 0.80580  0.69750  0.14840  Biso   1.000  H
  H1326    1.0000 0.79620  0.72880  0.12530  Biso   1.000  H
  H1327    1.0000 0.84370  0.72200  0.14540  Biso   1.000  H
  C1399    1.0000 0.79710  0.70090  0.96760  Biso   1.000  C
  H1328    1.0000 0.77710  0.71780  0.97210  Biso   1.000  H
  H1329    1.0000 0.78070  0.68410  0.95550  Biso   1.000  H
  H1330    1.0000 0.82040  0.70670  0.94710  Biso   1.000  H
  C1400    1.0000 0.95500  0.72030  0.12740  Biso   1.000  C
  Cu15     1.0000 0.24870  0.99988  0.36646  Biso   1.000  Cu
  N57      1.0000 0.01640  0.79700  0.18840  Biso   1.000  N
  N58      1.0000 0.16810  0.96030  0.34440  Biso   1.000  N
  N59      1.0000 0.27290  0.03880  0.28540  Biso   1.000  N
  N60      1.0000 0.43110  0.20070  0.13570  Biso   1.000  N
  C1401    1.0000 0.00760  0.77900  0.16540  Biso   1.000  C
  C1402    1.0000 0.03610  0.82110  0.21300  Biso   1.000  C
  C1403    1.0000 0.07870  0.83030  0.19910  Biso   1.000  C
  C1404    1.0000 0.09740  0.85300  0.22010  Biso   1.000  C
  H1331    1.0000 0.12580  0.85940  0.21100  Biso   1.000  H
  C1405    1.0000 0.07740  0.86760  0.25410  Biso   1.000  C
  C1406    1.0000 0.03470  0.85890  0.26670  Biso   1.000  C
  H1332    1.0000 0.02000  0.86990  0.28900  Biso   1.000  H
  C1407    1.0000 0.01410  0.83550  0.24800  Biso   1.000  C
  C1408    1.0000 0.97130  0.82420  0.26550  Biso   1.000  C
  C1409    1.0000 0.97340  0.80190  0.29960  Biso   1.000  C
  C1410    1.0000 0.93140  0.79280  0.31990  Biso   1.000  C
  H1333    1.0000 0.93140  0.77870  0.34310  Biso   1.000  H
  C1411    1.0000 0.89370  0.80420  0.30600  Biso   1.000  C
  C1412    1.0000 0.89160  0.82850  0.27530  Biso   1.000  C
  H1334    1.0000 0.86470  0.83760  0.26710  Biso   1.000  H
  C1413    1.0000 0.93430  0.83810  0.25750  Biso   1.000  C
  C1414    1.0000 0.92980  0.86550  0.22840  Biso   1.000  C
  H1335    1.0000 0.89890  0.87180  0.22760  Biso   1.000  H
  H1336    1.0000 0.93960  0.86070  0.19850  Biso   1.000  H
  H1337    1.0000 0.94780  0.88160  0.24020  Biso   1.000  H
  C1415    1.0000 0.01680  0.78930  0.31470  Biso   1.000  C
  H1338    1.0000 0.01170  0.77460  0.33790  Biso   1.000  H
  H1339    1.0000 0.03530  0.80530  0.32610  Biso   1.000  H
  H1340    1.0000 0.03160  0.77970  0.28980  Biso   1.000  H
  C1416    1.0000 0.84840  0.79410  0.32460  Biso   1.000  C
  H1341    1.0000 0.82490  0.80520  0.31000  Biso   1.000  H
  H1342    1.0000 0.84750  0.79790  0.35640  Biso   1.000  H
  H1343    1.0000 0.84450  0.77280  0.31920  Biso   1.000  H
  C1417    1.0000 0.10080  0.81550  0.16020  Biso   1.000  C
  C1418    1.0000 0.11040  0.83410  0.12240  Biso   1.000  C
  C1419    1.0000 0.13490  0.82190  0.08850  Biso   1.000  C
  H1344    1.0000 0.14420  0.83440  0.06510  Biso   1.000  H
  C1420    1.0000 0.14660  0.79110  0.08730  Biso   1.000  C
  C1421    1.0000 0.14050  0.77640  0.12440  Biso   1.000  C
  H1345    1.0000 0.15130  0.75670  0.12610  Biso   1.000  H
  C1422    1.0000 0.11870  0.78820  0.16170  Biso   1.000  C
  C1423    1.0000 0.11280  0.76800  0.20210  Biso   1.000  C
  H1346    1.0000 0.12810  0.74910  0.19720  Biso   1.000  H
  H1347    1.0000 0.08140  0.76420  0.20680  Biso   1.000  H
  H1348    1.0000 0.12510  0.77780  0.22810  Biso   1.000  H
  C1424    1.0000 0.16480  0.77790  0.04770  Biso   1.000  C
  H1349    1.0000 0.16630  0.79300  0.02450  Biso   1.000  H
  H1350    1.0000 0.14600  0.76150  0.03810  Biso   1.000  H
  H1351    1.0000 0.19440  0.77040  0.05390  Biso   1.000  H
  C1425    1.0000 0.09490  0.86610  0.11990  Biso   1.000  C
  H1352    1.0000 0.07820  0.87100  0.14650  Biso   1.000  H
  H1353    1.0000 0.07620  0.86870  0.09400  Biso   1.000  H
  H1354    1.0000 0.12040  0.87930  0.11760  Biso   1.000  H
  C1426    1.0000 0.09910  0.89300  0.27760  Biso   1.000  C
  C1427    1.0000 0.13760  0.90570  0.26010  Biso   1.000  C
  H1355    1.0000 0.14820  0.89920  0.23240  Biso   1.000  H
  C1428    1.0000 0.15990  0.92730  0.28300  Biso   1.000  C
  C1429    1.0000 0.14350  0.93840  0.32210  Biso   1.000  C
  C1430    1.0000 0.10460  0.92690  0.34080  Biso   1.000  C
  C1431    1.0000 0.08470  0.90400  0.31820  Biso   1.000  C
  C1432    1.0000 0.08760  0.93680  0.38420  Biso   1.000  C
  C1433    1.0000 0.10860  0.92890  0.42130  Biso   1.000  C
  C1434    1.0000 0.09310  0.93610  0.46320  Biso   1.000  C
  H1356    1.0000 0.10960  0.93070  0.48850  Biso   1.000  H
  C1435    1.0000 0.05660  0.95000  0.46720  Biso   1.000  C
  C1436    1.0000 0.03320  0.95810  0.42970  Biso   1.000  C
  H1357    1.0000 0.00690  0.96920  0.43350  Biso   1.000  H
  C1437    1.0000 0.04650  0.95060  0.38520  Biso   1.000  C
  C1438    1.0000 0.01980  0.95740  0.34780  Biso   1.000  C
  H1358    1.0000 0.99260  0.96710  0.35750  Biso   1.000  H
  H1359    1.0000 0.01270  0.93910  0.33200  Biso   1.000  H
  H1360    1.0000 0.03590  0.97090  0.32820  Biso   1.000  H
  C1439    1.0000 0.15250  0.91020  0.41910  Biso   1.000  C
  H1361    1.0000 0.16320  0.90650  0.44900  Biso   1.000  H
  H1362    1.0000 0.17470  0.92140  0.40260  Biso   1.000  H
  H1363    1.0000 0.14680  0.89120  0.40430  Biso   1.000  H
  C1440    1.0000 0.03960  0.96000  0.51410  Biso   1.000  C
  H1364    1.0000 0.01140  0.97030  0.51100  Biso   1.000  H
  H1365    1.0000 0.06110  0.97350  0.52750  Biso   1.000  H
  H1366    1.0000 0.03590  0.94250  0.53290  Biso   1.000  H
  C1441    1.0000 0.20000  0.96110  0.23070  Biso   1.000  C
  C1442    1.0000 0.23880  0.97330  0.21460  Biso   1.000  C
  H1367    1.0000 0.23780  0.98760  0.19160  Biso   1.000  H
  C1443    1.0000 0.27890  0.96470  0.23220  Biso   1.000  C
  C1444    1.0000 0.28040  0.94380  0.26580  Biso   1.000  C
  H1368    1.0000 0.30780  0.93780  0.27790  Biso   1.000  H
  C1445    1.0000 0.24160  0.93150  0.28190  Biso   1.000  C
  C1446    1.0000 0.20150  0.94020  0.26440  Biso   1.000  C
  C1447    1.0000 0.15580  0.97070  0.20890  Biso   1.000  C
  H1369    1.0000 0.13130  0.96050  0.22340  Biso   1.000  H
  H1370    1.0000 0.15620  0.96550  0.17760  Biso   1.000  H
  H1371    1.0000 0.15200  0.99230  0.21210  Biso   1.000  H
  C1448    1.0000 0.32100  0.97890  0.21150  Biso   1.000  C
  H1372    1.0000 0.31240  0.99300  0.18840  Biso   1.000  H
  H1373    1.0000 0.33950  0.96330  0.19870  Biso   1.000  H
  H1374    1.0000 0.33760  0.98940  0.23440  Biso   1.000  H
  C1449    1.0000 0.24270  0.91040  0.31910  Biso   1.000  C
  H1375    1.0000 0.21260  0.90400  0.32610  Biso   1.000  H
  H1376    1.0000 0.25570  0.92010  0.34490  Biso   1.000  H
  H1377    1.0000 0.26030  0.89300  0.31100  Biso   1.000  H
  C1450    1.0000 0.19550  0.97620  0.35580  Biso   1.000  C
  C1451    1.0000 0.26200  0.02260  0.31350  Biso   1.000  C
  C1452    1.0000 0.29430  0.06170  0.26200  Biso   1.000  C
  C1453    1.0000 0.33500  0.07110  0.28020  Biso   1.000  C
  C1454    1.0000 0.35620  0.09320  0.25690  Biso   1.000  C
  H1378    1.0000 0.38360  0.10010  0.26780  Biso   1.000  H
  C1455    1.0000 0.34020  0.10590  0.21870  Biso   1.000  C
  C1456    1.0000 0.30010  0.09510  0.20110  Biso   1.000  C
  H1379    1.0000 0.28830  0.10320  0.17480  Biso   1.000  H
  C1457    1.0000 0.27840  0.07250  0.22290  Biso   1.000  C
  C1458    1.0000 0.23490  0.06200  0.20410  Biso   1.000  C
  C1459    1.0000 0.23080  0.04810  0.16510  Biso   1.000  C
  C1460    1.0000 0.18960  0.03920  0.14900  Biso   1.000  C
  H1380    1.0000 0.18780  0.02740  0.12310  Biso   1.000  H
  C1461    1.0000 0.15180  0.04750  0.17050  Biso   1.000  C
  C1462    1.0000 0.15520  0.06370  0.20840  Biso   1.000  C
  H1381    1.0000 0.12900  0.06950  0.22310  Biso   1.000  H
  C1463    1.0000 0.19410  0.07170  0.22590  Biso   1.000  C
  C1464    1.0000 0.19610  0.09150  0.26430  Biso   1.000  C
  H1382    1.0000 0.22690  0.09490  0.27240  Biso   1.000  H
  H1383    1.0000 0.18060  0.08230  0.28900  Biso   1.000  H
  H1384    1.0000 0.18220  0.11050  0.25700  Biso   1.000  H
  C1465    1.0000 0.27240  0.04000  0.14020  Biso   1.000  C
  H1385    1.0000 0.26450  0.03010  0.11260  Biso   1.000  H
  H1386    1.0000 0.29030  0.02660  0.15810  Biso   1.000  H
  H1387    1.0000 0.28910  0.05810  0.13370  Biso   1.000  H
  C1466    1.0000 0.11270  0.03860  0.14260  Biso   1.000  C
  H1388    1.0000 0.12290  0.02690  0.11740  Biso   1.000  H
  H1389    1.0000 0.09770  0.05650  0.13200  Biso   1.000  H
  H1390    1.0000 0.09230  0.02680  0.16030  Biso   1.000  H
  C1467    1.0000 0.35470  0.05960  0.32290  Biso   1.000  C
  C1468    1.0000 0.33420  0.06780  0.36040  Biso   1.000  C
  C1469    1.0000 0.29450  0.08900  0.36240  Biso   1.000  C
  H1391    1.0000 0.28540  0.09160  0.39310  Biso   1.000  H
  H1392    1.0000 0.27010  0.08050  0.34550  Biso   1.000  H
  H1393    1.0000 0.30270  0.10830  0.34990  Biso   1.000  H
  C1470    1.0000 0.35310  0.05850  0.40010  Biso   1.000  C
  H1394    1.0000 0.33920  0.06350  0.42710  Biso   1.000  H
  C1471    1.0000 0.39340  0.04150  0.40110  Biso   1.000  C
  C1472    1.0000 0.40480  0.03220  0.36470  Biso   1.000  C
  H1395    1.0000 0.42410  0.01560  0.36450  Biso   1.000  H
  C1473    1.0000 0.39210  0.04380  0.32280  Biso   1.000  C
  C1474    1.0000 0.41450  0.03420  0.27940  Biso   1.000  C
  H1396    1.0000 0.44120  0.02290  0.28610  Biso   1.000  H
  H1397    1.0000 0.42210  0.05180  0.26220  Biso   1.000  H
  H1398    1.0000 0.39430  0.02170  0.26250  Biso   1.000  H
  C1475    1.0000 0.41830  0.03320  0.43970  Biso   1.000  C
  H1399    1.0000 0.40510  0.04230  0.46580  Biso   1.000  H
  H1400    1.0000 0.44870  0.04010  0.43650  Biso   1.000  H
  H1401    1.0000 0.41810  0.01150  0.44290  Biso   1.000  H
  C1476    1.0000 0.36330  0.13000  0.19520  Biso   1.000  C
  C1477    1.0000 0.35560  0.13860  0.15510  Biso   1.000  C
  H1402    1.0000 0.33350  0.12800  0.13940  Biso   1.000  H
  C1478    1.0000 0.37620  0.16120  0.13310  Biso   1.000  C
  C1479    1.0000 0.41040  0.17650  0.15500  Biso   1.000  C
  C1480    1.0000 0.42160  0.16820  0.19780  Biso   1.000  C
  C1481    1.0000 0.39650  0.14590  0.21880  Biso   1.000  C
  H1403    1.0000 0.40180  0.14150  0.24890  Biso   1.000  H
  C1482    1.0000 0.45810  0.18140  0.22210  Biso   1.000  C
  C1483    1.0000 0.45790  0.21030  0.23550  Biso   1.000  C
  C1484    1.0000 0.49280  0.21960  0.26330  Biso   1.000  C
  H1404    1.0000 0.48920  0.23720  0.28030  Biso   1.000  H
  C1485    1.0000 0.53090  0.20450  0.26650  Biso   1.000  C
  C1486    1.0000 0.53070  0.17640  0.25400  Biso   1.000  C
  H1405    1.0000 0.55550  0.16450  0.26110  Biso   1.000  H
  C1487    1.0000 0.49660  0.16330  0.23100  Biso   1.000  C
  C1488    1.0000 0.50010  0.13260  0.21460  Biso   1.000  C
  H1406    1.0000 0.47300  0.12720  0.19920  Biso   1.000  H
  H1407    1.0000 0.50480  0.11910  0.23940  Biso   1.000  H
  H1408    1.0000 0.52500  0.13120  0.19420  Biso   1.000  H
  C1489    1.0000 0.41970  0.23120  0.23010  Biso   1.000  C
  H1409    1.0000 0.42740  0.25070  0.24220  Biso   1.000  H
  H1410    1.0000 0.39410  0.22320  0.24570  Biso   1.000  H
  H1411    1.0000 0.41270  0.23320  0.19870  Biso   1.000  H
  C1490    1.0000 0.57420  0.21830  0.28870  Biso   1.000  C
  H1412    1.0000 0.56890  0.23920  0.29600  Biso   1.000  H
  H1413    1.0000 0.59880  0.21690  0.26800  Biso   1.000  H
  H1414    1.0000 0.58130  0.20720  0.31550  Biso   1.000  H
  C1491    1.0000 0.35710  0.17180  0.08980  Biso   1.000  C
  C1492    1.0000 0.36670  0.15810  0.05000  Biso   1.000  C
  C1493    1.0000 0.34710  0.16810  0.01140  Biso   1.000  C
  H1415    1.0000 0.35370  0.15870  0.98420  Biso   1.000  H
  C1494    1.0000 0.31790  0.19180  0.01270  Biso   1.000  C
  C1495    1.0000 0.30830  0.20550  0.05250  Biso   1.000  C
  H1416    1.0000 0.28830  0.22180  0.05340  Biso   1.000  H
  C1496    1.0000 0.32790  0.19550  0.09100  Biso   1.000  C
  C1497    1.0000 0.39480  0.13150  0.05150  Biso   1.000  C
  H1417    1.0000 0.38810  0.11870  0.02630  Biso   1.000  H
  H1418    1.0000 0.42570  0.13750  0.05030  Biso   1.000  H
  H1419    1.0000 0.38930  0.12060  0.07890  Biso   1.000  H
  C1498    1.0000 0.31740  0.21240  0.13090  Biso   1.000  C
  H1420    1.0000 0.30580  0.19750  0.14840  Biso   1.000  H
  H1421    1.0000 0.29620  0.22880  0.12530  Biso   1.000  H
  H1422    1.0000 0.34370  0.22200  0.14540  Biso   1.000  H
  C1499    1.0000 0.29710  0.20090  0.96760  Biso   1.000  C
  H1423    1.0000 0.27710  0.21780  0.97210  Biso   1.000  H
  H1424    1.0000 0.28070  0.18410  0.95550  Biso   1.000  H
  H1425    1.0000 0.32040  0.20670  0.94710  Biso   1.000  H
  C1500    1.0000 0.45500  0.22030  0.12740  Biso   1.000  C
  Cu16     1.0000 0.24870  0.49988  0.86646  Biso   1.000  Cu
  N61      1.0000 0.01640  0.29700  0.68840  Biso   1.000  N
  N62      1.0000 0.16810  0.46030  0.84440  Biso   1.000  N
  N63      1.0000 0.27290  0.53880  0.78540  Biso   1.000  N
  N64      1.0000 0.43110  0.70070  0.63570  Biso   1.000  N
  C1501    1.0000 0.00760  0.27900  0.66540  Biso   1.000  C
  C1502    1.0000 0.03610  0.32110  0.71300  Biso   1.000  C
  C1503    1.0000 0.07870  0.33030  0.69910  Biso   1.000  C
  C1504    1.0000 0.09740  0.35300  0.72010  Biso   1.000  C
  H1426    1.0000 0.12580  0.35940  0.71100  Biso   1.000  H
  C1505    1.0000 0.07740  0.36760  0.75410  Biso   1.000  C
  C1506    1.0000 0.03470  0.35890  0.76670  Biso   1.000  C
  H1427    1.0000 0.02000  0.36990  0.78900  Biso   1.000  H
  C1507    1.0000 0.01410  0.33550  0.74800  Biso   1.000  C
  C1508    1.0000 0.97130  0.32420  0.76550  Biso   1.000  C
  C1509    1.0000 0.97340  0.30190  0.79960  Biso   1.000  C
  C1510    1.0000 0.93140  0.29280  0.81990  Biso   1.000  C
  H1428    1.0000 0.93140  0.27870  0.84310  Biso   1.000  H
  C1511    1.0000 0.89370  0.30420  0.80600  Biso   1.000  C
  C1512    1.0000 0.89160  0.32850  0.77530  Biso   1.000  C
  H1429    1.0000 0.86470  0.33760  0.76710  Biso   1.000  H
  C1513    1.0000 0.93430  0.33810  0.75750  Biso   1.000  C
  C1514    1.0000 0.92980  0.36550  0.72840  Biso   1.000  C
  H1430    1.0000 0.89890  0.37180  0.72760  Biso   1.000  H
  H1431    1.0000 0.93960  0.36070  0.69850  Biso   1.000  H
  H1432    1.0000 0.94780  0.38160  0.74020  Biso   1.000  H
  C1515    1.0000 0.01680  0.28930  0.81470  Biso   1.000  C
  H1433    1.0000 0.01170  0.27460  0.83790  Biso   1.000  H
  H1434    1.0000 0.03530  0.30530  0.82610  Biso   1.000  H
  H1435    1.0000 0.03160  0.27970  0.78980  Biso   1.000  H
  C1516    1.0000 0.84840  0.29410  0.82460  Biso   1.000  C
  H1436    1.0000 0.82490  0.30520  0.81000  Biso   1.000  H
  H1437    1.0000 0.84750  0.29790  0.85640  Biso   1.000  H
  H1438    1.0000 0.84450  0.27280  0.81920  Biso   1.000  H
  C1517    1.0000 0.10080  0.31550  0.66020  Biso   1.000  C
  C1518    1.0000 0.11040  0.33410  0.62240  Biso   1.000  C
  C1519    1.0000 0.13490  0.32190  0.58850  Biso   1.000  C
  H1439    1.0000 0.14420  0.33440  0.56510  Biso   1.000  H
  C1520    1.0000 0.14660  0.29110  0.58730  Biso   1.000  C
  C1521    1.0000 0.14050  0.27640  0.62440  Biso   1.000  C
  H1440    1.0000 0.15130  0.25670  0.62610  Biso   1.000  H
  C1522    1.0000 0.11870  0.28820  0.66170  Biso   1.000  C
  C1523    1.0000 0.11280  0.26800  0.70210  Biso   1.000  C
  H1441    1.0000 0.12810  0.24910  0.69720  Biso   1.000  H
  H1442    1.0000 0.08140  0.26420  0.70680  Biso   1.000  H
  H1443    1.0000 0.12510  0.27780  0.72810  Biso   1.000  H
  C1524    1.0000 0.16480  0.27790  0.54770  Biso   1.000  C
  H1444    1.0000 0.16630  0.29300  0.52450  Biso   1.000  H
  H1445    1.0000 0.14600  0.26150  0.53810  Biso   1.000  H
  H1446    1.0000 0.19440  0.27040  0.55390  Biso   1.000  H
  C1525    1.0000 0.09490  0.36610  0.61990  Biso   1.000  C
  H1447    1.0000 0.07820  0.37100  0.64650  Biso   1.000  H
  H1448    1.0000 0.07620  0.36870  0.59400  Biso   1.000  H
  H1449    1.0000 0.12040  0.37930  0.61760  Biso   1.000  H
  C1526    1.0000 0.09910  0.39300  0.77760  Biso   1.000  C
  C1527    1.0000 0.13760  0.40570  0.76010  Biso   1.000  C
  H1450    1.0000 0.14820  0.39920  0.73240  Biso   1.000  H
  C1528    1.0000 0.15990  0.42730  0.78300  Biso   1.000  C
  C1529    1.0000 0.14350  0.43840  0.82210  Biso   1.000  C
  C1530    1.0000 0.10460  0.42690  0.84080  Biso   1.000  C
  C1531    1.0000 0.08470  0.40400  0.81820  Biso   1.000  C
  C1532    1.0000 0.08760  0.43680  0.88420  Biso   1.000  C
  C1533    1.0000 0.10860  0.42890  0.92130  Biso   1.000  C
  C1534    1.0000 0.09310  0.43610  0.96320  Biso   1.000  C
  H1451    1.0000 0.10960  0.43070  0.98850  Biso   1.000  H
  C1535    1.0000 0.05660  0.45000  0.96720  Biso   1.000  C
  C1536    1.0000 0.03320  0.45810  0.92970  Biso   1.000  C
  H1452    1.0000 0.00690  0.46920  0.93350  Biso   1.000  H
  C1537    1.0000 0.04650  0.45060  0.88520  Biso   1.000  C
  C1538    1.0000 0.01980  0.45740  0.84780  Biso   1.000  C
  H1453    1.0000 0.99260  0.46710  0.85750  Biso   1.000  H
  H1454    1.0000 0.01270  0.43910  0.83200  Biso   1.000  H
  H1455    1.0000 0.03590  0.47090  0.82820  Biso   1.000  H
  C1539    1.0000 0.15250  0.41020  0.91910  Biso   1.000  C
  H1456    1.0000 0.16320  0.40650  0.94900  Biso   1.000  H
  H1457    1.0000 0.17470  0.42140  0.90260  Biso   1.000  H
  H1458    1.0000 0.14680  0.39120  0.90430  Biso   1.000  H
  C1540    1.0000 0.03960  0.46000  0.01410  Biso   1.000  C
  H1459    1.0000 0.01140  0.47030  0.01100  Biso   1.000  H
  H1460    1.0000 0.06110  0.47350  0.02750  Biso   1.000  H
  H1461    1.0000 0.03590  0.44250  0.03290  Biso   1.000  H
  C1541    1.0000 0.20000  0.46110  0.73070  Biso   1.000  C
  C1542    1.0000 0.23880  0.47330  0.71460  Biso   1.000  C
  H1462    1.0000 0.23780  0.48760  0.69160  Biso   1.000  H
  C1543    1.0000 0.27890  0.46470  0.73220  Biso   1.000  C
  C1544    1.0000 0.28040  0.44380  0.76580  Biso   1.000  C
  H1463    1.0000 0.30780  0.43780  0.77790  Biso   1.000  H
  C1545    1.0000 0.24160  0.43150  0.78190  Biso   1.000  C
  C1546    1.0000 0.20150  0.44020  0.76440  Biso   1.000  C
  C1547    1.0000 0.15580  0.47070  0.70890  Biso   1.000  C
  H1464    1.0000 0.13130  0.46050  0.72340  Biso   1.000  H
  H1465    1.0000 0.15620  0.46550  0.67760  Biso   1.000  H
  H1466    1.0000 0.15200  0.49230  0.71210  Biso   1.000  H
  C1548    1.0000 0.32100  0.47890  0.71150  Biso   1.000  C
  H1467    1.0000 0.31240  0.49300  0.68840  Biso   1.000  H
  H1468    1.0000 0.33950  0.46330  0.69870  Biso   1.000  H
  H1469    1.0000 0.33760  0.48940  0.73440  Biso   1.000  H
  C1549    1.0000 0.24270  0.41040  0.81910  Biso   1.000  C
  H1470    1.0000 0.21260  0.40400  0.82610  Biso   1.000  H
  H1471    1.0000 0.25570  0.42010  0.84490  Biso   1.000  H
  H1472    1.0000 0.26030  0.39300  0.81100  Biso   1.000  H
  C1550    1.0000 0.19550  0.47620  0.85580  Biso   1.000  C
  C1551    1.0000 0.26200  0.52260  0.81350  Biso   1.000  C
  C1552    1.0000 0.29430  0.56170  0.76200  Biso   1.000  C
  C1553    1.0000 0.33500  0.57110  0.78020  Biso   1.000  C
  C1554    1.0000 0.35620  0.59320  0.75690  Biso   1.000  C
  H1473    1.0000 0.38360  0.60010  0.76780  Biso   1.000  H
  C1555    1.0000 0.34020  0.60590  0.71870  Biso   1.000  C
  C1556    1.0000 0.30010  0.59510  0.70110  Biso   1.000  C
  H1474    1.0000 0.28830  0.60320  0.67480  Biso   1.000  H
  C1557    1.0000 0.27840  0.57250  0.72290  Biso   1.000  C
  C1558    1.0000 0.23490  0.56200  0.70410  Biso   1.000  C
  C1559    1.0000 0.23080  0.54810  0.66510  Biso   1.000  C
  C1560    1.0000 0.18960  0.53920  0.64900  Biso   1.000  C
  H1475    1.0000 0.18780  0.52740  0.62310  Biso   1.000  H
  C1561    1.0000 0.15180  0.54750  0.67050  Biso   1.000  C
  C1562    1.0000 0.15520  0.56370  0.70840  Biso   1.000  C
  H1476    1.0000 0.12900  0.56950  0.72310  Biso   1.000  H
  C1563    1.0000 0.19410  0.57170  0.72590  Biso   1.000  C
  C1564    1.0000 0.19610  0.59150  0.76430  Biso   1.000  C
  H1477    1.0000 0.22690  0.59490  0.77240  Biso   1.000  H
  H1478    1.0000 0.18060  0.58230  0.78900  Biso   1.000  H
  H1479    1.0000 0.18220  0.61050  0.75700  Biso   1.000  H
  C1565    1.0000 0.27240  0.54000  0.64020  Biso   1.000  C
  H1480    1.0000 0.26450  0.53010  0.61260  Biso   1.000  H
  H1481    1.0000 0.29030  0.52660  0.65810  Biso   1.000  H
  H1482    1.0000 0.28910  0.55810  0.63370  Biso   1.000  H
  C1566    1.0000 0.11270  0.53860  0.64260  Biso   1.000  C
  H1483    1.0000 0.12290  0.52690  0.61740  Biso   1.000  H
  H1484    1.0000 0.09770  0.55650  0.63200  Biso   1.000  H
  H1485    1.0000 0.09230  0.52680  0.66030  Biso   1.000  H
  C1567    1.0000 0.35470  0.55960  0.82290  Biso   1.000  C
  C1568    1.0000 0.33420  0.56780  0.86040  Biso   1.000  C
  C1569    1.0000 0.29450  0.58900  0.86240  Biso   1.000  C
  H1486    1.0000 0.28540  0.59160  0.89310  Biso   1.000  H
  H1487    1.0000 0.27010  0.58050  0.84550  Biso   1.000  H
  H1488    1.0000 0.30270  0.60830  0.84990  Biso   1.000  H
  C1570    1.0000 0.35310  0.55850  0.90010  Biso   1.000  C
  H1489    1.0000 0.33920  0.56350  0.92710  Biso   1.000  H
  C1571    1.0000 0.39340  0.54150  0.90110  Biso   1.000  C
  C1572    1.0000 0.40480  0.53220  0.86470  Biso   1.000  C
  H1490    1.0000 0.42410  0.51560  0.86450  Biso   1.000  H
  C1573    1.0000 0.39210  0.54380  0.82280  Biso   1.000  C
  C1574    1.0000 0.41450  0.53420  0.77940  Biso   1.000  C
  H1491    1.0000 0.44120  0.52290  0.78610  Biso   1.000  H
  H1492    1.0000 0.42210  0.55180  0.76220  Biso   1.000  H
  H1493    1.0000 0.39430  0.52170  0.76250  Biso   1.000  H
  C1575    1.0000 0.41830  0.53320  0.93970  Biso   1.000  C
  H1494    1.0000 0.40510  0.54230  0.96580  Biso   1.000  H
  H1495    1.0000 0.44870  0.54010  0.93650  Biso   1.000  H
  H1496    1.0000 0.41810  0.51150  0.94290  Biso   1.000  H
  C1576    1.0000 0.36330  0.63000  0.69520  Biso   1.000  C
  C1577    1.0000 0.35560  0.63860  0.65510  Biso   1.000  C
  H1497    1.0000 0.33350  0.62800  0.63940  Biso   1.000  H
  C1578    1.0000 0.37620  0.66120  0.63310  Biso   1.000  C
  C1579    1.0000 0.41040  0.67650  0.65500  Biso   1.000  C
  C1580    1.0000 0.42160  0.66820  0.69780  Biso   1.000  C
  C1581    1.0000 0.39650  0.64590  0.71880  Biso   1.000  C
  H1498    1.0000 0.40180  0.64150  0.74890  Biso   1.000  H
  C1582    1.0000 0.45810  0.68140  0.72210  Biso   1.000  C
  C1583    1.0000 0.45790  0.71030  0.73550  Biso   1.000  C
  C1584    1.0000 0.49280  0.71960  0.76330  Biso   1.000  C
  H1499    1.0000 0.48920  0.73720  0.78030  Biso   1.000  H
  C1585    1.0000 0.53090  0.70450  0.76650  Biso   1.000  C
  C1586    1.0000 0.53070  0.67640  0.75400  Biso   1.000  C
  H1500    1.0000 0.55550  0.66450  0.76110  Biso   1.000  H
  C1587    1.0000 0.49660  0.66330  0.73100  Biso   1.000  C
  C1588    1.0000 0.50010  0.63260  0.71460  Biso   1.000  C
  H1501    1.0000 0.47300  0.62720  0.69920  Biso   1.000  H
  H1502    1.0000 0.50480  0.61910  0.73940  Biso   1.000  H
  H1503    1.0000 0.52500  0.63120  0.69420  Biso   1.000  H
  C1589    1.0000 0.41970  0.73120  0.73010  Biso   1.000  C
  H1504    1.0000 0.42740  0.75070  0.74220  Biso   1.000  H
  H1505    1.0000 0.39410  0.72320  0.74570  Biso   1.000  H
  H1506    1.0000 0.41270  0.73320  0.69870  Biso   1.000  H
  C1590    1.0000 0.57420  0.71830  0.78870  Biso   1.000  C
  H1507    1.0000 0.56890  0.73920  0.79600  Biso   1.000  H
  H1508    1.0000 0.59880  0.71690  0.76800  Biso   1.000  H
  H1509    1.0000 0.58130  0.70720  0.81550  Biso   1.000  H
  C1591    1.0000 0.35710  0.67180  0.58980  Biso   1.000  C
  C1592    1.0000 0.36670  0.65810  0.55000  Biso   1.000  C
  C1593    1.0000 0.34710  0.66810  0.51140  Biso   1.000  C
  H1510    1.0000 0.35370  0.65870  0.48420  Biso   1.000  H
  C1594    1.0000 0.31790  0.69180  0.51270  Biso   1.000  C
  C1595    1.0000 0.30830  0.70550  0.55250  Biso   1.000  C
  H1511    1.0000 0.28830  0.72180  0.55340  Biso   1.000  H
  C1596    1.0000 0.32790  0.69550  0.59100  Biso   1.000  C
  C1597    1.0000 0.39480  0.63150  0.55150  Biso   1.000  C
  H1512    1.0000 0.38810  0.61870  0.52630  Biso   1.000  H
  H1513    1.0000 0.42570  0.63750  0.55030  Biso   1.000  H
  H1514    1.0000 0.38930  0.62060  0.57890  Biso   1.000  H
  C1598    1.0000 0.31740  0.71240  0.63090  Biso   1.000  C
  H1515    1.0000 0.30580  0.69750  0.64840  Biso   1.000  H
  H1516    1.0000 0.29620  0.72880  0.62530  Biso   1.000  H
  H1517    1.0000 0.34370  0.72200  0.64540  Biso   1.000  H
  C1599    1.0000 0.29710  0.70090  0.46760  Biso   1.000  C
  H1518    1.0000 0.27710  0.71780  0.47210  Biso   1.000  H
  H1519    1.0000 0.28070  0.68410  0.45550  Biso   1.000  H
  H1520    1.0000 0.32040  0.70670  0.44710  Biso   1.000  H
  C1600    1.0000 0.45500  0.72030  0.62740  Biso   1.000  C
