data_image0
_cell_length_a       26.733
_cell_length_b       26.733
_cell_length_c       65.261
_cell_angle_alpha    90
_cell_angle_beta     90
_cell_angle_gamma    120

_symmetry_space_group_name_H-M    "P 1"
_symmetry_int_tables_number       1

loop_
  _symmetry_equiv_pos_as_xyz
  'x, y, z'

loop_
  _atom_site_label
  _atom_site_occupancy
  _atom_site_fract_x
  _atom_site_fract_y
  _atom_site_fract_z
  _atom_site_thermal_displace_type
  _atom_site_B_iso_or_equiv
  _atom_site_type_symbol
  I1       1.0000 0.44286  0.69839  0.98008  Biso   1.000  I
  Cu1      1.0000 0.35326  0.62147  0.00154  Biso   1.000  Cu
  N1       1.0000 0.37630  0.56820  0.01606  Biso   1.000  N
  C1       1.0000 0.43060  0.58750  0.02260  Biso   1.000  C
  C2       1.0000 0.33600  0.51740  0.02251  Biso   1.000  C
  C3       1.0000 0.28370  0.66810  0.92878  Biso   1.000  C
  H1       1.0000 0.46060  0.62380  0.01780  Biso   1.000  H
  C4       1.0000 0.44400  0.55710  0.03578  Biso   1.000  C
  C5       1.0000 0.34620  0.48430  0.03594  Biso   1.000  C
  H2       1.0000 0.29780  0.50280  0.01760  Biso   1.000  H
  H3       1.0000 0.28540  0.70290  0.93350  Biso   1.000  H
  C6       1.0000 0.40190  0.50440  0.04298  Biso   1.000  C
  C7       1.0000 0.50550  0.58120  0.04311  Biso   1.000  C
  H4       1.0000 0.31550  0.44790  0.04040  Biso   1.000  H
  H5       1.0000 0.41060  0.48270  0.05240  Biso   1.000  H
  O1       1.0000 0.54350  0.62390  0.03275  Biso   1.000  O
  O2       1.0000 0.51509  0.55840  0.05798  Biso   1.000  O
  Ti1      1.0000 0.63288  0.66784  0.03633  Biso   1.000  Ti
  Ti2      1.0000 0.59647  0.57953  0.07273  Biso   1.000  Ti
  O3       1.0000 0.62480  0.59280  0.04322  Biso   1.000  O
  O4       1.0000 0.63770  0.67030  0.00952  Biso   1.000  O
  O5       1.0000 0.62920  0.73800  0.04296  Biso   1.000  O
  O6       1.0000 0.61285  0.66011  0.06590  Biso   1.000  O
  O7       1.0000 0.71600  0.70680  0.04003  Biso   1.000  O
  O8       1.0000 0.56274  0.58623  0.09843  Biso   1.000  O
  O9       1.0000 0.56570  0.50304  0.07419  Biso   1.000  O
  C8       1.0000 0.63700  0.55420  0.03106  Biso   1.000  C
  C9       1.0000 0.62880  0.66320  0.98732  Biso   1.000  C
  Ti3      1.0000 0.60293  0.72219  0.07280  Biso   1.000  Ti
  C10      1.0000 0.64120  0.78690  0.03063  Biso   1.000  C
  P1       1.0000 0.56756  0.63507  0.11170  Biso   1.000  P
  C11      1.0000 0.51830  0.44900  0.07690  Biso   1.000  C
  C12      1.0000 0.69370  0.57090  0.02970  Biso   1.000  C
  C13      1.0000 0.58310  0.50900  0.02150  Biso   1.000  C
  C14      1.0000 0.68770  0.69440  0.97820  Biso   1.000  C
  C15      1.0000 0.57910  0.63840  0.97970  Biso   1.000  C
  O10      1.0000 0.57000  0.68418  0.09906  Biso   1.000  O
  O11      1.0000 0.54570  0.73560  0.06864  Biso   1.000  O
  C16      1.0000 0.69470  0.83260  0.03120  Biso   1.000  C
  C17      1.0000 0.59140  0.77290  0.01730  Biso   1.000  C
  C18      1.0000 0.50340  0.60420  0.12641  Biso   1.000  C
  C19      1.0000 0.53060  0.40560  0.06970  Biso   1.000  C
  C20      1.0000 0.49200  0.43670  0.09600  Biso   1.000  C
  C21      1.0000 0.48760  0.72390  0.07100  Biso   1.000  C
  C22      1.0000 0.50330  0.61360  0.14580  Biso   1.000  C
  C23      1.0000 0.45290  0.56150  0.11820  Biso   1.000  C
  C24      1.0000 0.48680  0.76600  0.08500  Biso   1.000  C
  C25      1.0000 0.44740  0.66300  0.07590  Biso   1.000  C
  H6       1.0000 0.53930  0.63650  0.15250  Biso   1.000  H
  C26      1.0000 0.45230  0.59140  0.15740  Biso   1.000  C
  C27      1.0000 0.40010  0.53860  0.12860  Biso   1.000  C
  H7       1.0000 0.45370  0.54700  0.10500  Biso   1.000  H
  H8       1.0000 0.45360  0.60620  0.17080  Biso   1.000  H
  C28      1.0000 0.40750  0.55430  0.15080  Biso   1.000  C
  H9       1.0000 0.38130  0.49720  0.12770  Biso   1.000  H
  H10      1.0000 0.37570  0.53420  0.15990  Biso   1.000  H
  I2       1.0000 0.10952  0.03172  0.31341  Biso   1.000  I
  Cu2      1.0000 0.01993  0.95480  0.33487  Biso   1.000  Cu
  N2       1.0000 0.04297  0.90153  0.34939  Biso   1.000  N
  C29      1.0000 0.09727  0.92083  0.35593  Biso   1.000  C
  C30      1.0000 0.00267  0.85073  0.35584  Biso   1.000  C
  C31      1.0000 0.95037  0.00143  0.26211  Biso   1.000  C
  H11      1.0000 0.12727  0.95713  0.35113  Biso   1.000  H
  C32      1.0000 0.11067  0.89043  0.36911  Biso   1.000  C
  C33      1.0000 0.01287  0.81763  0.36927  Biso   1.000  C
  H12      1.0000 0.96447  0.83613  0.35093  Biso   1.000  H
  H13      1.0000 0.95207  0.03623  0.26683  Biso   1.000  H
  C34      1.0000 0.06857  0.83773  0.37631  Biso   1.000  C
  C35      1.0000 0.17217  0.91453  0.37644  Biso   1.000  C
  H14      1.0000 0.98217  0.78123  0.37373  Biso   1.000  H
  H15      1.0000 0.07727  0.81603  0.38573  Biso   1.000  H
  O12      1.0000 0.21017  0.95723  0.36608  Biso   1.000  O
  O13      1.0000 0.18176  0.89173  0.39131  Biso   1.000  O
  Ti4      1.0000 0.29955  0.00117  0.36967  Biso   1.000  Ti
  Ti5      1.0000 0.26314  0.91286  0.40606  Biso   1.000  Ti
  O14      1.0000 0.29147  0.92613  0.37655  Biso   1.000  O
  O15      1.0000 0.30437  0.00363  0.34285  Biso   1.000  O
  O16      1.0000 0.29587  0.07133  0.37629  Biso   1.000  O
  O17      1.0000 0.27952  0.99344  0.39923  Biso   1.000  O
  O18      1.0000 0.38267  0.04013  0.37336  Biso   1.000  O
  O19      1.0000 0.22941  0.91956  0.43176  Biso   1.000  O
  O20      1.0000 0.23237  0.83637  0.40752  Biso   1.000  O
  C36      1.0000 0.30367  0.88753  0.36439  Biso   1.000  C
  C37      1.0000 0.29547  0.99653  0.32065  Biso   1.000  C
  Ti6      1.0000 0.26960  0.05552  0.40614  Biso   1.000  Ti
  C38      1.0000 0.30787  0.12023  0.36396  Biso   1.000  C
  P2       1.0000 0.23423  0.96840  0.44503  Biso   1.000  P
  C39      1.0000 0.18497  0.78233  0.41023  Biso   1.000  C
  C40      1.0000 0.36037  0.90423  0.36303  Biso   1.000  C
  C41      1.0000 0.24977  0.84233  0.35483  Biso   1.000  C
  C42      1.0000 0.35437  0.02773  0.31153  Biso   1.000  C
  C43      1.0000 0.24577  0.97173  0.31303  Biso   1.000  C
  O21      1.0000 0.23667  0.01751  0.43239  Biso   1.000  O
  O22      1.0000 0.21237  0.06893  0.40197  Biso   1.000  O
  C44      1.0000 0.36137  0.16593  0.36453  Biso   1.000  C
  C45      1.0000 0.25807  0.10623  0.35063  Biso   1.000  C
  C46      1.0000 0.17007  0.93753  0.45974  Biso   1.000  C
  C47      1.0000 0.19727  0.73893  0.40303  Biso   1.000  C
  C48      1.0000 0.15867  0.77003  0.42933  Biso   1.000  C
  C49      1.0000 0.15427  0.05723  0.40433  Biso   1.000  C
  C50      1.0000 0.16997  0.94693  0.47913  Biso   1.000  C
  C51      1.0000 0.11957  0.89483  0.45153  Biso   1.000  C
  C52      1.0000 0.15347  0.09933  0.41833  Biso   1.000  C
  C53      1.0000 0.11407  0.99633  0.40923  Biso   1.000  C
  H16      1.0000 0.20597  0.96983  0.48583  Biso   1.000  H
  C54      1.0000 0.11897  0.92473  0.49073  Biso   1.000  C
  C55      1.0000 0.06677  0.87193  0.46193  Biso   1.000  C
  H17      1.0000 0.12037  0.88033  0.43833  Biso   1.000  H
  H18      1.0000 0.12027  0.93953  0.50413  Biso   1.000  H
  C56      1.0000 0.07417  0.88763  0.48413  Biso   1.000  C
  H19      1.0000 0.04797  0.83053  0.46103  Biso   1.000  H
  H20      1.0000 0.04237  0.86753  0.49323  Biso   1.000  H
  I3       1.0000 0.77619  0.36506  0.64674  Biso   1.000  I
  Cu3      1.0000 0.68659  0.28814  0.66820  Biso   1.000  Cu
  N3       1.0000 0.70963  0.23487  0.68273  Biso   1.000  N
  C57      1.0000 0.76393  0.25417  0.68927  Biso   1.000  C
  C58      1.0000 0.66933  0.18407  0.68918  Biso   1.000  C
  C59      1.0000 0.61703  0.33477  0.59545  Biso   1.000  C
  H21      1.0000 0.79393  0.29047  0.68447  Biso   1.000  H
  C60      1.0000 0.77733  0.22377  0.70245  Biso   1.000  C
  C61      1.0000 0.67953  0.15097  0.70261  Biso   1.000  C
  H22      1.0000 0.63113  0.16947  0.68427  Biso   1.000  H
  H23      1.0000 0.61873  0.36957  0.60017  Biso   1.000  H
  C62      1.0000 0.73523  0.17107  0.70965  Biso   1.000  C
  C63      1.0000 0.83883  0.24787  0.70978  Biso   1.000  C
  H24      1.0000 0.64883  0.11457  0.70707  Biso   1.000  H
  H25      1.0000 0.74393  0.14937  0.71907  Biso   1.000  H
  O23      1.0000 0.87683  0.29057  0.69942  Biso   1.000  O
  O24      1.0000 0.84842  0.22507  0.72465  Biso   1.000  O
  Ti7      1.0000 0.96621  0.33451  0.70300  Biso   1.000  Ti
  Ti8      1.0000 0.92980  0.24620  0.73940  Biso   1.000  Ti
  O25      1.0000 0.95813  0.25947  0.70989  Biso   1.000  O
  O26      1.0000 0.97103  0.33697  0.67619  Biso   1.000  O
  O27      1.0000 0.96253  0.40467  0.70963  Biso   1.000  O
  O28      1.0000 0.94618  0.32678  0.73257  Biso   1.000  O
  O29      1.0000 0.04933  0.37347  0.70670  Biso   1.000  O
  O30      1.0000 0.89607  0.25290  0.76510  Biso   1.000  O
  O31      1.0000 0.89903  0.16971  0.74086  Biso   1.000  O
  C64      1.0000 0.97033  0.22087  0.69773  Biso   1.000  C
  C65      1.0000 0.96213  0.32987  0.65399  Biso   1.000  C
  Ti9      1.0000 0.93626  0.38886  0.73947  Biso   1.000  Ti
  C66      1.0000 0.97453  0.45357  0.69730  Biso   1.000  C
  P3       1.0000 0.90089  0.30174  0.77837  Biso   1.000  P
  C67      1.0000 0.85163  0.11567  0.74357  Biso   1.000  C
  C68      1.0000 0.02703  0.23757  0.69637  Biso   1.000  C
  C69      1.0000 0.91643  0.17567  0.68817  Biso   1.000  C
  C70      1.0000 0.02103  0.36107  0.64487  Biso   1.000  C
  C71      1.0000 0.91243  0.30507  0.64637  Biso   1.000  C
  O32      1.0000 0.90333  0.35085  0.76573  Biso   1.000  O
  O33      1.0000 0.87903  0.40227  0.73531  Biso   1.000  O
  C72      1.0000 0.02803  0.49927  0.69787  Biso   1.000  C
  C73      1.0000 0.92473  0.43957  0.68397  Biso   1.000  C
  C74      1.0000 0.83673  0.27087  0.79308  Biso   1.000  C
  C75      1.0000 0.86393  0.07227  0.73637  Biso   1.000  C
  C76      1.0000 0.82533  0.10337  0.76267  Biso   1.000  C
  C77      1.0000 0.82093  0.39057  0.73767  Biso   1.000  C
  C78      1.0000 0.83663  0.28027  0.81247  Biso   1.000  C
  C79      1.0000 0.78623  0.22817  0.78487  Biso   1.000  C
  C80      1.0000 0.82013  0.43267  0.75167  Biso   1.000  C
  C81      1.0000 0.78073  0.32967  0.74257  Biso   1.000  C
  H26      1.0000 0.87263  0.30317  0.81917  Biso   1.000  H
  C82      1.0000 0.78563  0.25807  0.82407  Biso   1.000  C
  C83      1.0000 0.73343  0.20527  0.79527  Biso   1.000  C
  H27      1.0000 0.78703  0.21367  0.77167  Biso   1.000  H
  H28      1.0000 0.78693  0.27287  0.83747  Biso   1.000  H
  C84      1.0000 0.74083  0.22097  0.81747  Biso   1.000  C
  H29      1.0000 0.71463  0.16387  0.79437  Biso   1.000  H
  H30      1.0000 0.70903  0.20087  0.82657  Biso   1.000  H
  I4       1.0000 0.30161  0.74447  0.98008  Biso   1.000  I
  Cu4      1.0000 0.37853  0.73179  0.00154  Biso   1.000  Cu
  N4       1.0000 0.43180  0.80810  0.01606  Biso   1.000  N
  C85      1.0000 0.41250  0.84310  0.02260  Biso   1.000  C
  C86      1.0000 0.48260  0.81860  0.02251  Biso   1.000  C
  C87      1.0000 0.33190  0.61560  0.92878  Biso   1.000  C
  H31      1.0000 0.37620  0.83680  0.01780  Biso   1.000  H
  C88      1.0000 0.44290  0.88690  0.03578  Biso   1.000  C
  C89      1.0000 0.51570  0.86190  0.03594  Biso   1.000  C
  H32      1.0000 0.49720  0.79500  0.01760  Biso   1.000  H
  H33      1.0000 0.29710  0.58250  0.93350  Biso   1.000  H
  C90      1.0000 0.49560  0.89750  0.04298  Biso   1.000  C
  C91      1.0000 0.41880  0.92430  0.04311  Biso   1.000  C
  H34      1.0000 0.55210  0.86760  0.04040  Biso   1.000  H
  H35      1.0000 0.51730  0.92790  0.05240  Biso   1.000  H
  O34      1.0000 0.37610  0.91960  0.03275  Biso   1.000  O
  O35      1.0000 0.44160  0.95669  0.05798  Biso   1.000  O
  Ti10     1.0000 0.33216  0.96504  0.03633  Biso   1.000  Ti
  Ti11     1.0000 0.42047  0.01694  0.07273  Biso   1.000  Ti
  O36      1.0000 0.40720  0.03200  0.04322  Biso   1.000  O
  O37      1.0000 0.32970  0.96740  0.00952  Biso   1.000  O
  O38      1.0000 0.26200  0.89120  0.04296  Biso   1.000  O
  O39      1.0000 0.33989  0.95274  0.06590  Biso   1.000  O
  O40      1.0000 0.29320  0.00920  0.04003  Biso   1.000  O
  O41      1.0000 0.41377  0.97651  0.09843  Biso   1.000  O
  O42      1.0000 0.49696  0.06266  0.07419  Biso   1.000  O
  C92      1.0000 0.44580  0.08280  0.03106  Biso   1.000  C
  C93      1.0000 0.33680  0.96560  0.98732  Biso   1.000  C
  Ti12     1.0000 0.27781  0.88074  0.07280  Biso   1.000  Ti
  C94      1.0000 0.21310  0.85430  0.03063  Biso   1.000  C
  P4       1.0000 0.36493  0.93249  0.11170  Biso   1.000  P
  C95      1.0000 0.55100  0.06930  0.07690  Biso   1.000  C
  C96      1.0000 0.42910  0.12280  0.02970  Biso   1.000  C
  C97      1.0000 0.49100  0.07410  0.02150  Biso   1.000  C
  C98      1.0000 0.30560  0.99330  0.97820  Biso   1.000  C
  C99      1.0000 0.36160  0.94070  0.97970  Biso   1.000  C
  O43      1.0000 0.31582  0.88582  0.09906  Biso   1.000  O
  O44      1.0000 0.26440  0.81010  0.06864  Biso   1.000  O
  C100     1.0000 0.16740  0.86210  0.03120  Biso   1.000  C
  C101     1.0000 0.22710  0.81850  0.01730  Biso   1.000  C
  C102     1.0000 0.39580  0.89920  0.12641  Biso   1.000  C
  C103     1.0000 0.59440  0.12500  0.06970  Biso   1.000  C
  C104     1.0000 0.56330  0.05530  0.09600  Biso   1.000  C
  C105     1.0000 0.27610  0.76370  0.07100  Biso   1.000  C
  C106     1.0000 0.38640  0.88970  0.14580  Biso   1.000  C
  C107     1.0000 0.43850  0.89140  0.11820  Biso   1.000  C
  C108     1.0000 0.23400  0.72080  0.08500  Biso   1.000  C
  C109     1.0000 0.33700  0.78440  0.07590  Biso   1.000  C
  H36      1.0000 0.36350  0.90280  0.15250  Biso   1.000  H
  C110     1.0000 0.40860  0.86090  0.15740  Biso   1.000  C
  C111     1.0000 0.46140  0.86150  0.12860  Biso   1.000  C
  H37      1.0000 0.45300  0.90670  0.10500  Biso   1.000  H
  H38      1.0000 0.39380  0.84740  0.17080  Biso   1.000  H
  C112     1.0000 0.44570  0.85320  0.15080  Biso   1.000  C
  H39      1.0000 0.50280  0.88410  0.12770  Biso   1.000  H
  H40      1.0000 0.46580  0.84150  0.15990  Biso   1.000  H
  I5       1.0000 0.96828  0.07780  0.31341  Biso   1.000  I
  Cu5      1.0000 0.04520  0.06512  0.33487  Biso   1.000  Cu
  N5       1.0000 0.09847  0.14143  0.34939  Biso   1.000  N
  C113     1.0000 0.07917  0.17643  0.35593  Biso   1.000  C
  C114     1.0000 0.14927  0.15193  0.35584  Biso   1.000  C
  C115     1.0000 0.99857  0.94893  0.26211  Biso   1.000  C
  H41      1.0000 0.04287  0.17013  0.35113  Biso   1.000  H
  C116     1.0000 0.10957  0.22023  0.36911  Biso   1.000  C
  C117     1.0000 0.18237  0.19523  0.36927  Biso   1.000  C
  H42      1.0000 0.16387  0.12833  0.35093  Biso   1.000  H
  H43      1.0000 0.96377  0.91583  0.26683  Biso   1.000  H
  C118     1.0000 0.16227  0.23083  0.37631  Biso   1.000  C
  C119     1.0000 0.08547  0.25763  0.37644  Biso   1.000  C
  H44      1.0000 0.21877  0.20093  0.37373  Biso   1.000  H
  H45      1.0000 0.18397  0.26123  0.38573  Biso   1.000  H
  O45      1.0000 0.04277  0.25293  0.36608  Biso   1.000  O
  O46      1.0000 0.10827  0.29002  0.39131  Biso   1.000  O
  Ti13     1.0000 0.99883  0.29837  0.36967  Biso   1.000  Ti
  Ti14     1.0000 0.08714  0.35027  0.40606  Biso   1.000  Ti
  O47      1.0000 0.07387  0.36533  0.37655  Biso   1.000  O
  O48      1.0000 0.99637  0.30073  0.34285  Biso   1.000  O
  O49      1.0000 0.92867  0.22453  0.37629  Biso   1.000  O
  O50      1.0000 0.00656  0.28607  0.39923  Biso   1.000  O
  O51      1.0000 0.95987  0.34253  0.37336  Biso   1.000  O
  O52      1.0000 0.08044  0.30984  0.43176  Biso   1.000  O
  O53      1.0000 0.16363  0.39599  0.40752  Biso   1.000  O
  C120     1.0000 0.11247  0.41613  0.36439  Biso   1.000  C
  C121     1.0000 0.00347  0.29893  0.32065  Biso   1.000  C
  Ti15     1.0000 0.94448  0.21407  0.40614  Biso   1.000  Ti
  C122     1.0000 0.87977  0.18763  0.36396  Biso   1.000  C
  P5       1.0000 0.03160  0.26582  0.44503  Biso   1.000  P
  C123     1.0000 0.21767  0.40263  0.41023  Biso   1.000  C
  C124     1.0000 0.09577  0.45613  0.36303  Biso   1.000  C
  C125     1.0000 0.15767  0.40743  0.35483  Biso   1.000  C
  C126     1.0000 0.97227  0.32663  0.31153  Biso   1.000  C
  C127     1.0000 0.02827  0.27403  0.31303  Biso   1.000  C
  O54      1.0000 0.98249  0.21915  0.43239  Biso   1.000  O
  O55      1.0000 0.93107  0.14343  0.40197  Biso   1.000  O
  C128     1.0000 0.83407  0.19543  0.36453  Biso   1.000  C
  C129     1.0000 0.89377  0.15183  0.35063  Biso   1.000  C
  C130     1.0000 0.06247  0.23253  0.45974  Biso   1.000  C
  C131     1.0000 0.26107  0.45833  0.40303  Biso   1.000  C
  C132     1.0000 0.22997  0.38863  0.42933  Biso   1.000  C
  C133     1.0000 0.94277  0.09703  0.40433  Biso   1.000  C
  C134     1.0000 0.05307  0.22303  0.47913  Biso   1.000  C
  C135     1.0000 0.10517  0.22473  0.45153  Biso   1.000  C
  C136     1.0000 0.90067  0.05413  0.41833  Biso   1.000  C
  C137     1.0000 0.00367  0.11773  0.40923  Biso   1.000  C
  H46      1.0000 0.03017  0.23613  0.48583  Biso   1.000  H
  C138     1.0000 0.07527  0.19423  0.49073  Biso   1.000  C
  C139     1.0000 0.12807  0.19483  0.46193  Biso   1.000  C
  H47      1.0000 0.11967  0.24003  0.43833  Biso   1.000  H
  H48      1.0000 0.06047  0.18073  0.50413  Biso   1.000  H
  C140     1.0000 0.11237  0.18653  0.48413  Biso   1.000  C
  H49      1.0000 0.16947  0.21743  0.46103  Biso   1.000  H
  H50      1.0000 0.13247  0.17483  0.49323  Biso   1.000  H
  I6       1.0000 0.63494  0.41113  0.64674  Biso   1.000  I
  Cu6      1.0000 0.71186  0.39846  0.66820  Biso   1.000  Cu
  N6       1.0000 0.76513  0.47477  0.68273  Biso   1.000  N
  C141     1.0000 0.74583  0.50977  0.68927  Biso   1.000  C
  C142     1.0000 0.81593  0.48527  0.68918  Biso   1.000  C
  C143     1.0000 0.66523  0.28227  0.59545  Biso   1.000  C
  H51      1.0000 0.70953  0.50347  0.68447  Biso   1.000  H
  C144     1.0000 0.77623  0.55357  0.70245  Biso   1.000  C
  C145     1.0000 0.84903  0.52857  0.70261  Biso   1.000  C
  H52      1.0000 0.83053  0.46167  0.68427  Biso   1.000  H
  H53      1.0000 0.63043  0.24917  0.60017  Biso   1.000  H
  C146     1.0000 0.82893  0.56417  0.70965  Biso   1.000  C
  C147     1.0000 0.75213  0.59097  0.70978  Biso   1.000  C
  H54      1.0000 0.88543  0.53427  0.70707  Biso   1.000  H
  H55      1.0000 0.85063  0.59457  0.71907  Biso   1.000  H
  O56      1.0000 0.70943  0.58627  0.69942  Biso   1.000  O
  O57      1.0000 0.77493  0.62336  0.72465  Biso   1.000  O
  Ti16     1.0000 0.66549  0.63171  0.70300  Biso   1.000  Ti
  Ti17     1.0000 0.75380  0.68361  0.73940  Biso   1.000  Ti
  O58      1.0000 0.74053  0.69867  0.70989  Biso   1.000  O
  O59      1.0000 0.66303  0.63407  0.67619  Biso   1.000  O
  O60      1.0000 0.59533  0.55787  0.70963  Biso   1.000  O
  O61      1.0000 0.67322  0.61941  0.73257  Biso   1.000  O
  O62      1.0000 0.62653  0.67587  0.70670  Biso   1.000  O
  O63      1.0000 0.74710  0.64318  0.76510  Biso   1.000  O
  O64      1.0000 0.83029  0.72933  0.74086  Biso   1.000  O
  C148     1.0000 0.77913  0.74947  0.69773  Biso   1.000  C
  C149     1.0000 0.67013  0.63227  0.65399  Biso   1.000  C
  Ti18     1.0000 0.61114  0.54741  0.73947  Biso   1.000  Ti
  C150     1.0000 0.54643  0.52097  0.69730  Biso   1.000  C
  P6       1.0000 0.69826  0.59916  0.77837  Biso   1.000  P
  C151     1.0000 0.88433  0.73597  0.74357  Biso   1.000  C
  C152     1.0000 0.76243  0.78947  0.69637  Biso   1.000  C
  C153     1.0000 0.82433  0.74077  0.68817  Biso   1.000  C
  C154     1.0000 0.63893  0.65997  0.64487  Biso   1.000  C
  C155     1.0000 0.69493  0.60737  0.64637  Biso   1.000  C
  O65      1.0000 0.64915  0.55249  0.76573  Biso   1.000  O
  O66      1.0000 0.59773  0.47677  0.73531  Biso   1.000  O
  C156     1.0000 0.50073  0.52877  0.69787  Biso   1.000  C
  C157     1.0000 0.56043  0.48517  0.68397  Biso   1.000  C
  C158     1.0000 0.72913  0.56587  0.79308  Biso   1.000  C
  C159     1.0000 0.92773  0.79167  0.73637  Biso   1.000  C
  C160     1.0000 0.89663  0.72197  0.76267  Biso   1.000  C
  C161     1.0000 0.60943  0.43037  0.73767  Biso   1.000  C
  C162     1.0000 0.71973  0.55637  0.81247  Biso   1.000  C
  C163     1.0000 0.77183  0.55807  0.78487  Biso   1.000  C
  C164     1.0000 0.56733  0.38747  0.75167  Biso   1.000  C
  C165     1.0000 0.67033  0.45107  0.74257  Biso   1.000  C
  H56      1.0000 0.69683  0.56947  0.81917  Biso   1.000  H
  C166     1.0000 0.74193  0.52757  0.82407  Biso   1.000  C
  C167     1.0000 0.79473  0.52817  0.79527  Biso   1.000  C
  H57      1.0000 0.78633  0.57337  0.77167  Biso   1.000  H
  H58      1.0000 0.72713  0.51407  0.83747  Biso   1.000  H
  C168     1.0000 0.77903  0.51987  0.81747  Biso   1.000  C
  H59      1.0000 0.83613  0.55077  0.79437  Biso   1.000  H
  H60      1.0000 0.79913  0.50817  0.82657  Biso   1.000  H
  I7       1.0000 0.25553  0.55714  0.98008  Biso   1.000  I
  Cu7      1.0000 0.26821  0.64674  0.00154  Biso   1.000  Cu
  N7       1.0000 0.19190  0.62370  0.01606  Biso   1.000  N
  C169     1.0000 0.15690  0.56940  0.02260  Biso   1.000  C
  C170     1.0000 0.18140  0.66400  0.02251  Biso   1.000  C
  C171     1.0000 0.38440  0.71630  0.92878  Biso   1.000  C
  H61      1.0000 0.16320  0.53940  0.01780  Biso   1.000  H
  C172     1.0000 0.11310  0.55600  0.03578  Biso   1.000  C
  C173     1.0000 0.13810  0.65380  0.03594  Biso   1.000  C
  H62      1.0000 0.20500  0.70220  0.01760  Biso   1.000  H
  H63      1.0000 0.41750  0.71460  0.93350  Biso   1.000  H
  C174     1.0000 0.10250  0.59810  0.04298  Biso   1.000  C
  C175     1.0000 0.07570  0.49450  0.04311  Biso   1.000  C
  H64      1.0000 0.13240  0.68450  0.04040  Biso   1.000  H
  H65      1.0000 0.07210  0.58940  0.05240  Biso   1.000  H
  O67      1.0000 0.08040  0.45650  0.03275  Biso   1.000  O
  O68      1.0000 0.04331  0.48491  0.05798  Biso   1.000  O
  Ti19     1.0000 0.03496  0.36712  0.03633  Biso   1.000  Ti
  Ti20     1.0000 0.98306  0.40353  0.07273  Biso   1.000  Ti
  O69      1.0000 0.96800  0.37520  0.04322  Biso   1.000  O
  O70      1.0000 0.03260  0.36230  0.00952  Biso   1.000  O
  O71      1.0000 0.10880  0.37080  0.04296  Biso   1.000  O
  O72      1.0000 0.04726  0.38715  0.06590  Biso   1.000  O
  O73      1.0000 0.99080  0.28400  0.04003  Biso   1.000  O
  O74      1.0000 0.02349  0.43726  0.09843  Biso   1.000  O
  O75      1.0000 0.93734  0.43430  0.07419  Biso   1.000  O
  C176     1.0000 0.91720  0.36300  0.03106  Biso   1.000  C
  C177     1.0000 0.03440  0.37120  0.98732  Biso   1.000  C
  Ti21     1.0000 0.11926  0.39707  0.07280  Biso   1.000  Ti
  C178     1.0000 0.14570  0.35880  0.03063  Biso   1.000  C
  P7       1.0000 0.06751  0.43244  0.11170  Biso   1.000  P
  C179     1.0000 0.93070  0.48170  0.07690  Biso   1.000  C
  C180     1.0000 0.87720  0.30630  0.02970  Biso   1.000  C
  C181     1.0000 0.92590  0.41690  0.02150  Biso   1.000  C
  C182     1.0000 0.00670  0.31230  0.97820  Biso   1.000  C
  C183     1.0000 0.05930  0.42090  0.97970  Biso   1.000  C
  O76      1.0000 0.11418  0.43000  0.09906  Biso   1.000  O
  O77      1.0000 0.18990  0.45430  0.06864  Biso   1.000  O
  C184     1.0000 0.13790  0.30530  0.03120  Biso   1.000  C
  C185     1.0000 0.18150  0.40860  0.01730  Biso   1.000  C
  C186     1.0000 0.10080  0.49660  0.12641  Biso   1.000  C
  C187     1.0000 0.87500  0.46940  0.06970  Biso   1.000  C
  C188     1.0000 0.94470  0.50800  0.09600  Biso   1.000  C
  C189     1.0000 0.23630  0.51240  0.07100  Biso   1.000  C
  C190     1.0000 0.11030  0.49670  0.14580  Biso   1.000  C
  C191     1.0000 0.10860  0.54710  0.11820  Biso   1.000  C
  C192     1.0000 0.27920  0.51320  0.08500  Biso   1.000  C
  C193     1.0000 0.21560  0.55260  0.07590  Biso   1.000  C
  H66      1.0000 0.09720  0.46070  0.15250  Biso   1.000  H
  C194     1.0000 0.13910  0.54770  0.15740  Biso   1.000  C
  C195     1.0000 0.13850  0.59990  0.12860  Biso   1.000  C
  H67      1.0000 0.09330  0.54630  0.10500  Biso   1.000  H
  H68      1.0000 0.15260  0.54640  0.17080  Biso   1.000  H
  C196     1.0000 0.14680  0.59250  0.15080  Biso   1.000  C
  H69      1.0000 0.11590  0.61870  0.12770  Biso   1.000  H
  H70      1.0000 0.15850  0.62430  0.15990  Biso   1.000  H
  I8       1.0000 0.92220  0.89048  0.31341  Biso   1.000  I
  Cu8      1.0000 0.93488  0.98007  0.33487  Biso   1.000  Cu
  N8       1.0000 0.85857  0.95703  0.34939  Biso   1.000  N
  C197     1.0000 0.82357  0.90273  0.35593  Biso   1.000  C
  C198     1.0000 0.84807  0.99733  0.35584  Biso   1.000  C
  C199     1.0000 0.05107  0.04963  0.26211  Biso   1.000  C
  H71      1.0000 0.82987  0.87273  0.35113  Biso   1.000  H
  C200     1.0000 0.77977  0.88933  0.36911  Biso   1.000  C
  C201     1.0000 0.80477  0.98713  0.36927  Biso   1.000  C
  H72      1.0000 0.87167  0.03553  0.35093  Biso   1.000  H
  H73      1.0000 0.08417  0.04793  0.26683  Biso   1.000  H
  C202     1.0000 0.76917  0.93143  0.37631  Biso   1.000  C
  C203     1.0000 0.74237  0.82783  0.37644  Biso   1.000  C
  H74      1.0000 0.79907  0.01783  0.37373  Biso   1.000  H
  H75      1.0000 0.73877  0.92273  0.38573  Biso   1.000  H
  O78      1.0000 0.74707  0.78983  0.36608  Biso   1.000  O
  O79      1.0000 0.70998  0.81824  0.39131  Biso   1.000  O
  Ti22     1.0000 0.70163  0.70045  0.36967  Biso   1.000  Ti
  Ti23     1.0000 0.64973  0.73686  0.40606  Biso   1.000  Ti
  O80      1.0000 0.63467  0.70853  0.37655  Biso   1.000  O
  O81      1.0000 0.69927  0.69563  0.34285  Biso   1.000  O
  O82      1.0000 0.77547  0.70413  0.37629  Biso   1.000  O
  O83      1.0000 0.71393  0.72048  0.39923  Biso   1.000  O
  O84      1.0000 0.65747  0.61733  0.37336  Biso   1.000  O
  O85      1.0000 0.69016  0.77059  0.43176  Biso   1.000  O
  O86      1.0000 0.60401  0.76763  0.40752  Biso   1.000  O
  C204     1.0000 0.58387  0.69633  0.36439  Biso   1.000  C
  C205     1.0000 0.70107  0.70453  0.32065  Biso   1.000  C
  Ti24     1.0000 0.78593  0.73040  0.40614  Biso   1.000  Ti
  C206     1.0000 0.81237  0.69213  0.36396  Biso   1.000  C
  P8       1.0000 0.73418  0.76577  0.44503  Biso   1.000  P
  C207     1.0000 0.59737  0.81503  0.41023  Biso   1.000  C
  C208     1.0000 0.54387  0.63963  0.36303  Biso   1.000  C
  C209     1.0000 0.59257  0.75023  0.35483  Biso   1.000  C
  C210     1.0000 0.67337  0.64563  0.31153  Biso   1.000  C
  C211     1.0000 0.72597  0.75423  0.31303  Biso   1.000  C
  O87      1.0000 0.78085  0.76333  0.43239  Biso   1.000  O
  O88      1.0000 0.85657  0.78763  0.40197  Biso   1.000  O
  C212     1.0000 0.80457  0.63863  0.36453  Biso   1.000  C
  C213     1.0000 0.84817  0.74193  0.35063  Biso   1.000  C
  C214     1.0000 0.76747  0.82993  0.45974  Biso   1.000  C
  C215     1.0000 0.54167  0.80273  0.40303  Biso   1.000  C
  C216     1.0000 0.61137  0.84133  0.42933  Biso   1.000  C
  C217     1.0000 0.90297  0.84573  0.40433  Biso   1.000  C
  C218     1.0000 0.77697  0.83003  0.47913  Biso   1.000  C
  C219     1.0000 0.77527  0.88043  0.45153  Biso   1.000  C
  C220     1.0000 0.94587  0.84653  0.41833  Biso   1.000  C
  C221     1.0000 0.88227  0.88593  0.40923  Biso   1.000  C
  H76      1.0000 0.76387  0.79403  0.48583  Biso   1.000  H
  C222     1.0000 0.80577  0.88103  0.49073  Biso   1.000  C
  C223     1.0000 0.80517  0.93323  0.46193  Biso   1.000  C
  H77      1.0000 0.75997  0.87963  0.43833  Biso   1.000  H
  H78      1.0000 0.81927  0.87973  0.50413  Biso   1.000  H
  C224     1.0000 0.81347  0.92583  0.48413  Biso   1.000  C
  H79      1.0000 0.78257  0.95203  0.46103  Biso   1.000  H
  H80      1.0000 0.82517  0.95763  0.49323  Biso   1.000  H
  I9       1.0000 0.58887  0.22381  0.64674  Biso   1.000  I
  Cu9      1.0000 0.60154  0.31341  0.66820  Biso   1.000  Cu
  N9       1.0000 0.52523  0.29037  0.68273  Biso   1.000  N
  C225     1.0000 0.49023  0.23607  0.68927  Biso   1.000  C
  C226     1.0000 0.51473  0.33067  0.68918  Biso   1.000  C
  C227     1.0000 0.71773  0.38297  0.59545  Biso   1.000  C
  H81      1.0000 0.49653  0.20607  0.68447  Biso   1.000  H
  C228     1.0000 0.44643  0.22267  0.70245  Biso   1.000  C
  C229     1.0000 0.47143  0.32047  0.70261  Biso   1.000  C
  H82      1.0000 0.53833  0.36887  0.68427  Biso   1.000  H
  H83      1.0000 0.75083  0.38127  0.60017  Biso   1.000  H
  C230     1.0000 0.43583  0.26477  0.70965  Biso   1.000  C
  C231     1.0000 0.40903  0.16117  0.70978  Biso   1.000  C
  H84      1.0000 0.46573  0.35117  0.70707  Biso   1.000  H
  H85      1.0000 0.40543  0.25607  0.71907  Biso   1.000  H
  O89      1.0000 0.41373  0.12317  0.69942  Biso   1.000  O
  O90      1.0000 0.37664  0.15158  0.72465  Biso   1.000  O
  Ti25     1.0000 0.36829  0.03379  0.70300  Biso   1.000  Ti
  Ti26     1.0000 0.31639  0.07020  0.73940  Biso   1.000  Ti
  O91      1.0000 0.30133  0.04187  0.70989  Biso   1.000  O
  O92      1.0000 0.36593  0.02897  0.67619  Biso   1.000  O
  O93      1.0000 0.44213  0.03747  0.70963  Biso   1.000  O
  O94      1.0000 0.38059  0.05382  0.73257  Biso   1.000  O
  O95      1.0000 0.32413  0.95067  0.70670  Biso   1.000  O
  O96      1.0000 0.35682  0.10393  0.76510  Biso   1.000  O
  O97      1.0000 0.27067  0.10097  0.74086  Biso   1.000  O
  C232     1.0000 0.25053  0.02967  0.69773  Biso   1.000  C
  C233     1.0000 0.36773  0.03787  0.65399  Biso   1.000  C
  Ti27     1.0000 0.45259  0.06374  0.73947  Biso   1.000  Ti
  C234     1.0000 0.47903  0.02547  0.69730  Biso   1.000  C
  P9       1.0000 0.40084  0.09911  0.77837  Biso   1.000  P
  C235     1.0000 0.26403  0.14837  0.74357  Biso   1.000  C
  C236     1.0000 0.21053  0.97297  0.69637  Biso   1.000  C
  C237     1.0000 0.25923  0.08357  0.68817  Biso   1.000  C
  C238     1.0000 0.34003  0.97897  0.64487  Biso   1.000  C
  C239     1.0000 0.39263  0.08757  0.64637  Biso   1.000  C
  O98      1.0000 0.44751  0.09667  0.76573  Biso   1.000  O
  O99      1.0000 0.52323  0.12097  0.73531  Biso   1.000  O
  C240     1.0000 0.47123  0.97197  0.69787  Biso   1.000  C
  C241     1.0000 0.51483  0.07527  0.68397  Biso   1.000  C
  C242     1.0000 0.43413  0.16327  0.79308  Biso   1.000  C
  C243     1.0000 0.20833  0.13607  0.73637  Biso   1.000  C
  C244     1.0000 0.27803  0.17467  0.76267  Biso   1.000  C
  C245     1.0000 0.56963  0.17907  0.73767  Biso   1.000  C
  C246     1.0000 0.44363  0.16337  0.81247  Biso   1.000  C
  C247     1.0000 0.44193  0.21377  0.78487  Biso   1.000  C
  C248     1.0000 0.61253  0.17987  0.75167  Biso   1.000  C
  C249     1.0000 0.54893  0.21927  0.74257  Biso   1.000  C
  H86      1.0000 0.43053  0.12737  0.81917  Biso   1.000  H
  C250     1.0000 0.47243  0.21437  0.82407  Biso   1.000  C
  C251     1.0000 0.47183  0.26657  0.79527  Biso   1.000  C
  H87      1.0000 0.42663  0.21297  0.77167  Biso   1.000  H
  H88      1.0000 0.48593  0.21307  0.83747  Biso   1.000  H
  C252     1.0000 0.48013  0.25917  0.81747  Biso   1.000  C
  H89      1.0000 0.44923  0.28537  0.79437  Biso   1.000  H
  H90      1.0000 0.49183  0.29097  0.82657  Biso   1.000  H
  I10      1.0000 0.69839  0.44286  0.51992  Biso   1.000  I
  Cu10     1.0000 0.62147  0.35326  0.49846  Biso   1.000  Cu
  N10      1.0000 0.56820  0.37630  0.48394  Biso   1.000  N
  C253     1.0000 0.58750  0.43060  0.47740  Biso   1.000  C
  C254     1.0000 0.51740  0.33600  0.47749  Biso   1.000  C
  C255     1.0000 0.66810  0.28370  0.57122  Biso   1.000  C
  H91      1.0000 0.62380  0.46060  0.48220  Biso   1.000  H
  C256     1.0000 0.55710  0.44400  0.46422  Biso   1.000  C
  C257     1.0000 0.48430  0.34620  0.46406  Biso   1.000  C
  H92      1.0000 0.50280  0.29780  0.48240  Biso   1.000  H
  H93      1.0000 0.70290  0.28540  0.56650  Biso   1.000  H
  C258     1.0000 0.50440  0.40190  0.45702  Biso   1.000  C
  C259     1.0000 0.58120  0.50550  0.45689  Biso   1.000  C
  H94      1.0000 0.44790  0.31550  0.45960  Biso   1.000  H
  H95      1.0000 0.48270  0.41060  0.44760  Biso   1.000  H
  O100     1.0000 0.62390  0.54350  0.46725  Biso   1.000  O
  O101     1.0000 0.55840  0.51509  0.44202  Biso   1.000  O
  Ti28     1.0000 0.66784  0.63288  0.46367  Biso   1.000  Ti
  Ti29     1.0000 0.57953  0.59647  0.42727  Biso   1.000  Ti
  O102     1.0000 0.59280  0.62480  0.45678  Biso   1.000  O
  O103     1.0000 0.67030  0.63770  0.49048  Biso   1.000  O
  O104     1.0000 0.73800  0.62920  0.45704  Biso   1.000  O
  O105     1.0000 0.66011  0.61285  0.43410  Biso   1.000  O
  O106     1.0000 0.70680  0.71600  0.45997  Biso   1.000  O
  O107     1.0000 0.58623  0.56274  0.40157  Biso   1.000  O
  O108     1.0000 0.50304  0.56570  0.42581  Biso   1.000  O
  C260     1.0000 0.55420  0.63700  0.46894  Biso   1.000  C
  C261     1.0000 0.66320  0.62880  0.51268  Biso   1.000  C
  Ti30     1.0000 0.72219  0.60293  0.42720  Biso   1.000  Ti
  C262     1.0000 0.78690  0.64120  0.46937  Biso   1.000  C
  P10      1.0000 0.63507  0.56756  0.38830  Biso   1.000  P
  C263     1.0000 0.44900  0.51830  0.42310  Biso   1.000  C
  C264     1.0000 0.57090  0.69370  0.47030  Biso   1.000  C
  C265     1.0000 0.50900  0.58310  0.47850  Biso   1.000  C
  C266     1.0000 0.69440  0.68770  0.52180  Biso   1.000  C
  C267     1.0000 0.63840  0.57910  0.52030  Biso   1.000  C
  O109     1.0000 0.68418  0.57000  0.40094  Biso   1.000  O
  O110     1.0000 0.73560  0.54570  0.43136  Biso   1.000  O
  C268     1.0000 0.83260  0.69470  0.46880  Biso   1.000  C
  C269     1.0000 0.77290  0.59140  0.48270  Biso   1.000  C
  C270     1.0000 0.60420  0.50340  0.37359  Biso   1.000  C
  C271     1.0000 0.40560  0.53060  0.43030  Biso   1.000  C
  C272     1.0000 0.43670  0.49200  0.40400  Biso   1.000  C
  C273     1.0000 0.72390  0.48760  0.42900  Biso   1.000  C
  C274     1.0000 0.61360  0.50330  0.35420  Biso   1.000  C
  C275     1.0000 0.56150  0.45290  0.38180  Biso   1.000  C
  C276     1.0000 0.76600  0.48680  0.41500  Biso   1.000  C
  C277     1.0000 0.66300  0.44740  0.42410  Biso   1.000  C
  H96      1.0000 0.63650  0.53930  0.34750  Biso   1.000  H
  C278     1.0000 0.59140  0.45230  0.34260  Biso   1.000  C
  C279     1.0000 0.53860  0.40010  0.37140  Biso   1.000  C
  H97      1.0000 0.54700  0.45370  0.39500  Biso   1.000  H
  H98      1.0000 0.60620  0.45360  0.32920  Biso   1.000  H
  C280     1.0000 0.55430  0.40750  0.34920  Biso   1.000  C
  H99      1.0000 0.49720  0.38130  0.37230  Biso   1.000  H
  H100     1.0000 0.53420  0.37570  0.34010  Biso   1.000  H
  I11      1.0000 0.36506  0.77619  0.85326  Biso   1.000  I
  Cu11     1.0000 0.28814  0.68659  0.83180  Biso   1.000  Cu
  N11      1.0000 0.23487  0.70963  0.81727  Biso   1.000  N
  C281     1.0000 0.25417  0.76393  0.81073  Biso   1.000  C
  C282     1.0000 0.18407  0.66933  0.81082  Biso   1.000  C
  C283     1.0000 0.33477  0.61703  0.90455  Biso   1.000  C
  H101     1.0000 0.29047  0.79393  0.81553  Biso   1.000  H
  C284     1.0000 0.22377  0.77733  0.79755  Biso   1.000  C
  C285     1.0000 0.15097  0.67953  0.79739  Biso   1.000  C
  H102     1.0000 0.16947  0.63113  0.81573  Biso   1.000  H
  H103     1.0000 0.36957  0.61873  0.89983  Biso   1.000  H
  C286     1.0000 0.17107  0.73523  0.79035  Biso   1.000  C
  C287     1.0000 0.24787  0.83883  0.79022  Biso   1.000  C
  H104     1.0000 0.11457  0.64883  0.79293  Biso   1.000  H
  H105     1.0000 0.14937  0.74393  0.78093  Biso   1.000  H
  O111     1.0000 0.29057  0.87683  0.80058  Biso   1.000  O
  O112     1.0000 0.22507  0.84842  0.77535  Biso   1.000  O
  Ti31     1.0000 0.33451  0.96621  0.79700  Biso   1.000  Ti
  Ti32     1.0000 0.24620  0.92980  0.76060  Biso   1.000  Ti
  O113     1.0000 0.25947  0.95813  0.79011  Biso   1.000  O
  O114     1.0000 0.33697  0.97103  0.82381  Biso   1.000  O
  O115     1.0000 0.40467  0.96253  0.79037  Biso   1.000  O
  O116     1.0000 0.32678  0.94618  0.76743  Biso   1.000  O
  O117     1.0000 0.37347  0.04933  0.79330  Biso   1.000  O
  O118     1.0000 0.25290  0.89607  0.73490  Biso   1.000  O
  O119     1.0000 0.16971  0.89903  0.75914  Biso   1.000  O
  C288     1.0000 0.22087  0.97033  0.80227  Biso   1.000  C
  C289     1.0000 0.32987  0.96213  0.84601  Biso   1.000  C
  Ti33     1.0000 0.38886  0.93626  0.76053  Biso   1.000  Ti
  C290     1.0000 0.45357  0.97453  0.80270  Biso   1.000  C
  P11      1.0000 0.30174  0.90089  0.72163  Biso   1.000  P
  C291     1.0000 0.11567  0.85163  0.75643  Biso   1.000  C
  C292     1.0000 0.23757  0.02703  0.80363  Biso   1.000  C
  C293     1.0000 0.17567  0.91643  0.81183  Biso   1.000  C
  C294     1.0000 0.36107  0.02103  0.85513  Biso   1.000  C
  C295     1.0000 0.30507  0.91243  0.85363  Biso   1.000  C
  O120     1.0000 0.35085  0.90333  0.73427  Biso   1.000  O
  O121     1.0000 0.40227  0.87903  0.76469  Biso   1.000  O
  C296     1.0000 0.49927  0.02803  0.80213  Biso   1.000  C
  C297     1.0000 0.43957  0.92473  0.81603  Biso   1.000  C
  C298     1.0000 0.27087  0.83673  0.70692  Biso   1.000  C
  C299     1.0000 0.07227  0.86393  0.76363  Biso   1.000  C
  C300     1.0000 0.10337  0.82533  0.73733  Biso   1.000  C
  C301     1.0000 0.39057  0.82093  0.76233  Biso   1.000  C
  C302     1.0000 0.28027  0.83663  0.68753  Biso   1.000  C
  C303     1.0000 0.22817  0.78623  0.71513  Biso   1.000  C
  C304     1.0000 0.43267  0.82013  0.74833  Biso   1.000  C
  C305     1.0000 0.32967  0.78073  0.75743  Biso   1.000  C
  H106     1.0000 0.30317  0.87263  0.68083  Biso   1.000  H
  C306     1.0000 0.25807  0.78563  0.67593  Biso   1.000  C
  C307     1.0000 0.20527  0.73343  0.70473  Biso   1.000  C
  H107     1.0000 0.21367  0.78703  0.72833  Biso   1.000  H
  H108     1.0000 0.27287  0.78693  0.66253  Biso   1.000  H
  C308     1.0000 0.22097  0.74083  0.68253  Biso   1.000  C
  H109     1.0000 0.16387  0.71463  0.70563  Biso   1.000  H
  H110     1.0000 0.20087  0.70903  0.67343  Biso   1.000  H
  I12      1.0000 0.03172  0.10952  0.18659  Biso   1.000  I
  Cu12     1.0000 0.95480  0.01993  0.16513  Biso   1.000  Cu
  N12      1.0000 0.90153  0.04297  0.15061  Biso   1.000  N
  C309     1.0000 0.92083  0.09727  0.14407  Biso   1.000  C
  C310     1.0000 0.85073  0.00267  0.14416  Biso   1.000  C
  C311     1.0000 0.00143  0.95037  0.23789  Biso   1.000  C
  H111     1.0000 0.95713  0.12727  0.14887  Biso   1.000  H
  C312     1.0000 0.89043  0.11067  0.13089  Biso   1.000  C
  C313     1.0000 0.81763  0.01287  0.13073  Biso   1.000  C
  H112     1.0000 0.83613  0.96447  0.14907  Biso   1.000  H
  H113     1.0000 0.03623  0.95207  0.23317  Biso   1.000  H
  C314     1.0000 0.83773  0.06857  0.12369  Biso   1.000  C
  C315     1.0000 0.91453  0.17217  0.12356  Biso   1.000  C
  H114     1.0000 0.78123  0.98217  0.12627  Biso   1.000  H
  H115     1.0000 0.81603  0.07727  0.11427  Biso   1.000  H
  O122     1.0000 0.95723  0.21017  0.13392  Biso   1.000  O
  O123     1.0000 0.89173  0.18176  0.10869  Biso   1.000  O
  Ti34     1.0000 0.00117  0.29955  0.13033  Biso   1.000  Ti
  Ti35     1.0000 0.91286  0.26314  0.09394  Biso   1.000  Ti
  O124     1.0000 0.92613  0.29147  0.12345  Biso   1.000  O
  O125     1.0000 0.00363  0.30437  0.15715  Biso   1.000  O
  O126     1.0000 0.07133  0.29587  0.12371  Biso   1.000  O
  O127     1.0000 0.99344  0.27952  0.10077  Biso   1.000  O
  O128     1.0000 0.04013  0.38267  0.12664  Biso   1.000  O
  O129     1.0000 0.91956  0.22941  0.06824  Biso   1.000  O
  O130     1.0000 0.83637  0.23237  0.09248  Biso   1.000  O
  C316     1.0000 0.88753  0.30367  0.13561  Biso   1.000  C
  C317     1.0000 0.99653  0.29547  0.17935  Biso   1.000  C
  Ti36     1.0000 0.05552  0.26960  0.09386  Biso   1.000  Ti
  C318     1.0000 0.12023  0.30787  0.13604  Biso   1.000  C
  P12      1.0000 0.96840  0.23423  0.05497  Biso   1.000  P
  C319     1.0000 0.78233  0.18497  0.08977  Biso   1.000  C
  C320     1.0000 0.90423  0.36037  0.13697  Biso   1.000  C
  C321     1.0000 0.84233  0.24977  0.14517  Biso   1.000  C
  C322     1.0000 0.02773  0.35437  0.18847  Biso   1.000  C
  C323     1.0000 0.97173  0.24577  0.18697  Biso   1.000  C
  O131     1.0000 0.01751  0.23667  0.06761  Biso   1.000  O
  O132     1.0000 0.06893  0.21237  0.09803  Biso   1.000  O
  C324     1.0000 0.16593  0.36137  0.13547  Biso   1.000  C
  C325     1.0000 0.10623  0.25807  0.14937  Biso   1.000  C
  C326     1.0000 0.93753  0.17007  0.04026  Biso   1.000  C
  C327     1.0000 0.73893  0.19727  0.09697  Biso   1.000  C
  C328     1.0000 0.77003  0.15867  0.07067  Biso   1.000  C
  C329     1.0000 0.05723  0.15427  0.09567  Biso   1.000  C
  C330     1.0000 0.94693  0.16997  0.02087  Biso   1.000  C
  C331     1.0000 0.89483  0.11957  0.04847  Biso   1.000  C
  C332     1.0000 0.09933  0.15347  0.08167  Biso   1.000  C
  C333     1.0000 0.99633  0.11407  0.09077  Biso   1.000  C
  H116     1.0000 0.96983  0.20597  0.01417  Biso   1.000  H
  C334     1.0000 0.92473  0.11897  0.00927  Biso   1.000  C
  C335     1.0000 0.87193  0.06677  0.03807  Biso   1.000  C
  H117     1.0000 0.88033  0.12037  0.06167  Biso   1.000  H
  H118     1.0000 0.93953  0.12027  0.99587  Biso   1.000  H
  C336     1.0000 0.88763  0.07417  0.01587  Biso   1.000  C
  H119     1.0000 0.83053  0.04797  0.03897  Biso   1.000  H
  H120     1.0000 0.86753  0.04237  0.00677  Biso   1.000  H
  I13      1.0000 0.74447  0.30161  0.51992  Biso   1.000  I
  Cu13     1.0000 0.73179  0.37853  0.49846  Biso   1.000  Cu
  N13      1.0000 0.80810  0.43180  0.48394  Biso   1.000  N
  C337     1.0000 0.84310  0.41250  0.47740  Biso   1.000  C
  C338     1.0000 0.81860  0.48260  0.47749  Biso   1.000  C
  C339     1.0000 0.61560  0.33190  0.57122  Biso   1.000  C
  H121     1.0000 0.83680  0.37620  0.48220  Biso   1.000  H
  C340     1.0000 0.88690  0.44290  0.46422  Biso   1.000  C
  C341     1.0000 0.86190  0.51570  0.46406  Biso   1.000  C
  H122     1.0000 0.79500  0.49720  0.48240  Biso   1.000  H
  H123     1.0000 0.58250  0.29710  0.56650  Biso   1.000  H
  C342     1.0000 0.89750  0.49560  0.45702  Biso   1.000  C
  C343     1.0000 0.92430  0.41880  0.45689  Biso   1.000  C
  H124     1.0000 0.86760  0.55210  0.45960  Biso   1.000  H
  H125     1.0000 0.92790  0.51730  0.44760  Biso   1.000  H
  O133     1.0000 0.91960  0.37610  0.46725  Biso   1.000  O
  O134     1.0000 0.95669  0.44160  0.44202  Biso   1.000  O
  Ti37     1.0000 0.96504  0.33216  0.46367  Biso   1.000  Ti
  Ti38     1.0000 0.01694  0.42047  0.42727  Biso   1.000  Ti
  O135     1.0000 0.03200  0.40720  0.45678  Biso   1.000  O
  O136     1.0000 0.96740  0.32970  0.49048  Biso   1.000  O
  O137     1.0000 0.89120  0.26200  0.45704  Biso   1.000  O
  O138     1.0000 0.95274  0.33989  0.43410  Biso   1.000  O
  O139     1.0000 0.00920  0.29320  0.45997  Biso   1.000  O
  O140     1.0000 0.97651  0.41377  0.40157  Biso   1.000  O
  O141     1.0000 0.06266  0.49696  0.42581  Biso   1.000  O
  C344     1.0000 0.08280  0.44580  0.46894  Biso   1.000  C
  C345     1.0000 0.96560  0.33680  0.51268  Biso   1.000  C
  Ti39     1.0000 0.88074  0.27781  0.42720  Biso   1.000  Ti
  C346     1.0000 0.85430  0.21310  0.46937  Biso   1.000  C
  P13      1.0000 0.93249  0.36493  0.38830  Biso   1.000  P
  C347     1.0000 0.06930  0.55100  0.42310  Biso   1.000  C
  C348     1.0000 0.12280  0.42910  0.47030  Biso   1.000  C
  C349     1.0000 0.07410  0.49100  0.47850  Biso   1.000  C
  C350     1.0000 0.99330  0.30560  0.52180  Biso   1.000  C
  C351     1.0000 0.94070  0.36160  0.52030  Biso   1.000  C
  O142     1.0000 0.88582  0.31582  0.40094  Biso   1.000  O
  O143     1.0000 0.81010  0.26440  0.43136  Biso   1.000  O
  C352     1.0000 0.86210  0.16740  0.46880  Biso   1.000  C
  C353     1.0000 0.81850  0.22710  0.48270  Biso   1.000  C
  C354     1.0000 0.89920  0.39580  0.37359  Biso   1.000  C
  C355     1.0000 0.12500  0.59440  0.43030  Biso   1.000  C
  C356     1.0000 0.05530  0.56330  0.40400  Biso   1.000  C
  C357     1.0000 0.76370  0.27610  0.42900  Biso   1.000  C
  C358     1.0000 0.88970  0.38640  0.35420  Biso   1.000  C
  C359     1.0000 0.89140  0.43850  0.38180  Biso   1.000  C
  C360     1.0000 0.72080  0.23400  0.41500  Biso   1.000  C
  C361     1.0000 0.78440  0.33700  0.42410  Biso   1.000  C
  H126     1.0000 0.90280  0.36350  0.34750  Biso   1.000  H
  C362     1.0000 0.86090  0.40860  0.34260  Biso   1.000  C
  C363     1.0000 0.86150  0.46140  0.37140  Biso   1.000  C
  H127     1.0000 0.90670  0.45300  0.39500  Biso   1.000  H
  H128     1.0000 0.84740  0.39380  0.32920  Biso   1.000  H
  C364     1.0000 0.85320  0.44570  0.34920  Biso   1.000  C
  H129     1.0000 0.88410  0.50280  0.37230  Biso   1.000  H
  H130     1.0000 0.84150  0.46580  0.34010  Biso   1.000  H
  I14      1.0000 0.41113  0.63494  0.85326  Biso   1.000  I
  Cu14     1.0000 0.39846  0.71186  0.83180  Biso   1.000  Cu
  N14      1.0000 0.47477  0.76513  0.81727  Biso   1.000  N
  C365     1.0000 0.50977  0.74583  0.81073  Biso   1.000  C
  C366     1.0000 0.48527  0.81593  0.81082  Biso   1.000  C
  C367     1.0000 0.28227  0.66523  0.90455  Biso   1.000  C
  H131     1.0000 0.50347  0.70953  0.81553  Biso   1.000  H
  C368     1.0000 0.55357  0.77623  0.79755  Biso   1.000  C
  C369     1.0000 0.52857  0.84903  0.79739  Biso   1.000  C
  H132     1.0000 0.46167  0.83053  0.81573  Biso   1.000  H
  H133     1.0000 0.24917  0.63043  0.89983  Biso   1.000  H
  C370     1.0000 0.56417  0.82893  0.79035  Biso   1.000  C
  C371     1.0000 0.59097  0.75213  0.79022  Biso   1.000  C
  H134     1.0000 0.53427  0.88543  0.79293  Biso   1.000  H
  H135     1.0000 0.59457  0.85063  0.78093  Biso   1.000  H
  O144     1.0000 0.58627  0.70943  0.80058  Biso   1.000  O
  O145     1.0000 0.62336  0.77493  0.77535  Biso   1.000  O
  Ti40     1.0000 0.63171  0.66549  0.79700  Biso   1.000  Ti
  Ti41     1.0000 0.68361  0.75380  0.76060  Biso   1.000  Ti
  O146     1.0000 0.69867  0.74053  0.79011  Biso   1.000  O
  O147     1.0000 0.63407  0.66303  0.82381  Biso   1.000  O
  O148     1.0000 0.55787  0.59533  0.79037  Biso   1.000  O
  O149     1.0000 0.61941  0.67322  0.76743  Biso   1.000  O
  O150     1.0000 0.67587  0.62653  0.79330  Biso   1.000  O
  O151     1.0000 0.64318  0.74710  0.73490  Biso   1.000  O
  O152     1.0000 0.72933  0.83029  0.75914  Biso   1.000  O
  C372     1.0000 0.74947  0.77913  0.80227  Biso   1.000  C
  C373     1.0000 0.63227  0.67013  0.84601  Biso   1.000  C
  Ti42     1.0000 0.54741  0.61114  0.76053  Biso   1.000  Ti
  C374     1.0000 0.52097  0.54643  0.80270  Biso   1.000  C
  P14      1.0000 0.59916  0.69826  0.72163  Biso   1.000  P
  C375     1.0000 0.73597  0.88433  0.75643  Biso   1.000  C
  C376     1.0000 0.78947  0.76243  0.80363  Biso   1.000  C
  C377     1.0000 0.74077  0.82433  0.81183  Biso   1.000  C
  C378     1.0000 0.65997  0.63893  0.85513  Biso   1.000  C
  C379     1.0000 0.60737  0.69493  0.85363  Biso   1.000  C
  O153     1.0000 0.55249  0.64915  0.73427  Biso   1.000  O
  O154     1.0000 0.47677  0.59773  0.76469  Biso   1.000  O
  C380     1.0000 0.52877  0.50073  0.80213  Biso   1.000  C
  C381     1.0000 0.48517  0.56043  0.81603  Biso   1.000  C
  C382     1.0000 0.56587  0.72913  0.70692  Biso   1.000  C
  C383     1.0000 0.79167  0.92773  0.76363  Biso   1.000  C
  C384     1.0000 0.72197  0.89663  0.73733  Biso   1.000  C
  C385     1.0000 0.43037  0.60943  0.76233  Biso   1.000  C
  C386     1.0000 0.55637  0.71973  0.68753  Biso   1.000  C
  C387     1.0000 0.55807  0.77183  0.71513  Biso   1.000  C
  C388     1.0000 0.38747  0.56733  0.74833  Biso   1.000  C
  C389     1.0000 0.45107  0.67033  0.75743  Biso   1.000  C
  H136     1.0000 0.56947  0.69683  0.68083  Biso   1.000  H
  C390     1.0000 0.52757  0.74193  0.67593  Biso   1.000  C
  C391     1.0000 0.52817  0.79473  0.70473  Biso   1.000  C
  H137     1.0000 0.57337  0.78633  0.72833  Biso   1.000  H
  H138     1.0000 0.51407  0.72713  0.66253  Biso   1.000  H
  C392     1.0000 0.51987  0.77903  0.68253  Biso   1.000  C
  H139     1.0000 0.55077  0.83613  0.70563  Biso   1.000  H
  H140     1.0000 0.50817  0.79913  0.67343  Biso   1.000  H
  I15      1.0000 0.07780  0.96828  0.18659  Biso   1.000  I
  Cu15     1.0000 0.06512  0.04520  0.16513  Biso   1.000  Cu
  N15      1.0000 0.14143  0.09847  0.15061  Biso   1.000  N
  C393     1.0000 0.17643  0.07917  0.14407  Biso   1.000  C
  C394     1.0000 0.15193  0.14927  0.14416  Biso   1.000  C
  C395     1.0000 0.94893  0.99857  0.23789  Biso   1.000  C
  H141     1.0000 0.17013  0.04287  0.14887  Biso   1.000  H
  C396     1.0000 0.22023  0.10957  0.13089  Biso   1.000  C
  C397     1.0000 0.19523  0.18237  0.13073  Biso   1.000  C
  H142     1.0000 0.12833  0.16387  0.14907  Biso   1.000  H
  H143     1.0000 0.91583  0.96377  0.23317  Biso   1.000  H
  C398     1.0000 0.23083  0.16227  0.12369  Biso   1.000  C
  C399     1.0000 0.25763  0.08547  0.12356  Biso   1.000  C
  H144     1.0000 0.20093  0.21877  0.12627  Biso   1.000  H
  H145     1.0000 0.26123  0.18397  0.11427  Biso   1.000  H
  O155     1.0000 0.25293  0.04277  0.13392  Biso   1.000  O
  O156     1.0000 0.29002  0.10827  0.10869  Biso   1.000  O
  Ti43     1.0000 0.29837  0.99883  0.13033  Biso   1.000  Ti
  Ti44     1.0000 0.35027  0.08714  0.09394  Biso   1.000  Ti
  O157     1.0000 0.36533  0.07387  0.12345  Biso   1.000  O
  O158     1.0000 0.30073  0.99637  0.15715  Biso   1.000  O
  O159     1.0000 0.22453  0.92867  0.12371  Biso   1.000  O
  O160     1.0000 0.28607  0.00656  0.10077  Biso   1.000  O
  O161     1.0000 0.34253  0.95987  0.12664  Biso   1.000  O
  O162     1.0000 0.30984  0.08044  0.06824  Biso   1.000  O
  O163     1.0000 0.39599  0.16363  0.09248  Biso   1.000  O
  C400     1.0000 0.41613  0.11247  0.13561  Biso   1.000  C
  C401     1.0000 0.29893  0.00347  0.17935  Biso   1.000  C
  Ti45     1.0000 0.21407  0.94448  0.09386  Biso   1.000  Ti
  C402     1.0000 0.18763  0.87977  0.13604  Biso   1.000  C
  P15      1.0000 0.26582  0.03160  0.05497  Biso   1.000  P
  C403     1.0000 0.40263  0.21767  0.08977  Biso   1.000  C
  C404     1.0000 0.45613  0.09577  0.13697  Biso   1.000  C
  C405     1.0000 0.40743  0.15767  0.14517  Biso   1.000  C
  C406     1.0000 0.32663  0.97227  0.18847  Biso   1.000  C
  C407     1.0000 0.27403  0.02827  0.18697  Biso   1.000  C
  O164     1.0000 0.21915  0.98249  0.06761  Biso   1.000  O
  O165     1.0000 0.14343  0.93107  0.09803  Biso   1.000  O
  C408     1.0000 0.19543  0.83407  0.13547  Biso   1.000  C
  C409     1.0000 0.15183  0.89377  0.14937  Biso   1.000  C
  C410     1.0000 0.23253  0.06247  0.04026  Biso   1.000  C
  C411     1.0000 0.45833  0.26107  0.09697  Biso   1.000  C
  C412     1.0000 0.38863  0.22997  0.07067  Biso   1.000  C
  C413     1.0000 0.09703  0.94277  0.09567  Biso   1.000  C
  C414     1.0000 0.22303  0.05307  0.02087  Biso   1.000  C
  C415     1.0000 0.22473  0.10517  0.04847  Biso   1.000  C
  C416     1.0000 0.05413  0.90067  0.08167  Biso   1.000  C
  C417     1.0000 0.11773  0.00367  0.09077  Biso   1.000  C
  H146     1.0000 0.23613  0.03017  0.01417  Biso   1.000  H
  C418     1.0000 0.19423  0.07527  0.00927  Biso   1.000  C
  C419     1.0000 0.19483  0.12807  0.03807  Biso   1.000  C
  H147     1.0000 0.24003  0.11967  0.06167  Biso   1.000  H
  H148     1.0000 0.18073  0.06047  0.99587  Biso   1.000  H
  C420     1.0000 0.18653  0.11237  0.01587  Biso   1.000  C
  H149     1.0000 0.21743  0.16947  0.03897  Biso   1.000  H
  H150     1.0000 0.17483  0.13247  0.00677  Biso   1.000  H
  I16      1.0000 0.55714  0.25553  0.51992  Biso   1.000  I
  Cu16     1.0000 0.64674  0.26821  0.49846  Biso   1.000  Cu
  N16      1.0000 0.62370  0.19190  0.48394  Biso   1.000  N
  C421     1.0000 0.56940  0.15690  0.47740  Biso   1.000  C
  C422     1.0000 0.66400  0.18140  0.47749  Biso   1.000  C
  C423     1.0000 0.71630  0.38440  0.57122  Biso   1.000  C
  H151     1.0000 0.53940  0.16320  0.48220  Biso   1.000  H
  C424     1.0000 0.55600  0.11310  0.46422  Biso   1.000  C
  C425     1.0000 0.65380  0.13810  0.46406  Biso   1.000  C
  H152     1.0000 0.70220  0.20500  0.48240  Biso   1.000  H
  H153     1.0000 0.71460  0.41750  0.56650  Biso   1.000  H
  C426     1.0000 0.59810  0.10250  0.45702  Biso   1.000  C
  C427     1.0000 0.49450  0.07570  0.45689  Biso   1.000  C
  H154     1.0000 0.68450  0.13240  0.45960  Biso   1.000  H
  H155     1.0000 0.58940  0.07210  0.44760  Biso   1.000  H
  O166     1.0000 0.45650  0.08040  0.46725  Biso   1.000  O
  O167     1.0000 0.48491  0.04331  0.44202  Biso   1.000  O
  Ti46     1.0000 0.36712  0.03496  0.46367  Biso   1.000  Ti
  Ti47     1.0000 0.40353  0.98306  0.42727  Biso   1.000  Ti
  O168     1.0000 0.37520  0.96800  0.45678  Biso   1.000  O
  O169     1.0000 0.36230  0.03260  0.49048  Biso   1.000  O
  O170     1.0000 0.37080  0.10880  0.45704  Biso   1.000  O
  O171     1.0000 0.38715  0.04726  0.43410  Biso   1.000  O
  O172     1.0000 0.28400  0.99080  0.45997  Biso   1.000  O
  O173     1.0000 0.43726  0.02349  0.40157  Biso   1.000  O
  O174     1.0000 0.43430  0.93734  0.42581  Biso   1.000  O
  C428     1.0000 0.36300  0.91720  0.46894  Biso   1.000  C
  C429     1.0000 0.37120  0.03440  0.51268  Biso   1.000  C
  Ti48     1.0000 0.39707  0.11926  0.42720  Biso   1.000  Ti
  C430     1.0000 0.35880  0.14570  0.46937  Biso   1.000  C
  P16      1.0000 0.43244  0.06751  0.38830  Biso   1.000  P
  C431     1.0000 0.48170  0.93070  0.42310  Biso   1.000  C
  C432     1.0000 0.30630  0.87720  0.47030  Biso   1.000  C
  C433     1.0000 0.41690  0.92590  0.47850  Biso   1.000  C
  C434     1.0000 0.31230  0.00670  0.52180  Biso   1.000  C
  C435     1.0000 0.42090  0.05930  0.52030  Biso   1.000  C
  O175     1.0000 0.43000  0.11418  0.40094  Biso   1.000  O
  O176     1.0000 0.45430  0.18990  0.43136  Biso   1.000  O
  C436     1.0000 0.30530  0.13790  0.46880  Biso   1.000  C
  C437     1.0000 0.40860  0.18150  0.48270  Biso   1.000  C
  C438     1.0000 0.49660  0.10080  0.37359  Biso   1.000  C
  C439     1.0000 0.46940  0.87500  0.43030  Biso   1.000  C
  C440     1.0000 0.50800  0.94470  0.40400  Biso   1.000  C
  C441     1.0000 0.51240  0.23630  0.42900  Biso   1.000  C
  C442     1.0000 0.49670  0.11030  0.35420  Biso   1.000  C
  C443     1.0000 0.54710  0.10860  0.38180  Biso   1.000  C
  C444     1.0000 0.51320  0.27920  0.41500  Biso   1.000  C
  C445     1.0000 0.55260  0.21560  0.42410  Biso   1.000  C
  H156     1.0000 0.46070  0.09720  0.34750  Biso   1.000  H
  C446     1.0000 0.54770  0.13910  0.34260  Biso   1.000  C
  C447     1.0000 0.59990  0.13850  0.37140  Biso   1.000  C
  H157     1.0000 0.54630  0.09330  0.39500  Biso   1.000  H
  H158     1.0000 0.54640  0.15260  0.32920  Biso   1.000  H
  C448     1.0000 0.59250  0.14680  0.34920  Biso   1.000  C
  H159     1.0000 0.61870  0.11590  0.37230  Biso   1.000  H
  H160     1.0000 0.62430  0.15850  0.34010  Biso   1.000  H
  I17      1.0000 0.22381  0.58887  0.85326  Biso   1.000  I
  Cu17     1.0000 0.31341  0.60154  0.83180  Biso   1.000  Cu
  N17      1.0000 0.29037  0.52523  0.81727  Biso   1.000  N
  C449     1.0000 0.23607  0.49023  0.81073  Biso   1.000  C
  C450     1.0000 0.33067  0.51473  0.81082  Biso   1.000  C
  C451     1.0000 0.38297  0.71773  0.90455  Biso   1.000  C
  H161     1.0000 0.20607  0.49653  0.81553  Biso   1.000  H
  C452     1.0000 0.22267  0.44643  0.79755  Biso   1.000  C
  C453     1.0000 0.32047  0.47143  0.79739  Biso   1.000  C
  H162     1.0000 0.36887  0.53833  0.81573  Biso   1.000  H
  H163     1.0000 0.38127  0.75083  0.89983  Biso   1.000  H
  C454     1.0000 0.26477  0.43583  0.79035  Biso   1.000  C
  C455     1.0000 0.16117  0.40903  0.79022  Biso   1.000  C
  H164     1.0000 0.35117  0.46573  0.79293  Biso   1.000  H
  H165     1.0000 0.25607  0.40543  0.78093  Biso   1.000  H
  O177     1.0000 0.12317  0.41373  0.80058  Biso   1.000  O
  O178     1.0000 0.15158  0.37664  0.77535  Biso   1.000  O
  Ti49     1.0000 0.03379  0.36829  0.79700  Biso   1.000  Ti
  Ti50     1.0000 0.07020  0.31639  0.76060  Biso   1.000  Ti
  O179     1.0000 0.04187  0.30133  0.79011  Biso   1.000  O
  O180     1.0000 0.02897  0.36593  0.82381  Biso   1.000  O
  O181     1.0000 0.03747  0.44213  0.79037  Biso   1.000  O
  O182     1.0000 0.05382  0.38059  0.76743  Biso   1.000  O
  O183     1.0000 0.95067  0.32413  0.79330  Biso   1.000  O
  O184     1.0000 0.10393  0.35682  0.73490  Biso   1.000  O
  O185     1.0000 0.10097  0.27067  0.75914  Biso   1.000  O
  C456     1.0000 0.02967  0.25053  0.80227  Biso   1.000  C
  C457     1.0000 0.03787  0.36773  0.84601  Biso   1.000  C
  Ti51     1.0000 0.06374  0.45259  0.76053  Biso   1.000  Ti
  C458     1.0000 0.02547  0.47903  0.80270  Biso   1.000  C
  P17      1.0000 0.09911  0.40084  0.72163  Biso   1.000  P
  C459     1.0000 0.14837  0.26403  0.75643  Biso   1.000  C
  C460     1.0000 0.97297  0.21053  0.80363  Biso   1.000  C
  C461     1.0000 0.08357  0.25923  0.81183  Biso   1.000  C
  C462     1.0000 0.97897  0.34003  0.85513  Biso   1.000  C
  C463     1.0000 0.08757  0.39263  0.85363  Biso   1.000  C
  O186     1.0000 0.09667  0.44751  0.73427  Biso   1.000  O
  O187     1.0000 0.12097  0.52323  0.76469  Biso   1.000  O
  C464     1.0000 0.97197  0.47123  0.80213  Biso   1.000  C
  C465     1.0000 0.07527  0.51483  0.81603  Biso   1.000  C
  C466     1.0000 0.16327  0.43413  0.70692  Biso   1.000  C
  C467     1.0000 0.13607  0.20833  0.76363  Biso   1.000  C
  C468     1.0000 0.17467  0.27803  0.73733  Biso   1.000  C
  C469     1.0000 0.17907  0.56963  0.76233  Biso   1.000  C
  C470     1.0000 0.16337  0.44363  0.68753  Biso   1.000  C
  C471     1.0000 0.21377  0.44193  0.71513  Biso   1.000  C
  C472     1.0000 0.17987  0.61253  0.74833  Biso   1.000  C
  C473     1.0000 0.21927  0.54893  0.75743  Biso   1.000  C
  H166     1.0000 0.12737  0.43053  0.68083  Biso   1.000  H
  C474     1.0000 0.21437  0.47243  0.67593  Biso   1.000  C
  C475     1.0000 0.26657  0.47183  0.70473  Biso   1.000  C
  H167     1.0000 0.21297  0.42663  0.72833  Biso   1.000  H
  H168     1.0000 0.21307  0.48593  0.66253  Biso   1.000  H
  C476     1.0000 0.25917  0.48013  0.68253  Biso   1.000  C
  H169     1.0000 0.28537  0.44923  0.70563  Biso   1.000  H
  H170     1.0000 0.29097  0.49183  0.67343  Biso   1.000  H
  I18      1.0000 0.89048  0.92220  0.18659  Biso   1.000  I
  Cu18     1.0000 0.98007  0.93488  0.16513  Biso   1.000  Cu
  N18      1.0000 0.95703  0.85857  0.15061  Biso   1.000  N
  C477     1.0000 0.90273  0.82357  0.14407  Biso   1.000  C
  C478     1.0000 0.99733  0.84807  0.14416  Biso   1.000  C
  C479     1.0000 0.04963  0.05107  0.23789  Biso   1.000  C
  H171     1.0000 0.87273  0.82987  0.14887  Biso   1.000  H
  C480     1.0000 0.88933  0.77977  0.13089  Biso   1.000  C
  C481     1.0000 0.98713  0.80477  0.13073  Biso   1.000  C
  H172     1.0000 0.03553  0.87167  0.14907  Biso   1.000  H
  H173     1.0000 0.04793  0.08417  0.23317  Biso   1.000  H
  C482     1.0000 0.93143  0.76917  0.12369  Biso   1.000  C
  C483     1.0000 0.82783  0.74237  0.12356  Biso   1.000  C
  H174     1.0000 0.01783  0.79907  0.12627  Biso   1.000  H
  H175     1.0000 0.92273  0.73877  0.11427  Biso   1.000  H
  O188     1.0000 0.78983  0.74707  0.13392  Biso   1.000  O
  O189     1.0000 0.81824  0.70998  0.10869  Biso   1.000  O
  Ti52     1.0000 0.70045  0.70163  0.13033  Biso   1.000  Ti
  Ti53     1.0000 0.73686  0.64973  0.09394  Biso   1.000  Ti
  O190     1.0000 0.70853  0.63467  0.12345  Biso   1.000  O
  O191     1.0000 0.69563  0.69927  0.15715  Biso   1.000  O
  O192     1.0000 0.70413  0.77547  0.12371  Biso   1.000  O
  O193     1.0000 0.72048  0.71393  0.10077  Biso   1.000  O
  O194     1.0000 0.61733  0.65747  0.12664  Biso   1.000  O
  O195     1.0000 0.77059  0.69016  0.06824  Biso   1.000  O
  O196     1.0000 0.76763  0.60401  0.09248  Biso   1.000  O
  C484     1.0000 0.69633  0.58387  0.13561  Biso   1.000  C
  C485     1.0000 0.70453  0.70107  0.17935  Biso   1.000  C
  Ti54     1.0000 0.73040  0.78593  0.09386  Biso   1.000  Ti
  C486     1.0000 0.69213  0.81237  0.13604  Biso   1.000  C
  P18      1.0000 0.76577  0.73418  0.05497  Biso   1.000  P
  C487     1.0000 0.81503  0.59737  0.08977  Biso   1.000  C
  C488     1.0000 0.63963  0.54387  0.13697  Biso   1.000  C
  C489     1.0000 0.75023  0.59257  0.14517  Biso   1.000  C
  C490     1.0000 0.64563  0.67337  0.18847  Biso   1.000  C
  C491     1.0000 0.75423  0.72597  0.18697  Biso   1.000  C
  O197     1.0000 0.76333  0.78085  0.06761  Biso   1.000  O
  O198     1.0000 0.78763  0.85657  0.09803  Biso   1.000  O
  C492     1.0000 0.63863  0.80457  0.13547  Biso   1.000  C
  C493     1.0000 0.74193  0.84817  0.14937  Biso   1.000  C
  C494     1.0000 0.82993  0.76747  0.04026  Biso   1.000  C
  C495     1.0000 0.80273  0.54167  0.09697  Biso   1.000  C
  C496     1.0000 0.84133  0.61137  0.07067  Biso   1.000  C
  C497     1.0000 0.84573  0.90297  0.09567  Biso   1.000  C
  C498     1.0000 0.83003  0.77697  0.02087  Biso   1.000  C
  C499     1.0000 0.88043  0.77527  0.04847  Biso   1.000  C
  C500     1.0000 0.84653  0.94587  0.08167  Biso   1.000  C
  C501     1.0000 0.88593  0.88227  0.09077  Biso   1.000  C
  H176     1.0000 0.79403  0.76387  0.01417  Biso   1.000  H
  C502     1.0000 0.88103  0.80577  0.00927  Biso   1.000  C
  C503     1.0000 0.93323  0.80517  0.03807  Biso   1.000  C
  H177     1.0000 0.87963  0.75997  0.06167  Biso   1.000  H
  H178     1.0000 0.87973  0.81927  0.99587  Biso   1.000  H
  C504     1.0000 0.92583  0.81347  0.01587  Biso   1.000  C
  H179     1.0000 0.95203  0.78257  0.03897  Biso   1.000  H
  H180     1.0000 0.95763  0.82517  0.00677  Biso   1.000  H
  Cu19     1.0000 0.33333  0.66667  0.96856  Biso   1.000  Cu
  I19      1.0000 0.33333  0.66667  0.03584  Biso   1.000  I
  N19      1.0000 0.33333  0.66667  0.93647  Biso   1.000  N
  Cu20     1.0000 0.00000  0.00000  0.30189  Biso   1.000  Cu
  I20      1.0000 0.00000  0.00000  0.36917  Biso   1.000  I
  N20      1.0000 0.00000  0.00000  0.26980  Biso   1.000  N
  Cu21     1.0000 0.66667  0.33333  0.63523  Biso   1.000  Cu
  I21      1.0000 0.66667  0.33333  0.70250  Biso   1.000  I
  N21      1.0000 0.66667  0.33333  0.60314  Biso   1.000  N
  Cu22     1.0000 0.66667  0.33333  0.53144  Biso   1.000  Cu
  I22      1.0000 0.66667  0.33333  0.46416  Biso   1.000  I
  N22      1.0000 0.66667  0.33333  0.56353  Biso   1.000  N
  Cu23     1.0000 0.33333  0.66667  0.86477  Biso   1.000  Cu
  I23      1.0000 0.33333  0.66667  0.79750  Biso   1.000  I
  N23      1.0000 0.33333  0.66667  0.89686  Biso   1.000  N
  Cu24     1.0000 0.00000  0.00000  0.19811  Biso   1.000  Cu
  I24      1.0000 0.00000  0.00000  0.13083  Biso   1.000  I
  N24      1.0000 0.00000  0.00000  0.23020  Biso   1.000  N
  O199     1.0000 0.66667  0.60238  0.08333  Biso   1.000  O
  O200     1.0000 0.66667  0.78358  0.08333  Biso   1.000  O
  O201     1.0000 0.39762  0.06428  0.08333  Biso   1.000  O
  O202     1.0000 0.21642  0.88308  0.08333  Biso   1.000  O
  O203     1.0000 0.93572  0.33333  0.08333  Biso   1.000  O
  O204     1.0000 0.11692  0.33333  0.08333  Biso   1.000  O
  O205     1.0000 0.60238  0.66667  0.41667  Biso   1.000  O
  O206     1.0000 0.78358  0.66667  0.41667  Biso   1.000  O
  O207     1.0000 0.26905  0.00000  0.75000  Biso   1.000  O
  O208     1.0000 0.45025  0.00000  0.75000  Biso   1.000  O
  O209     1.0000 0.06428  0.39762  0.41667  Biso   1.000  O
  O210     1.0000 0.88308  0.21642  0.41667  Biso   1.000  O
  O211     1.0000 0.73095  0.73095  0.75000  Biso   1.000  O
  O212     1.0000 0.54975  0.54975  0.75000  Biso   1.000  O
  O213     1.0000 0.33333  0.93572  0.41667  Biso   1.000  O
  O214     1.0000 0.33333  0.11692  0.41667  Biso   1.000  O
  O215     1.0000 0.00000  0.26905  0.75000  Biso   1.000  O
  O216     1.0000 0.00000  0.45025  0.75000  Biso   1.000  O
  I25      1.0000 0.55714  0.30161  0.01992  Biso   1.000  I
  Cu25     1.0000 0.64674  0.37853  0.99847  Biso   1.000  Cu
  N25      1.0000 0.62370  0.43180  0.98394  Biso   1.000  N
  C505     1.0000 0.56940  0.41250  0.97740  Biso   1.000  C
  C506     1.0000 0.66400  0.48260  0.97749  Biso   1.000  C
  C507     1.0000 0.71630  0.33190  0.07122  Biso   1.000  C
  H181     1.0000 0.53940  0.37620  0.98220  Biso   1.000  H
  C508     1.0000 0.55600  0.44290  0.96422  Biso   1.000  C
  C509     1.0000 0.65380  0.51570  0.96406  Biso   1.000  C
  H182     1.0000 0.70220  0.49720  0.98240  Biso   1.000  H
  H183     1.0000 0.71460  0.29710  0.06650  Biso   1.000  H
  C510     1.0000 0.59810  0.49560  0.95702  Biso   1.000  C
  C511     1.0000 0.49450  0.41880  0.95689  Biso   1.000  C
  H184     1.0000 0.68450  0.55210  0.95960  Biso   1.000  H
  H185     1.0000 0.58940  0.51730  0.94760  Biso   1.000  H
  O217     1.0000 0.45650  0.37610  0.96725  Biso   1.000  O
  O218     1.0000 0.48491  0.44160  0.94202  Biso   1.000  O
  Ti55     1.0000 0.36712  0.33216  0.96367  Biso   1.000  Ti
  Ti56     1.0000 0.40353  0.42047  0.92727  Biso   1.000  Ti
  O219     1.0000 0.37520  0.40720  0.95678  Biso   1.000  O
  O220     1.0000 0.36230  0.32970  0.99048  Biso   1.000  O
  O221     1.0000 0.37080  0.26200  0.95704  Biso   1.000  O
  O222     1.0000 0.38715  0.33989  0.93410  Biso   1.000  O
  O223     1.0000 0.28400  0.29320  0.95997  Biso   1.000  O
  O224     1.0000 0.43726  0.41377  0.90157  Biso   1.000  O
  O225     1.0000 0.43430  0.49696  0.92581  Biso   1.000  O
  C512     1.0000 0.36300  0.44580  0.96894  Biso   1.000  C
  C513     1.0000 0.37120  0.33680  0.01268  Biso   1.000  C
  Ti57     1.0000 0.39707  0.27781  0.92720  Biso   1.000  Ti
  C514     1.0000 0.35880  0.21310  0.96937  Biso   1.000  C
  P19      1.0000 0.43244  0.36493  0.88830  Biso   1.000  P
  C515     1.0000 0.48170  0.55100  0.92310  Biso   1.000  C
  C516     1.0000 0.30630  0.42910  0.97030  Biso   1.000  C
  C517     1.0000 0.41690  0.49100  0.97850  Biso   1.000  C
  C518     1.0000 0.31230  0.30560  0.02180  Biso   1.000  C
  C519     1.0000 0.42090  0.36160  0.02030  Biso   1.000  C
  O226     1.0000 0.43000  0.31582  0.90094  Biso   1.000  O
  O227     1.0000 0.45430  0.26440  0.93136  Biso   1.000  O
  C520     1.0000 0.30530  0.16740  0.96880  Biso   1.000  C
  C521     1.0000 0.40860  0.22710  0.98270  Biso   1.000  C
  C522     1.0000 0.49660  0.39580  0.87359  Biso   1.000  C
  C523     1.0000 0.46940  0.59440  0.93030  Biso   1.000  C
  C524     1.0000 0.50800  0.56330  0.90400  Biso   1.000  C
  C525     1.0000 0.51240  0.27610  0.92900  Biso   1.000  C
  C526     1.0000 0.49670  0.38640  0.85420  Biso   1.000  C
  C527     1.0000 0.54710  0.43850  0.88180  Biso   1.000  C
  C528     1.0000 0.51320  0.23400  0.91500  Biso   1.000  C
  C529     1.0000 0.55260  0.33700  0.92410  Biso   1.000  C
  H186     1.0000 0.46070  0.36350  0.84750  Biso   1.000  H
  C530     1.0000 0.54770  0.40860  0.84260  Biso   1.000  C
  C531     1.0000 0.59990  0.46140  0.87140  Biso   1.000  C
  H187     1.0000 0.54630  0.45300  0.89500  Biso   1.000  H
  H188     1.0000 0.54640  0.39380  0.82920  Biso   1.000  H
  C532     1.0000 0.59250  0.44570  0.84920  Biso   1.000  C
  H189     1.0000 0.61870  0.50280  0.87230  Biso   1.000  H
  H190     1.0000 0.62430  0.46580  0.84010  Biso   1.000  H
  I26      1.0000 0.22381  0.63494  0.35326  Biso   1.000  I
  Cu26     1.0000 0.31341  0.71186  0.33180  Biso   1.000  Cu
  N26      1.0000 0.29037  0.76513  0.31727  Biso   1.000  N
  C533     1.0000 0.23607  0.74583  0.31073  Biso   1.000  C
  C534     1.0000 0.33067  0.81593  0.31082  Biso   1.000  C
  C535     1.0000 0.38297  0.66523  0.40455  Biso   1.000  C
  H191     1.0000 0.20607  0.70953  0.31553  Biso   1.000  H
  C536     1.0000 0.22267  0.77623  0.29755  Biso   1.000  C
  C537     1.0000 0.32047  0.84903  0.29739  Biso   1.000  C
  H192     1.0000 0.36887  0.83053  0.31573  Biso   1.000  H
  H193     1.0000 0.38127  0.63043  0.39983  Biso   1.000  H
  C538     1.0000 0.26477  0.82893  0.29035  Biso   1.000  C
  C539     1.0000 0.16117  0.75213  0.29022  Biso   1.000  C
  H194     1.0000 0.35117  0.88543  0.29293  Biso   1.000  H
  H195     1.0000 0.25607  0.85063  0.28093  Biso   1.000  H
  O228     1.0000 0.12317  0.70943  0.30058  Biso   1.000  O
  O229     1.0000 0.15158  0.77493  0.27535  Biso   1.000  O
  Ti58     1.0000 0.03379  0.66549  0.29700  Biso   1.000  Ti
  Ti59     1.0000 0.07020  0.75380  0.26060  Biso   1.000  Ti
  O230     1.0000 0.04187  0.74053  0.29011  Biso   1.000  O
  O231     1.0000 0.02897  0.66303  0.32381  Biso   1.000  O
  O232     1.0000 0.03747  0.59533  0.29037  Biso   1.000  O
  O233     1.0000 0.05382  0.67322  0.26743  Biso   1.000  O
  O234     1.0000 0.95067  0.62653  0.29330  Biso   1.000  O
  O235     1.0000 0.10393  0.74710  0.23490  Biso   1.000  O
  O236     1.0000 0.10097  0.83029  0.25914  Biso   1.000  O
  C540     1.0000 0.02967  0.77913  0.30227  Biso   1.000  C
  C541     1.0000 0.03787  0.67013  0.34601  Biso   1.000  C
  Ti60     1.0000 0.06374  0.61114  0.26053  Biso   1.000  Ti
  C542     1.0000 0.02547  0.54643  0.30270  Biso   1.000  C
  P20      1.0000 0.09911  0.69826  0.22163  Biso   1.000  P
  C543     1.0000 0.14837  0.88433  0.25643  Biso   1.000  C
  C544     1.0000 0.97297  0.76243  0.30363  Biso   1.000  C
  C545     1.0000 0.08357  0.82433  0.31183  Biso   1.000  C
  C546     1.0000 0.97897  0.63893  0.35513  Biso   1.000  C
  C547     1.0000 0.08757  0.69493  0.35363  Biso   1.000  C
  O237     1.0000 0.09667  0.64915  0.23427  Biso   1.000  O
  O238     1.0000 0.12097  0.59773  0.26469  Biso   1.000  O
  C548     1.0000 0.97197  0.50073  0.30213  Biso   1.000  C
  C549     1.0000 0.07527  0.56043  0.31603  Biso   1.000  C
  C550     1.0000 0.16327  0.72913  0.20692  Biso   1.000  C
  C551     1.0000 0.13607  0.92773  0.26363  Biso   1.000  C
  C552     1.0000 0.17467  0.89663  0.23733  Biso   1.000  C
  C553     1.0000 0.17907  0.60943  0.26233  Biso   1.000  C
  C554     1.0000 0.16337  0.71973  0.18753  Biso   1.000  C
  C555     1.0000 0.21377  0.77183  0.21513  Biso   1.000  C
  C556     1.0000 0.17987  0.56733  0.24833  Biso   1.000  C
  C557     1.0000 0.21927  0.67033  0.25743  Biso   1.000  C
  H196     1.0000 0.12737  0.69683  0.18083  Biso   1.000  H
  C558     1.0000 0.21437  0.74193  0.17593  Biso   1.000  C
  C559     1.0000 0.26657  0.79473  0.20473  Biso   1.000  C
  H197     1.0000 0.21297  0.78633  0.22833  Biso   1.000  H
  H198     1.0000 0.21307  0.72713  0.16253  Biso   1.000  H
  C560     1.0000 0.25917  0.77903  0.18253  Biso   1.000  C
  H199     1.0000 0.28537  0.83613  0.20563  Biso   1.000  H
  H200     1.0000 0.29097  0.79913  0.17343  Biso   1.000  H
  I27      1.0000 0.89048  0.96828  0.68659  Biso   1.000  I
  Cu27     1.0000 0.98007  0.04520  0.66513  Biso   1.000  Cu
  N27      1.0000 0.95703  0.09847  0.65061  Biso   1.000  N
  C561     1.0000 0.90273  0.07917  0.64407  Biso   1.000  C
  C562     1.0000 0.99733  0.14927  0.64416  Biso   1.000  C
  C563     1.0000 0.04963  0.99857  0.73789  Biso   1.000  C
  H201     1.0000 0.87273  0.04287  0.64887  Biso   1.000  H
  C564     1.0000 0.88933  0.10957  0.63089  Biso   1.000  C
  C565     1.0000 0.98713  0.18237  0.63073  Biso   1.000  C
  H202     1.0000 0.03553  0.16387  0.64907  Biso   1.000  H
  H203     1.0000 0.04793  0.96377  0.73317  Biso   1.000  H
  C566     1.0000 0.93143  0.16227  0.62369  Biso   1.000  C
  C567     1.0000 0.82783  0.08547  0.62356  Biso   1.000  C
  H204     1.0000 0.01783  0.21877  0.62627  Biso   1.000  H
  H205     1.0000 0.92273  0.18397  0.61427  Biso   1.000  H
  O239     1.0000 0.78983  0.04277  0.63392  Biso   1.000  O
  O240     1.0000 0.81824  0.10827  0.60869  Biso   1.000  O
  Ti61     1.0000 0.70045  0.99883  0.63033  Biso   1.000  Ti
  Ti62     1.0000 0.73686  0.08714  0.59394  Biso   1.000  Ti
  O241     1.0000 0.70853  0.07387  0.62345  Biso   1.000  O
  O242     1.0000 0.69563  0.99637  0.65715  Biso   1.000  O
  O243     1.0000 0.70413  0.92867  0.62371  Biso   1.000  O
  O244     1.0000 0.72048  0.00656  0.60077  Biso   1.000  O
  O245     1.0000 0.61733  0.95987  0.62664  Biso   1.000  O
  O246     1.0000 0.77059  0.08044  0.56824  Biso   1.000  O
  O247     1.0000 0.76763  0.16363  0.59248  Biso   1.000  O
  C568     1.0000 0.69633  0.11247  0.63561  Biso   1.000  C
  C569     1.0000 0.70453  0.00347  0.67935  Biso   1.000  C
  Ti63     1.0000 0.73040  0.94448  0.59386  Biso   1.000  Ti
  C570     1.0000 0.69213  0.87977  0.63604  Biso   1.000  C
  P21      1.0000 0.76577  0.03160  0.55497  Biso   1.000  P
  C571     1.0000 0.81503  0.21767  0.58977  Biso   1.000  C
  C572     1.0000 0.63963  0.09577  0.63697  Biso   1.000  C
  C573     1.0000 0.75023  0.15767  0.64517  Biso   1.000  C
  C574     1.0000 0.64563  0.97227  0.68847  Biso   1.000  C
  C575     1.0000 0.75423  0.02827  0.68697  Biso   1.000  C
  O248     1.0000 0.76333  0.98249  0.56761  Biso   1.000  O
  O249     1.0000 0.78763  0.93107  0.59803  Biso   1.000  O
  C576     1.0000 0.63863  0.83407  0.63547  Biso   1.000  C
  C577     1.0000 0.74193  0.89377  0.64937  Biso   1.000  C
  C578     1.0000 0.82993  0.06247  0.54026  Biso   1.000  C
  C579     1.0000 0.80273  0.26107  0.59697  Biso   1.000  C
  C580     1.0000 0.84133  0.22997  0.57067  Biso   1.000  C
  C581     1.0000 0.84573  0.94277  0.59567  Biso   1.000  C
  C582     1.0000 0.83003  0.05307  0.52087  Biso   1.000  C
  C583     1.0000 0.88043  0.10517  0.54847  Biso   1.000  C
  C584     1.0000 0.84653  0.90067  0.58167  Biso   1.000  C
  C585     1.0000 0.88593  0.00367  0.59077  Biso   1.000  C
  H206     1.0000 0.79403  0.03017  0.51417  Biso   1.000  H
  C586     1.0000 0.88103  0.07527  0.50927  Biso   1.000  C
  C587     1.0000 0.93323  0.12807  0.53807  Biso   1.000  C
  H207     1.0000 0.87963  0.11967  0.56167  Biso   1.000  H
  H208     1.0000 0.87973  0.06047  0.49587  Biso   1.000  H
  C588     1.0000 0.92583  0.11237  0.51587  Biso   1.000  C
  H209     1.0000 0.95203  0.16947  0.53897  Biso   1.000  H
  H210     1.0000 0.95763  0.13247  0.50677  Biso   1.000  H
  I28      1.0000 0.69839  0.25553  0.01992  Biso   1.000  I
  Cu28     1.0000 0.62147  0.26821  0.99847  Biso   1.000  Cu
  N28      1.0000 0.56820  0.19190  0.98394  Biso   1.000  N
  C589     1.0000 0.58750  0.15690  0.97740  Biso   1.000  C
  C590     1.0000 0.51740  0.18140  0.97749  Biso   1.000  C
  C591     1.0000 0.66810  0.38440  0.07122  Biso   1.000  C
  H211     1.0000 0.62380  0.16320  0.98220  Biso   1.000  H
  C592     1.0000 0.55710  0.11310  0.96422  Biso   1.000  C
  C593     1.0000 0.48430  0.13810  0.96406  Biso   1.000  C
  H212     1.0000 0.50280  0.20500  0.98240  Biso   1.000  H
  H213     1.0000 0.70290  0.41750  0.06650  Biso   1.000  H
  C594     1.0000 0.50440  0.10250  0.95702  Biso   1.000  C
  C595     1.0000 0.58120  0.07570  0.95689  Biso   1.000  C
  H214     1.0000 0.44790  0.13240  0.95960  Biso   1.000  H
  H215     1.0000 0.48270  0.07210  0.94760  Biso   1.000  H
  O250     1.0000 0.62390  0.08040  0.96725  Biso   1.000  O
  O251     1.0000 0.55840  0.04331  0.94202  Biso   1.000  O
  Ti64     1.0000 0.66784  0.03496  0.96367  Biso   1.000  Ti
  Ti65     1.0000 0.57953  0.98306  0.92727  Biso   1.000  Ti
  O252     1.0000 0.59280  0.96800  0.95678  Biso   1.000  O
  O253     1.0000 0.67030  0.03260  0.99048  Biso   1.000  O
  O254     1.0000 0.73800  0.10880  0.95704  Biso   1.000  O
  O255     1.0000 0.66011  0.04726  0.93410  Biso   1.000  O
  O256     1.0000 0.70680  0.99080  0.95997  Biso   1.000  O
  O257     1.0000 0.58623  0.02349  0.90157  Biso   1.000  O
  O258     1.0000 0.50304  0.93734  0.92581  Biso   1.000  O
  C596     1.0000 0.55420  0.91720  0.96894  Biso   1.000  C
  C597     1.0000 0.66320  0.03440  0.01268  Biso   1.000  C
  Ti66     1.0000 0.72219  0.11926  0.92720  Biso   1.000  Ti
  C598     1.0000 0.78690  0.14570  0.96937  Biso   1.000  C
  P22      1.0000 0.63507  0.06751  0.88830  Biso   1.000  P
  C599     1.0000 0.44900  0.93070  0.92310  Biso   1.000  C
  C600     1.0000 0.57090  0.87720  0.97030  Biso   1.000  C
  C601     1.0000 0.50900  0.92590  0.97850  Biso   1.000  C
  C602     1.0000 0.69440  0.00670  0.02180  Biso   1.000  C
  C603     1.0000 0.63840  0.05930  0.02030  Biso   1.000  C
  O259     1.0000 0.68418  0.11418  0.90094  Biso   1.000  O
  O260     1.0000 0.73560  0.18990  0.93136  Biso   1.000  O
  C604     1.0000 0.83260  0.13790  0.96880  Biso   1.000  C
  C605     1.0000 0.77290  0.18150  0.98270  Biso   1.000  C
  C606     1.0000 0.60420  0.10080  0.87359  Biso   1.000  C
  C607     1.0000 0.40560  0.87500  0.93030  Biso   1.000  C
  C608     1.0000 0.43670  0.94470  0.90400  Biso   1.000  C
  C609     1.0000 0.72390  0.23630  0.92900  Biso   1.000  C
  C610     1.0000 0.61360  0.11030  0.85420  Biso   1.000  C
  C611     1.0000 0.56150  0.10860  0.88180  Biso   1.000  C
  C612     1.0000 0.76600  0.27920  0.91500  Biso   1.000  C
  C613     1.0000 0.66300  0.21560  0.92410  Biso   1.000  C
  H216     1.0000 0.63650  0.09720  0.84750  Biso   1.000  H
  C614     1.0000 0.59140  0.13910  0.84260  Biso   1.000  C
  C615     1.0000 0.53860  0.13850  0.87140  Biso   1.000  C
  H217     1.0000 0.54700  0.09330  0.89500  Biso   1.000  H
  H218     1.0000 0.60620  0.15260  0.82920  Biso   1.000  H
  C616     1.0000 0.55430  0.14680  0.84920  Biso   1.000  C
  H219     1.0000 0.49720  0.11590  0.87230  Biso   1.000  H
  H220     1.0000 0.53420  0.15850  0.84010  Biso   1.000  H
  I29      1.0000 0.36506  0.58887  0.35326  Biso   1.000  I
  Cu29     1.0000 0.28814  0.60154  0.33180  Biso   1.000  Cu
  N29      1.0000 0.23487  0.52523  0.31727  Biso   1.000  N
  C617     1.0000 0.25417  0.49023  0.31073  Biso   1.000  C
  C618     1.0000 0.18407  0.51473  0.31082  Biso   1.000  C
  C619     1.0000 0.33477  0.71773  0.40455  Biso   1.000  C
  H221     1.0000 0.29047  0.49653  0.31553  Biso   1.000  H
  C620     1.0000 0.22377  0.44643  0.29755  Biso   1.000  C
  C621     1.0000 0.15097  0.47143  0.29739  Biso   1.000  C
  H222     1.0000 0.16947  0.53833  0.31573  Biso   1.000  H
  H223     1.0000 0.36957  0.75083  0.39983  Biso   1.000  H
  C622     1.0000 0.17107  0.43583  0.29035  Biso   1.000  C
  C623     1.0000 0.24787  0.40903  0.29022  Biso   1.000  C
  H224     1.0000 0.11457  0.46573  0.29293  Biso   1.000  H
  H225     1.0000 0.14937  0.40543  0.28093  Biso   1.000  H
  O261     1.0000 0.29057  0.41373  0.30058  Biso   1.000  O
  O262     1.0000 0.22507  0.37664  0.27535  Biso   1.000  O
  Ti67     1.0000 0.33451  0.36829  0.29700  Biso   1.000  Ti
  Ti68     1.0000 0.24620  0.31639  0.26060  Biso   1.000  Ti
  O263     1.0000 0.25947  0.30133  0.29011  Biso   1.000  O
  O264     1.0000 0.33697  0.36593  0.32381  Biso   1.000  O
  O265     1.0000 0.40467  0.44213  0.29037  Biso   1.000  O
  O266     1.0000 0.32678  0.38059  0.26743  Biso   1.000  O
  O267     1.0000 0.37347  0.32413  0.29330  Biso   1.000  O
  O268     1.0000 0.25290  0.35682  0.23490  Biso   1.000  O
  O269     1.0000 0.16971  0.27067  0.25914  Biso   1.000  O
  C624     1.0000 0.22087  0.25053  0.30227  Biso   1.000  C
  C625     1.0000 0.32987  0.36773  0.34601  Biso   1.000  C
  Ti69     1.0000 0.38886  0.45259  0.26053  Biso   1.000  Ti
  C626     1.0000 0.45357  0.47903  0.30270  Biso   1.000  C
  P23      1.0000 0.30174  0.40084  0.22163  Biso   1.000  P
  C627     1.0000 0.11567  0.26403  0.25643  Biso   1.000  C
  C628     1.0000 0.23757  0.21053  0.30363  Biso   1.000  C
  C629     1.0000 0.17567  0.25923  0.31183  Biso   1.000  C
  C630     1.0000 0.36107  0.34003  0.35513  Biso   1.000  C
  C631     1.0000 0.30507  0.39263  0.35363  Biso   1.000  C
  O270     1.0000 0.35085  0.44751  0.23427  Biso   1.000  O
  O271     1.0000 0.40227  0.52323  0.26469  Biso   1.000  O
  C632     1.0000 0.49927  0.47123  0.30213  Biso   1.000  C
  C633     1.0000 0.43957  0.51483  0.31603  Biso   1.000  C
  C634     1.0000 0.27087  0.43413  0.20692  Biso   1.000  C
  C635     1.0000 0.07227  0.20833  0.26363  Biso   1.000  C
  C636     1.0000 0.10337  0.27803  0.23733  Biso   1.000  C
  C637     1.0000 0.39057  0.56963  0.26233  Biso   1.000  C
  C638     1.0000 0.28027  0.44363  0.18753  Biso   1.000  C
  C639     1.0000 0.22817  0.44193  0.21513  Biso   1.000  C
  C640     1.0000 0.43267  0.61253  0.24833  Biso   1.000  C
  C641     1.0000 0.32967  0.54893  0.25743  Biso   1.000  C
  H226     1.0000 0.30317  0.43053  0.18083  Biso   1.000  H
  C642     1.0000 0.25807  0.47243  0.17593  Biso   1.000  C
  C643     1.0000 0.20527  0.47183  0.20473  Biso   1.000  C
  H227     1.0000 0.21367  0.42663  0.22833  Biso   1.000  H
  H228     1.0000 0.27287  0.48593  0.16253  Biso   1.000  H
  C644     1.0000 0.22097  0.48013  0.18253  Biso   1.000  C
  H229     1.0000 0.16387  0.44923  0.20563  Biso   1.000  H
  H230     1.0000 0.20087  0.49183  0.17343  Biso   1.000  H
  I30      1.0000 0.03172  0.92220  0.68659  Biso   1.000  I
  Cu30     1.0000 0.95480  0.93488  0.66513  Biso   1.000  Cu
  N30      1.0000 0.90153  0.85857  0.65061  Biso   1.000  N
  C645     1.0000 0.92083  0.82357  0.64407  Biso   1.000  C
  C646     1.0000 0.85073  0.84807  0.64416  Biso   1.000  C
  C647     1.0000 0.00143  0.05107  0.73789  Biso   1.000  C
  H231     1.0000 0.95713  0.82987  0.64887  Biso   1.000  H
  C648     1.0000 0.89043  0.77977  0.63089  Biso   1.000  C
  C649     1.0000 0.81763  0.80477  0.63073  Biso   1.000  C
  H232     1.0000 0.83613  0.87167  0.64907  Biso   1.000  H
  H233     1.0000 0.03623  0.08417  0.73317  Biso   1.000  H
  C650     1.0000 0.83773  0.76917  0.62369  Biso   1.000  C
  C651     1.0000 0.91453  0.74237  0.62356  Biso   1.000  C
  H234     1.0000 0.78123  0.79907  0.62627  Biso   1.000  H
  H235     1.0000 0.81603  0.73877  0.61427  Biso   1.000  H
  O272     1.0000 0.95723  0.74707  0.63392  Biso   1.000  O
  O273     1.0000 0.89173  0.70998  0.60869  Biso   1.000  O
  Ti70     1.0000 0.00117  0.70163  0.63033  Biso   1.000  Ti
  Ti71     1.0000 0.91286  0.64973  0.59394  Biso   1.000  Ti
  O274     1.0000 0.92613  0.63467  0.62345  Biso   1.000  O
  O275     1.0000 0.00363  0.69927  0.65715  Biso   1.000  O
  O276     1.0000 0.07133  0.77547  0.62371  Biso   1.000  O
  O277     1.0000 0.99344  0.71393  0.60077  Biso   1.000  O
  O278     1.0000 0.04013  0.65747  0.62664  Biso   1.000  O
  O279     1.0000 0.91956  0.69016  0.56824  Biso   1.000  O
  O280     1.0000 0.83637  0.60401  0.59248  Biso   1.000  O
  C652     1.0000 0.88753  0.58387  0.63561  Biso   1.000  C
  C653     1.0000 0.99653  0.70107  0.67935  Biso   1.000  C
  Ti72     1.0000 0.05552  0.78593  0.59386  Biso   1.000  Ti
  C654     1.0000 0.12023  0.81237  0.63604  Biso   1.000  C
  P24      1.0000 0.96840  0.73418  0.55497  Biso   1.000  P
  C655     1.0000 0.78233  0.59737  0.58977  Biso   1.000  C
  C656     1.0000 0.90423  0.54387  0.63697  Biso   1.000  C
  C657     1.0000 0.84233  0.59257  0.64517  Biso   1.000  C
  C658     1.0000 0.02773  0.67337  0.68847  Biso   1.000  C
  C659     1.0000 0.97173  0.72597  0.68697  Biso   1.000  C
  O281     1.0000 0.01751  0.78085  0.56761  Biso   1.000  O
  O282     1.0000 0.06893  0.85657  0.59803  Biso   1.000  O
  C660     1.0000 0.16593  0.80457  0.63547  Biso   1.000  C
  C661     1.0000 0.10623  0.84817  0.64937  Biso   1.000  C
  C662     1.0000 0.93753  0.76747  0.54026  Biso   1.000  C
  C663     1.0000 0.73893  0.54167  0.59697  Biso   1.000  C
  C664     1.0000 0.77003  0.61137  0.57067  Biso   1.000  C
  C665     1.0000 0.05723  0.90297  0.59567  Biso   1.000  C
  C666     1.0000 0.94693  0.77697  0.52087  Biso   1.000  C
  C667     1.0000 0.89483  0.77527  0.54847  Biso   1.000  C
  C668     1.0000 0.09933  0.94587  0.58167  Biso   1.000  C
  C669     1.0000 0.99633  0.88227  0.59077  Biso   1.000  C
  H236     1.0000 0.96983  0.76387  0.51417  Biso   1.000  H
  C670     1.0000 0.92473  0.80577  0.50927  Biso   1.000  C
  C671     1.0000 0.87193  0.80517  0.53807  Biso   1.000  C
  H237     1.0000 0.88033  0.75997  0.56167  Biso   1.000  H
  H238     1.0000 0.93953  0.81927  0.49587  Biso   1.000  H
  C672     1.0000 0.88763  0.81347  0.51587  Biso   1.000  C
  H239     1.0000 0.83053  0.78257  0.53897  Biso   1.000  H
  H240     1.0000 0.86753  0.82517  0.50677  Biso   1.000  H
  I31      1.0000 0.74447  0.44286  0.01992  Biso   1.000  I
  Cu31     1.0000 0.73179  0.35326  0.99847  Biso   1.000  Cu
  N31      1.0000 0.80810  0.37630  0.98394  Biso   1.000  N
  C673     1.0000 0.84310  0.43060  0.97740  Biso   1.000  C
  C674     1.0000 0.81860  0.33600  0.97749  Biso   1.000  C
  C675     1.0000 0.61560  0.28370  0.07122  Biso   1.000  C
  H241     1.0000 0.83680  0.46060  0.98220  Biso   1.000  H
  C676     1.0000 0.88690  0.44400  0.96422  Biso   1.000  C
  C677     1.0000 0.86190  0.34620  0.96406  Biso   1.000  C
  H242     1.0000 0.79500  0.29780  0.98240  Biso   1.000  H
  H243     1.0000 0.58250  0.28540  0.06650  Biso   1.000  H
  C678     1.0000 0.89750  0.40190  0.95702  Biso   1.000  C
  C679     1.0000 0.92430  0.50550  0.95689  Biso   1.000  C
  H244     1.0000 0.86760  0.31550  0.95960  Biso   1.000  H
  H245     1.0000 0.92790  0.41060  0.94760  Biso   1.000  H
  O283     1.0000 0.91960  0.54350  0.96725  Biso   1.000  O
  O284     1.0000 0.95669  0.51509  0.94202  Biso   1.000  O
  Ti73     1.0000 0.96504  0.63288  0.96367  Biso   1.000  Ti
  Ti74     1.0000 0.01694  0.59647  0.92727  Biso   1.000  Ti
  O285     1.0000 0.03200  0.62480  0.95678  Biso   1.000  O
  O286     1.0000 0.96740  0.63770  0.99048  Biso   1.000  O
  O287     1.0000 0.89120  0.62920  0.95704  Biso   1.000  O
  O288     1.0000 0.95274  0.61285  0.93410  Biso   1.000  O
  O289     1.0000 0.00920  0.71600  0.95997  Biso   1.000  O
  O290     1.0000 0.97651  0.56274  0.90157  Biso   1.000  O
  O291     1.0000 0.06266  0.56570  0.92581  Biso   1.000  O
  C680     1.0000 0.08280  0.63700  0.96894  Biso   1.000  C
  C681     1.0000 0.96560  0.62880  0.01268  Biso   1.000  C
  Ti75     1.0000 0.88074  0.60293  0.92720  Biso   1.000  Ti
  C682     1.0000 0.85430  0.64120  0.96937  Biso   1.000  C
  P25      1.0000 0.93249  0.56756  0.88830  Biso   1.000  P
  C683     1.0000 0.06930  0.51830  0.92310  Biso   1.000  C
  C684     1.0000 0.12280  0.69370  0.97030  Biso   1.000  C
  C685     1.0000 0.07410  0.58310  0.97850  Biso   1.000  C
  C686     1.0000 0.99330  0.68770  0.02180  Biso   1.000  C
  C687     1.0000 0.94070  0.57910  0.02030  Biso   1.000  C
  O292     1.0000 0.88582  0.57000  0.90094  Biso   1.000  O
  O293     1.0000 0.81010  0.54570  0.93136  Biso   1.000  O
  C688     1.0000 0.86210  0.69470  0.96880  Biso   1.000  C
  C689     1.0000 0.81850  0.59140  0.98270  Biso   1.000  C
  C690     1.0000 0.89920  0.50340  0.87359  Biso   1.000  C
  C691     1.0000 0.12500  0.53060  0.93030  Biso   1.000  C
  C692     1.0000 0.05530  0.49200  0.90400  Biso   1.000  C
  C693     1.0000 0.76370  0.48760  0.92900  Biso   1.000  C
  C694     1.0000 0.88970  0.50330  0.85420  Biso   1.000  C
  C695     1.0000 0.89140  0.45290  0.88180  Biso   1.000  C
  C696     1.0000 0.72080  0.48680  0.91500  Biso   1.000  C
  C697     1.0000 0.78440  0.44740  0.92410  Biso   1.000  C
  H246     1.0000 0.90280  0.53930  0.84750  Biso   1.000  H
  C698     1.0000 0.86090  0.45230  0.84260  Biso   1.000  C
  C699     1.0000 0.86150  0.40010  0.87140  Biso   1.000  C
  H247     1.0000 0.90670  0.45370  0.89500  Biso   1.000  H
  H248     1.0000 0.84740  0.45360  0.82920  Biso   1.000  H
  C700     1.0000 0.85320  0.40750  0.84920  Biso   1.000  C
  H249     1.0000 0.88410  0.38130  0.87230  Biso   1.000  H
  H250     1.0000 0.84150  0.37570  0.84010  Biso   1.000  H
  I32      1.0000 0.41113  0.77619  0.35326  Biso   1.000  I
  Cu32     1.0000 0.39846  0.68659  0.33180  Biso   1.000  Cu
  N32      1.0000 0.47477  0.70963  0.31727  Biso   1.000  N
  C701     1.0000 0.50977  0.76393  0.31073  Biso   1.000  C
  C702     1.0000 0.48527  0.66933  0.31082  Biso   1.000  C
  C703     1.0000 0.28227  0.61703  0.40455  Biso   1.000  C
  H251     1.0000 0.50347  0.79393  0.31553  Biso   1.000  H
  C704     1.0000 0.55357  0.77733  0.29755  Biso   1.000  C
  C705     1.0000 0.52857  0.67953  0.29739  Biso   1.000  C
  H252     1.0000 0.46167  0.63113  0.31573  Biso   1.000  H
  H253     1.0000 0.24917  0.61873  0.39983  Biso   1.000  H
  C706     1.0000 0.56417  0.73523  0.29035  Biso   1.000  C
  C707     1.0000 0.59097  0.83883  0.29022  Biso   1.000  C
  H254     1.0000 0.53427  0.64883  0.29293  Biso   1.000  H
  H255     1.0000 0.59457  0.74393  0.28093  Biso   1.000  H
  O294     1.0000 0.58627  0.87683  0.30058  Biso   1.000  O
  O295     1.0000 0.62336  0.84842  0.27535  Biso   1.000  O
  Ti76     1.0000 0.63171  0.96621  0.29700  Biso   1.000  Ti
  Ti77     1.0000 0.68361  0.92980  0.26060  Biso   1.000  Ti
  O296     1.0000 0.69867  0.95813  0.29011  Biso   1.000  O
  O297     1.0000 0.63407  0.97103  0.32381  Biso   1.000  O
  O298     1.0000 0.55787  0.96253  0.29037  Biso   1.000  O
  O299     1.0000 0.61941  0.94618  0.26743  Biso   1.000  O
  O300     1.0000 0.67587  0.04933  0.29330  Biso   1.000  O
  O301     1.0000 0.64318  0.89607  0.23490  Biso   1.000  O
  O302     1.0000 0.72933  0.89903  0.25914  Biso   1.000  O
  C708     1.0000 0.74947  0.97033  0.30227  Biso   1.000  C
  C709     1.0000 0.63227  0.96213  0.34601  Biso   1.000  C
  Ti78     1.0000 0.54741  0.93626  0.26053  Biso   1.000  Ti
  C710     1.0000 0.52097  0.97453  0.30270  Biso   1.000  C
  P26      1.0000 0.59916  0.90089  0.22163  Biso   1.000  P
  C711     1.0000 0.73597  0.85163  0.25643  Biso   1.000  C
  C712     1.0000 0.78947  0.02703  0.30363  Biso   1.000  C
  C713     1.0000 0.74077  0.91643  0.31183  Biso   1.000  C
  C714     1.0000 0.65997  0.02103  0.35513  Biso   1.000  C
  C715     1.0000 0.60737  0.91243  0.35363  Biso   1.000  C
  O303     1.0000 0.55249  0.90333  0.23427  Biso   1.000  O
  O304     1.0000 0.47677  0.87903  0.26469  Biso   1.000  O
  C716     1.0000 0.52877  0.02803  0.30213  Biso   1.000  C
  C717     1.0000 0.48517  0.92473  0.31603  Biso   1.000  C
  C718     1.0000 0.56587  0.83673  0.20692  Biso   1.000  C
  C719     1.0000 0.79167  0.86393  0.26363  Biso   1.000  C
  C720     1.0000 0.72197  0.82533  0.23733  Biso   1.000  C
  C721     1.0000 0.43037  0.82093  0.26233  Biso   1.000  C
  C722     1.0000 0.55637  0.83663  0.18753  Biso   1.000  C
  C723     1.0000 0.55807  0.78623  0.21513  Biso   1.000  C
  C724     1.0000 0.38747  0.82013  0.24833  Biso   1.000  C
  C725     1.0000 0.45107  0.78073  0.25743  Biso   1.000  C
  H256     1.0000 0.56947  0.87263  0.18083  Biso   1.000  H
  C726     1.0000 0.52757  0.78563  0.17593  Biso   1.000  C
  C727     1.0000 0.52817  0.73343  0.20473  Biso   1.000  C
  H257     1.0000 0.57337  0.78703  0.22833  Biso   1.000  H
  H258     1.0000 0.51407  0.78693  0.16253  Biso   1.000  H
  C728     1.0000 0.51987  0.74083  0.18253  Biso   1.000  C
  H259     1.0000 0.55077  0.71463  0.20563  Biso   1.000  H
  H260     1.0000 0.50817  0.70903  0.17343  Biso   1.000  H
  I33      1.0000 0.07780  0.10952  0.68659  Biso   1.000  I
  Cu33     1.0000 0.06512  0.01993  0.66513  Biso   1.000  Cu
  N33      1.0000 0.14143  0.04297  0.65061  Biso   1.000  N
  C729     1.0000 0.17643  0.09727  0.64407  Biso   1.000  C
  C730     1.0000 0.15193  0.00267  0.64416  Biso   1.000  C
  C731     1.0000 0.94893  0.95037  0.73789  Biso   1.000  C
  H261     1.0000 0.17013  0.12727  0.64887  Biso   1.000  H
  C732     1.0000 0.22023  0.11067  0.63089  Biso   1.000  C
  C733     1.0000 0.19523  0.01287  0.63073  Biso   1.000  C
  H262     1.0000 0.12833  0.96447  0.64907  Biso   1.000  H
  H263     1.0000 0.91583  0.95207  0.73317  Biso   1.000  H
  C734     1.0000 0.23083  0.06857  0.62369  Biso   1.000  C
  C735     1.0000 0.25763  0.17217  0.62356  Biso   1.000  C
  H264     1.0000 0.20093  0.98217  0.62627  Biso   1.000  H
  H265     1.0000 0.26123  0.07727  0.61427  Biso   1.000  H
  O305     1.0000 0.25293  0.21017  0.63392  Biso   1.000  O
  O306     1.0000 0.29002  0.18176  0.60869  Biso   1.000  O
  Ti79     1.0000 0.29837  0.29955  0.63033  Biso   1.000  Ti
  Ti80     1.0000 0.35027  0.26314  0.59394  Biso   1.000  Ti
  O307     1.0000 0.36533  0.29147  0.62345  Biso   1.000  O
  O308     1.0000 0.30073  0.30437  0.65715  Biso   1.000  O
  O309     1.0000 0.22453  0.29587  0.62371  Biso   1.000  O
  O310     1.0000 0.28607  0.27952  0.60077  Biso   1.000  O
  O311     1.0000 0.34253  0.38267  0.62664  Biso   1.000  O
  O312     1.0000 0.30984  0.22941  0.56824  Biso   1.000  O
  O313     1.0000 0.39599  0.23237  0.59248  Biso   1.000  O
  C736     1.0000 0.41613  0.30367  0.63561  Biso   1.000  C
  C737     1.0000 0.29893  0.29547  0.67935  Biso   1.000  C
  Ti81     1.0000 0.21407  0.26960  0.59386  Biso   1.000  Ti
  C738     1.0000 0.18763  0.30787  0.63604  Biso   1.000  C
  P27      1.0000 0.26582  0.23423  0.55497  Biso   1.000  P
  C739     1.0000 0.40263  0.18497  0.58977  Biso   1.000  C
  C740     1.0000 0.45613  0.36037  0.63697  Biso   1.000  C
  C741     1.0000 0.40743  0.24977  0.64517  Biso   1.000  C
  C742     1.0000 0.32663  0.35437  0.68847  Biso   1.000  C
  C743     1.0000 0.27403  0.24577  0.68697  Biso   1.000  C
  O314     1.0000 0.21915  0.23667  0.56761  Biso   1.000  O
  O315     1.0000 0.14343  0.21237  0.59803  Biso   1.000  O
  C744     1.0000 0.19543  0.36137  0.63547  Biso   1.000  C
  C745     1.0000 0.15183  0.25807  0.64937  Biso   1.000  C
  C746     1.0000 0.23253  0.17007  0.54026  Biso   1.000  C
  C747     1.0000 0.45833  0.19727  0.59697  Biso   1.000  C
  C748     1.0000 0.38863  0.15867  0.57067  Biso   1.000  C
  C749     1.0000 0.09703  0.15427  0.59567  Biso   1.000  C
  C750     1.0000 0.22303  0.16997  0.52087  Biso   1.000  C
  C751     1.0000 0.22473  0.11957  0.54847  Biso   1.000  C
  C752     1.0000 0.05413  0.15347  0.58167  Biso   1.000  C
  C753     1.0000 0.11773  0.11407  0.59077  Biso   1.000  C
  H266     1.0000 0.23613  0.20597  0.51417  Biso   1.000  H
  C754     1.0000 0.19423  0.11897  0.50927  Biso   1.000  C
  C755     1.0000 0.19483  0.06677  0.53807  Biso   1.000  C
  H267     1.0000 0.24003  0.12037  0.56167  Biso   1.000  H
  H268     1.0000 0.18073  0.12027  0.49587  Biso   1.000  H
  C756     1.0000 0.18653  0.07417  0.51587  Biso   1.000  C
  H269     1.0000 0.21743  0.04797  0.53897  Biso   1.000  H
  H270     1.0000 0.17483  0.04237  0.50677  Biso   1.000  H
  I34      1.0000 0.30161  0.55714  0.48008  Biso   1.000  I
  Cu34     1.0000 0.37853  0.64674  0.50154  Biso   1.000  Cu
  N34      1.0000 0.43180  0.62370  0.51606  Biso   1.000  N
  C757     1.0000 0.41250  0.56940  0.52260  Biso   1.000  C
  C758     1.0000 0.48260  0.66400  0.52251  Biso   1.000  C
  C759     1.0000 0.33190  0.71630  0.42878  Biso   1.000  C
  H271     1.0000 0.37620  0.53940  0.51780  Biso   1.000  H
  C760     1.0000 0.44290  0.55600  0.53578  Biso   1.000  C
  C761     1.0000 0.51570  0.65380  0.53594  Biso   1.000  C
  H272     1.0000 0.49720  0.70220  0.51760  Biso   1.000  H
  H273     1.0000 0.29710  0.71460  0.43350  Biso   1.000  H
  C762     1.0000 0.49560  0.59810  0.54298  Biso   1.000  C
  C763     1.0000 0.41880  0.49450  0.54311  Biso   1.000  C
  H274     1.0000 0.55210  0.68450  0.54040  Biso   1.000  H
  H275     1.0000 0.51730  0.58940  0.55240  Biso   1.000  H
  O316     1.0000 0.37610  0.45650  0.53275  Biso   1.000  O
  O317     1.0000 0.44160  0.48491  0.55798  Biso   1.000  O
  Ti82     1.0000 0.33216  0.36712  0.53633  Biso   1.000  Ti
  Ti83     1.0000 0.42047  0.40353  0.57273  Biso   1.000  Ti
  O318     1.0000 0.40720  0.37520  0.54322  Biso   1.000  O
  O319     1.0000 0.32970  0.36230  0.50952  Biso   1.000  O
  O320     1.0000 0.26200  0.37080  0.54296  Biso   1.000  O
  O321     1.0000 0.33989  0.38715  0.56590  Biso   1.000  O
  O322     1.0000 0.29320  0.28400  0.54003  Biso   1.000  O
  O323     1.0000 0.41377  0.43726  0.59843  Biso   1.000  O
  O324     1.0000 0.49696  0.43430  0.57419  Biso   1.000  O
  C764     1.0000 0.44580  0.36300  0.53106  Biso   1.000  C
  C765     1.0000 0.33680  0.37120  0.48732  Biso   1.000  C
  Ti84     1.0000 0.27781  0.39707  0.57280  Biso   1.000  Ti
  C766     1.0000 0.21310  0.35880  0.53063  Biso   1.000  C
  P28      1.0000 0.36493  0.43244  0.61170  Biso   1.000  P
  C767     1.0000 0.55100  0.48170  0.57690  Biso   1.000  C
  C768     1.0000 0.42910  0.30630  0.52970  Biso   1.000  C
  C769     1.0000 0.49100  0.41690  0.52150  Biso   1.000  C
  C770     1.0000 0.30560  0.31230  0.47820  Biso   1.000  C
  C771     1.0000 0.36160  0.42090  0.47970  Biso   1.000  C
  O325     1.0000 0.31582  0.43000  0.59906  Biso   1.000  O
  O326     1.0000 0.26440  0.45430  0.56864  Biso   1.000  O
  C772     1.0000 0.16740  0.30530  0.53120  Biso   1.000  C
  C773     1.0000 0.22710  0.40860  0.51730  Biso   1.000  C
  C774     1.0000 0.39580  0.49660  0.62641  Biso   1.000  C
  C775     1.0000 0.59440  0.46940  0.56970  Biso   1.000  C
  C776     1.0000 0.56330  0.50800  0.59600  Biso   1.000  C
  C777     1.0000 0.27610  0.51240  0.57100  Biso   1.000  C
  C778     1.0000 0.38640  0.49670  0.64580  Biso   1.000  C
  C779     1.0000 0.43850  0.54710  0.61820  Biso   1.000  C
  C780     1.0000 0.23400  0.51320  0.58500  Biso   1.000  C
  C781     1.0000 0.33700  0.55260  0.57590  Biso   1.000  C
  H276     1.0000 0.36350  0.46070  0.65250  Biso   1.000  H
  C782     1.0000 0.40860  0.54770  0.65740  Biso   1.000  C
  C783     1.0000 0.46140  0.59990  0.62860  Biso   1.000  C
  H277     1.0000 0.45300  0.54630  0.60500  Biso   1.000  H
  H278     1.0000 0.39380  0.54640  0.67080  Biso   1.000  H
  C784     1.0000 0.44570  0.59250  0.65080  Biso   1.000  C
  H279     1.0000 0.50280  0.61870  0.62770  Biso   1.000  H
  H280     1.0000 0.46580  0.62430  0.65990  Biso   1.000  H
  I35      1.0000 0.96828  0.89048  0.81341  Biso   1.000  I
  Cu35     1.0000 0.04520  0.98007  0.83487  Biso   1.000  Cu
  N35      1.0000 0.09847  0.95703  0.84939  Biso   1.000  N
  C785     1.0000 0.07917  0.90273  0.85593  Biso   1.000  C
  C786     1.0000 0.14927  0.99733  0.85584  Biso   1.000  C
  C787     1.0000 0.99857  0.04963  0.76211  Biso   1.000  C
  H281     1.0000 0.04287  0.87273  0.85113  Biso   1.000  H
  C788     1.0000 0.10957  0.88933  0.86911  Biso   1.000  C
  C789     1.0000 0.18237  0.98713  0.86927  Biso   1.000  C
  H282     1.0000 0.16387  0.03553  0.85093  Biso   1.000  H
  H283     1.0000 0.96377  0.04793  0.76683  Biso   1.000  H
  C790     1.0000 0.16227  0.93143  0.87631  Biso   1.000  C
  C791     1.0000 0.08547  0.82783  0.87644  Biso   1.000  C
  H284     1.0000 0.21877  0.01783  0.87373  Biso   1.000  H
  H285     1.0000 0.18397  0.92273  0.88573  Biso   1.000  H
  O327     1.0000 0.04277  0.78983  0.86608  Biso   1.000  O
  O328     1.0000 0.10827  0.81824  0.89131  Biso   1.000  O
  Ti85     1.0000 0.99883  0.70045  0.86967  Biso   1.000  Ti
  Ti86     1.0000 0.08714  0.73686  0.90606  Biso   1.000  Ti
  O329     1.0000 0.07387  0.70853  0.87655  Biso   1.000  O
  O330     1.0000 0.99637  0.69563  0.84285  Biso   1.000  O
  O331     1.0000 0.92867  0.70413  0.87629  Biso   1.000  O
  O332     1.0000 0.00656  0.72048  0.89923  Biso   1.000  O
  O333     1.0000 0.95987  0.61733  0.87336  Biso   1.000  O
  O334     1.0000 0.08044  0.77059  0.93176  Biso   1.000  O
  O335     1.0000 0.16363  0.76763  0.90752  Biso   1.000  O
  C792     1.0000 0.11247  0.69633  0.86439  Biso   1.000  C
  C793     1.0000 0.00347  0.70453  0.82065  Biso   1.000  C
  Ti87     1.0000 0.94448  0.73040  0.90614  Biso   1.000  Ti
  C794     1.0000 0.87977  0.69213  0.86396  Biso   1.000  C
  P29      1.0000 0.03160  0.76577  0.94503  Biso   1.000  P
  C795     1.0000 0.21767  0.81503  0.91023  Biso   1.000  C
  C796     1.0000 0.09577  0.63963  0.86303  Biso   1.000  C
  C797     1.0000 0.15767  0.75023  0.85483  Biso   1.000  C
  C798     1.0000 0.97227  0.64563  0.81153  Biso   1.000  C
  C799     1.0000 0.02827  0.75423  0.81303  Biso   1.000  C
  O336     1.0000 0.98249  0.76333  0.93239  Biso   1.000  O
  O337     1.0000 0.93107  0.78763  0.90197  Biso   1.000  O
  C800     1.0000 0.83407  0.63863  0.86453  Biso   1.000  C
  C801     1.0000 0.89377  0.74193  0.85063  Biso   1.000  C
  C802     1.0000 0.06247  0.82993  0.95974  Biso   1.000  C
  C803     1.0000 0.26107  0.80273  0.90303  Biso   1.000  C
  C804     1.0000 0.22997  0.84133  0.92933  Biso   1.000  C
  C805     1.0000 0.94277  0.84573  0.90433  Biso   1.000  C
  C806     1.0000 0.05307  0.83003  0.97913  Biso   1.000  C
  C807     1.0000 0.10517  0.88043  0.95153  Biso   1.000  C
  C808     1.0000 0.90067  0.84653  0.91833  Biso   1.000  C
  C809     1.0000 0.00367  0.88593  0.90923  Biso   1.000  C
  H286     1.0000 0.03017  0.79403  0.98583  Biso   1.000  H
  C810     1.0000 0.07527  0.88103  0.99073  Biso   1.000  C
  C811     1.0000 0.12807  0.93323  0.96193  Biso   1.000  C
  H287     1.0000 0.11967  0.87963  0.93833  Biso   1.000  H
  H288     1.0000 0.06047  0.87973  0.00413  Biso   1.000  H
  C812     1.0000 0.11237  0.92583  0.98413  Biso   1.000  C
  H289     1.0000 0.16947  0.95203  0.96103  Biso   1.000  H
  H290     1.0000 0.13247  0.95763  0.99323  Biso   1.000  H
  I36      1.0000 0.63494  0.22381  0.14674  Biso   1.000  I
  Cu36     1.0000 0.71186  0.31341  0.16820  Biso   1.000  Cu
  N36      1.0000 0.76513  0.29037  0.18273  Biso   1.000  N
  C813     1.0000 0.74583  0.23607  0.18927  Biso   1.000  C
  C814     1.0000 0.81593  0.33067  0.18918  Biso   1.000  C
  C815     1.0000 0.66523  0.38297  0.09545  Biso   1.000  C
  H291     1.0000 0.70953  0.20607  0.18447  Biso   1.000  H
  C816     1.0000 0.77623  0.22267  0.20245  Biso   1.000  C
  C817     1.0000 0.84903  0.32047  0.20261  Biso   1.000  C
  H292     1.0000 0.83053  0.36887  0.18427  Biso   1.000  H
  H293     1.0000 0.63043  0.38127  0.10017  Biso   1.000  H
  C818     1.0000 0.82893  0.26477  0.20965  Biso   1.000  C
  C819     1.0000 0.75213  0.16117  0.20978  Biso   1.000  C
  H294     1.0000 0.88543  0.35117  0.20707  Biso   1.000  H
  H295     1.0000 0.85063  0.25607  0.21907  Biso   1.000  H
  O338     1.0000 0.70943  0.12317  0.19942  Biso   1.000  O
  O339     1.0000 0.77493  0.15158  0.22465  Biso   1.000  O
  Ti88     1.0000 0.66549  0.03379  0.20300  Biso   1.000  Ti
  Ti89     1.0000 0.75380  0.07020  0.23940  Biso   1.000  Ti
  O340     1.0000 0.74053  0.04187  0.20989  Biso   1.000  O
  O341     1.0000 0.66303  0.02897  0.17619  Biso   1.000  O
  O342     1.0000 0.59533  0.03747  0.20963  Biso   1.000  O
  O343     1.0000 0.67322  0.05382  0.23257  Biso   1.000  O
  O344     1.0000 0.62653  0.95067  0.20670  Biso   1.000  O
  O345     1.0000 0.74710  0.10393  0.26510  Biso   1.000  O
  O346     1.0000 0.83029  0.10097  0.24086  Biso   1.000  O
  C820     1.0000 0.77913  0.02967  0.19773  Biso   1.000  C
  C821     1.0000 0.67013  0.03787  0.15399  Biso   1.000  C
  Ti90     1.0000 0.61114  0.06374  0.23947  Biso   1.000  Ti
  C822     1.0000 0.54643  0.02547  0.19730  Biso   1.000  C
  P30      1.0000 0.69826  0.09911  0.27837  Biso   1.000  P
  C823     1.0000 0.88433  0.14837  0.24357  Biso   1.000  C
  C824     1.0000 0.76243  0.97297  0.19637  Biso   1.000  C
  C825     1.0000 0.82433  0.08357  0.18817  Biso   1.000  C
  C826     1.0000 0.63893  0.97897  0.14487  Biso   1.000  C
  C827     1.0000 0.69493  0.08757  0.14637  Biso   1.000  C
  O347     1.0000 0.64915  0.09667  0.26573  Biso   1.000  O
  O348     1.0000 0.59773  0.12097  0.23531  Biso   1.000  O
  C828     1.0000 0.50073  0.97197  0.19787  Biso   1.000  C
  C829     1.0000 0.56043  0.07527  0.18397  Biso   1.000  C
  C830     1.0000 0.72913  0.16327  0.29308  Biso   1.000  C
  C831     1.0000 0.92773  0.13607  0.23637  Biso   1.000  C
  C832     1.0000 0.89663  0.17467  0.26267  Biso   1.000  C
  C833     1.0000 0.60943  0.17907  0.23767  Biso   1.000  C
  C834     1.0000 0.71973  0.16337  0.31247  Biso   1.000  C
  C835     1.0000 0.77183  0.21377  0.28487  Biso   1.000  C
  C836     1.0000 0.56733  0.17987  0.25167  Biso   1.000  C
  C837     1.0000 0.67033  0.21927  0.24257  Biso   1.000  C
  H296     1.0000 0.69683  0.12737  0.31917  Biso   1.000  H
  C838     1.0000 0.74193  0.21437  0.32407  Biso   1.000  C
  C839     1.0000 0.79473  0.26657  0.29527  Biso   1.000  C
  H297     1.0000 0.78633  0.21297  0.27167  Biso   1.000  H
  H298     1.0000 0.72713  0.21307  0.33747  Biso   1.000  H
  C840     1.0000 0.77903  0.25917  0.31747  Biso   1.000  C
  H299     1.0000 0.83613  0.28537  0.29437  Biso   1.000  H
  H300     1.0000 0.79913  0.29097  0.32657  Biso   1.000  H
  I37      1.0000 0.25553  0.69839  0.48008  Biso   1.000  I
  Cu37     1.0000 0.26821  0.62147  0.50154  Biso   1.000  Cu
  N37      1.0000 0.19190  0.56820  0.51606  Biso   1.000  N
  C841     1.0000 0.15690  0.58750  0.52260  Biso   1.000  C
  C842     1.0000 0.18140  0.51740  0.52251  Biso   1.000  C
  C843     1.0000 0.38440  0.66810  0.42878  Biso   1.000  C
  H301     1.0000 0.16320  0.62380  0.51780  Biso   1.000  H
  C844     1.0000 0.11310  0.55710  0.53578  Biso   1.000  C
  C845     1.0000 0.13810  0.48430  0.53594  Biso   1.000  C
  H302     1.0000 0.20500  0.50280  0.51760  Biso   1.000  H
  H303     1.0000 0.41750  0.70290  0.43350  Biso   1.000  H
  C846     1.0000 0.10250  0.50440  0.54298  Biso   1.000  C
  C847     1.0000 0.07570  0.58120  0.54311  Biso   1.000  C
  H304     1.0000 0.13240  0.44790  0.54040  Biso   1.000  H
  H305     1.0000 0.07210  0.48270  0.55240  Biso   1.000  H
  O349     1.0000 0.08040  0.62390  0.53275  Biso   1.000  O
  O350     1.0000 0.04331  0.55840  0.55798  Biso   1.000  O
  Ti91     1.0000 0.03496  0.66784  0.53633  Biso   1.000  Ti
  Ti92     1.0000 0.98306  0.57953  0.57273  Biso   1.000  Ti
  O351     1.0000 0.96800  0.59280  0.54322  Biso   1.000  O
  O352     1.0000 0.03260  0.67030  0.50952  Biso   1.000  O
  O353     1.0000 0.10880  0.73800  0.54296  Biso   1.000  O
  O354     1.0000 0.04726  0.66011  0.56590  Biso   1.000  O
  O355     1.0000 0.99080  0.70680  0.54003  Biso   1.000  O
  O356     1.0000 0.02349  0.58623  0.59843  Biso   1.000  O
  O357     1.0000 0.93734  0.50304  0.57419  Biso   1.000  O
  C848     1.0000 0.91720  0.55420  0.53106  Biso   1.000  C
  C849     1.0000 0.03440  0.66320  0.48732  Biso   1.000  C
  Ti93     1.0000 0.11926  0.72219  0.57280  Biso   1.000  Ti
  C850     1.0000 0.14570  0.78690  0.53063  Biso   1.000  C
  P31      1.0000 0.06751  0.63507  0.61170  Biso   1.000  P
  C851     1.0000 0.93070  0.44900  0.57690  Biso   1.000  C
  C852     1.0000 0.87720  0.57090  0.52970  Biso   1.000  C
  C853     1.0000 0.92590  0.50900  0.52150  Biso   1.000  C
  C854     1.0000 0.00670  0.69440  0.47820  Biso   1.000  C
  C855     1.0000 0.05930  0.63840  0.47970  Biso   1.000  C
  O358     1.0000 0.11418  0.68418  0.59906  Biso   1.000  O
  O359     1.0000 0.18990  0.73560  0.56864  Biso   1.000  O
  C856     1.0000 0.13790  0.83260  0.53120  Biso   1.000  C
  C857     1.0000 0.18150  0.77290  0.51730  Biso   1.000  C
  C858     1.0000 0.10080  0.60420  0.62641  Biso   1.000  C
  C859     1.0000 0.87500  0.40560  0.56970  Biso   1.000  C
  C860     1.0000 0.94470  0.43670  0.59600  Biso   1.000  C
  C861     1.0000 0.23630  0.72390  0.57100  Biso   1.000  C
  C862     1.0000 0.11030  0.61360  0.64580  Biso   1.000  C
  C863     1.0000 0.10860  0.56150  0.61820  Biso   1.000  C
  C864     1.0000 0.27920  0.76600  0.58500  Biso   1.000  C
  C865     1.0000 0.21560  0.66300  0.57590  Biso   1.000  C
  H306     1.0000 0.09720  0.63650  0.65250  Biso   1.000  H
  C866     1.0000 0.13910  0.59140  0.65740  Biso   1.000  C
  C867     1.0000 0.13850  0.53860  0.62860  Biso   1.000  C
  H307     1.0000 0.09330  0.54700  0.60500  Biso   1.000  H
  H308     1.0000 0.15260  0.60620  0.67080  Biso   1.000  H
  C868     1.0000 0.14680  0.55430  0.65080  Biso   1.000  C
  H309     1.0000 0.11590  0.49720  0.62770  Biso   1.000  H
  H310     1.0000 0.15850  0.53420  0.65990  Biso   1.000  H
  I38      1.0000 0.92220  0.03172  0.81341  Biso   1.000  I
  Cu38     1.0000 0.93488  0.95480  0.83487  Biso   1.000  Cu
  N38      1.0000 0.85857  0.90153  0.84939  Biso   1.000  N
  C869     1.0000 0.82357  0.92083  0.85593  Biso   1.000  C
  C870     1.0000 0.84807  0.85073  0.85584  Biso   1.000  C
  C871     1.0000 0.05107  0.00143  0.76211  Biso   1.000  C
  H311     1.0000 0.82987  0.95713  0.85113  Biso   1.000  H
  C872     1.0000 0.77977  0.89043  0.86911  Biso   1.000  C
  C873     1.0000 0.80477  0.81763  0.86927  Biso   1.000  C
  H312     1.0000 0.87167  0.83613  0.85093  Biso   1.000  H
  H313     1.0000 0.08417  0.03623  0.76683  Biso   1.000  H
  C874     1.0000 0.76917  0.83773  0.87631  Biso   1.000  C
  C875     1.0000 0.74237  0.91453  0.87644  Biso   1.000  C
  H314     1.0000 0.79907  0.78123  0.87373  Biso   1.000  H
  H315     1.0000 0.73877  0.81603  0.88573  Biso   1.000  H
  O360     1.0000 0.74707  0.95723  0.86608  Biso   1.000  O
  O361     1.0000 0.70998  0.89173  0.89131  Biso   1.000  O
  Ti94     1.0000 0.70163  0.00117  0.86967  Biso   1.000  Ti
  Ti95     1.0000 0.64973  0.91286  0.90606  Biso   1.000  Ti
  O362     1.0000 0.63467  0.92613  0.87655  Biso   1.000  O
  O363     1.0000 0.69927  0.00363  0.84285  Biso   1.000  O
  O364     1.0000 0.77547  0.07133  0.87629  Biso   1.000  O
  O365     1.0000 0.71393  0.99344  0.89923  Biso   1.000  O
  O366     1.0000 0.65747  0.04013  0.87336  Biso   1.000  O
  O367     1.0000 0.69016  0.91956  0.93176  Biso   1.000  O
  O368     1.0000 0.60401  0.83637  0.90752  Biso   1.000  O
  C876     1.0000 0.58387  0.88753  0.86439  Biso   1.000  C
  C877     1.0000 0.70107  0.99653  0.82065  Biso   1.000  C
  Ti96     1.0000 0.78593  0.05552  0.90614  Biso   1.000  Ti
  C878     1.0000 0.81237  0.12023  0.86396  Biso   1.000  C
  P32      1.0000 0.73418  0.96840  0.94503  Biso   1.000  P
  C879     1.0000 0.59737  0.78233  0.91023  Biso   1.000  C
  C880     1.0000 0.54387  0.90423  0.86303  Biso   1.000  C
  C881     1.0000 0.59257  0.84233  0.85483  Biso   1.000  C
  C882     1.0000 0.67337  0.02773  0.81153  Biso   1.000  C
  C883     1.0000 0.72597  0.97173  0.81303  Biso   1.000  C
  O369     1.0000 0.78085  0.01751  0.93239  Biso   1.000  O
  O370     1.0000 0.85657  0.06893  0.90197  Biso   1.000  O
  C884     1.0000 0.80457  0.16593  0.86453  Biso   1.000  C
  C885     1.0000 0.84817  0.10623  0.85063  Biso   1.000  C
  C886     1.0000 0.76747  0.93753  0.95974  Biso   1.000  C
  C887     1.0000 0.54167  0.73893  0.90303  Biso   1.000  C
  C888     1.0000 0.61137  0.77003  0.92933  Biso   1.000  C
  C889     1.0000 0.90297  0.05723  0.90433  Biso   1.000  C
  C890     1.0000 0.77697  0.94693  0.97913  Biso   1.000  C
  C891     1.0000 0.77527  0.89483  0.95153  Biso   1.000  C
  C892     1.0000 0.94587  0.09933  0.91833  Biso   1.000  C
  C893     1.0000 0.88227  0.99633  0.90923  Biso   1.000  C
  H316     1.0000 0.76387  0.96983  0.98583  Biso   1.000  H
  C894     1.0000 0.80577  0.92473  0.99073  Biso   1.000  C
  C895     1.0000 0.80517  0.87193  0.96193  Biso   1.000  C
  H317     1.0000 0.75997  0.88033  0.93833  Biso   1.000  H
  H318     1.0000 0.81927  0.93953  0.00413  Biso   1.000  H
  C896     1.0000 0.81347  0.88763  0.98413  Biso   1.000  C
  H319     1.0000 0.78257  0.83053  0.96103  Biso   1.000  H
  H320     1.0000 0.82517  0.86753  0.99323  Biso   1.000  H
  I39      1.0000 0.58887  0.36506  0.14674  Biso   1.000  I
  Cu39     1.0000 0.60154  0.28814  0.16820  Biso   1.000  Cu
  N39      1.0000 0.52523  0.23487  0.18273  Biso   1.000  N
  C897     1.0000 0.49023  0.25417  0.18927  Biso   1.000  C
  C898     1.0000 0.51473  0.18407  0.18918  Biso   1.000  C
  C899     1.0000 0.71773  0.33477  0.09545  Biso   1.000  C
  H321     1.0000 0.49653  0.29047  0.18447  Biso   1.000  H
  C900     1.0000 0.44643  0.22377  0.20245  Biso   1.000  C
  C901     1.0000 0.47143  0.15097  0.20261  Biso   1.000  C
  H322     1.0000 0.53833  0.16947  0.18427  Biso   1.000  H
  H323     1.0000 0.75083  0.36957  0.10017  Biso   1.000  H
  C902     1.0000 0.43583  0.17107  0.20965  Biso   1.000  C
  C903     1.0000 0.40903  0.24787  0.20978  Biso   1.000  C
  H324     1.0000 0.46573  0.11457  0.20707  Biso   1.000  H
  H325     1.0000 0.40543  0.14937  0.21907  Biso   1.000  H
  O371     1.0000 0.41373  0.29057  0.19942  Biso   1.000  O
  O372     1.0000 0.37664  0.22507  0.22465  Biso   1.000  O
  Ti97     1.0000 0.36829  0.33451  0.20300  Biso   1.000  Ti
  Ti98     1.0000 0.31639  0.24620  0.23940  Biso   1.000  Ti
  O373     1.0000 0.30133  0.25947  0.20989  Biso   1.000  O
  O374     1.0000 0.36593  0.33697  0.17619  Biso   1.000  O
  O375     1.0000 0.44213  0.40467  0.20963  Biso   1.000  O
  O376     1.0000 0.38059  0.32678  0.23257  Biso   1.000  O
  O377     1.0000 0.32413  0.37347  0.20670  Biso   1.000  O
  O378     1.0000 0.35682  0.25290  0.26510  Biso   1.000  O
  O379     1.0000 0.27067  0.16971  0.24086  Biso   1.000  O
  C904     1.0000 0.25053  0.22087  0.19773  Biso   1.000  C
  C905     1.0000 0.36773  0.32987  0.15399  Biso   1.000  C
  Ti99     1.0000 0.45259  0.38886  0.23947  Biso   1.000  Ti
  C906     1.0000 0.47903  0.45357  0.19730  Biso   1.000  C
  P33      1.0000 0.40084  0.30174  0.27837  Biso   1.000  P
  C907     1.0000 0.26403  0.11567  0.24357  Biso   1.000  C
  C908     1.0000 0.21053  0.23757  0.19637  Biso   1.000  C
  C909     1.0000 0.25923  0.17567  0.18817  Biso   1.000  C
  C910     1.0000 0.34003  0.36107  0.14487  Biso   1.000  C
  C911     1.0000 0.39263  0.30507  0.14637  Biso   1.000  C
  O380     1.0000 0.44751  0.35085  0.26573  Biso   1.000  O
  O381     1.0000 0.52323  0.40227  0.23531  Biso   1.000  O
  C912     1.0000 0.47123  0.49927  0.19787  Biso   1.000  C
  C913     1.0000 0.51483  0.43957  0.18397  Biso   1.000  C
  C914     1.0000 0.43413  0.27087  0.29308  Biso   1.000  C
  C915     1.0000 0.20833  0.07227  0.23637  Biso   1.000  C
  C916     1.0000 0.27803  0.10337  0.26267  Biso   1.000  C
  C917     1.0000 0.56963  0.39057  0.23767  Biso   1.000  C
  C918     1.0000 0.44363  0.28027  0.31247  Biso   1.000  C
  C919     1.0000 0.44193  0.22817  0.28487  Biso   1.000  C
  C920     1.0000 0.61253  0.43267  0.25167  Biso   1.000  C
  C921     1.0000 0.54893  0.32967  0.24257  Biso   1.000  C
  H326     1.0000 0.43053  0.30317  0.31917  Biso   1.000  H
  C922     1.0000 0.47243  0.25807  0.32407  Biso   1.000  C
  C923     1.0000 0.47183  0.20527  0.29527  Biso   1.000  C
  H327     1.0000 0.42663  0.21367  0.27167  Biso   1.000  H
  H328     1.0000 0.48593  0.27287  0.33747  Biso   1.000  H
  C924     1.0000 0.48013  0.22097  0.31747  Biso   1.000  C
  H329     1.0000 0.44923  0.16387  0.29437  Biso   1.000  H
  H330     1.0000 0.49183  0.20087  0.32657  Biso   1.000  H
  I40      1.0000 0.44286  0.74447  0.48008  Biso   1.000  I
  Cu40     1.0000 0.35326  0.73179  0.50154  Biso   1.000  Cu
  N40      1.0000 0.37630  0.80810  0.51606  Biso   1.000  N
  C925     1.0000 0.43060  0.84310  0.52260  Biso   1.000  C
  C926     1.0000 0.33600  0.81860  0.52251  Biso   1.000  C
  C927     1.0000 0.28370  0.61560  0.42878  Biso   1.000  C
  H331     1.0000 0.46060  0.83680  0.51780  Biso   1.000  H
  C928     1.0000 0.44400  0.88690  0.53578  Biso   1.000  C
  C929     1.0000 0.34620  0.86190  0.53594  Biso   1.000  C
  H332     1.0000 0.29780  0.79500  0.51760  Biso   1.000  H
  H333     1.0000 0.28540  0.58250  0.43350  Biso   1.000  H
  C930     1.0000 0.40190  0.89750  0.54298  Biso   1.000  C
  C931     1.0000 0.50550  0.92430  0.54311  Biso   1.000  C
  H334     1.0000 0.31550  0.86760  0.54040  Biso   1.000  H
  H335     1.0000 0.41060  0.92790  0.55240  Biso   1.000  H
  O382     1.0000 0.54350  0.91960  0.53275  Biso   1.000  O
  O383     1.0000 0.51509  0.95669  0.55798  Biso   1.000  O
  Ti100    1.0000 0.63288  0.96504  0.53633  Biso   1.000  Ti
  Ti101    1.0000 0.59647  0.01694  0.57273  Biso   1.000  Ti
  O384     1.0000 0.62480  0.03200  0.54322  Biso   1.000  O
  O385     1.0000 0.63770  0.96740  0.50952  Biso   1.000  O
  O386     1.0000 0.62920  0.89120  0.54296  Biso   1.000  O
  O387     1.0000 0.61285  0.95274  0.56590  Biso   1.000  O
  O388     1.0000 0.71600  0.00920  0.54003  Biso   1.000  O
  O389     1.0000 0.56274  0.97651  0.59843  Biso   1.000  O
  O390     1.0000 0.56570  0.06266  0.57419  Biso   1.000  O
  C932     1.0000 0.63700  0.08280  0.53106  Biso   1.000  C
  C933     1.0000 0.62880  0.96560  0.48732  Biso   1.000  C
  Ti102    1.0000 0.60293  0.88074  0.57280  Biso   1.000  Ti
  C934     1.0000 0.64120  0.85430  0.53063  Biso   1.000  C
  P34      1.0000 0.56756  0.93249  0.61170  Biso   1.000  P
  C935     1.0000 0.51830  0.06930  0.57690  Biso   1.000  C
  C936     1.0000 0.69370  0.12280  0.52970  Biso   1.000  C
  C937     1.0000 0.58310  0.07410  0.52150  Biso   1.000  C
  C938     1.0000 0.68770  0.99330  0.47820  Biso   1.000  C
  C939     1.0000 0.57910  0.94070  0.47970  Biso   1.000  C
  O391     1.0000 0.57000  0.88582  0.59906  Biso   1.000  O
  O392     1.0000 0.54570  0.81010  0.56864  Biso   1.000  O
  C940     1.0000 0.69470  0.86210  0.53120  Biso   1.000  C
  C941     1.0000 0.59140  0.81850  0.51730  Biso   1.000  C
  C942     1.0000 0.50340  0.89920  0.62641  Biso   1.000  C
  C943     1.0000 0.53060  0.12500  0.56970  Biso   1.000  C
  C944     1.0000 0.49200  0.05530  0.59600  Biso   1.000  C
  C945     1.0000 0.48760  0.76370  0.57100  Biso   1.000  C
  C946     1.0000 0.50330  0.88970  0.64580  Biso   1.000  C
  C947     1.0000 0.45290  0.89140  0.61820  Biso   1.000  C
  C948     1.0000 0.48680  0.72080  0.58500  Biso   1.000  C
  C949     1.0000 0.44740  0.78440  0.57590  Biso   1.000  C
  H336     1.0000 0.53930  0.90280  0.65250  Biso   1.000  H
  C950     1.0000 0.45230  0.86090  0.65740  Biso   1.000  C
  C951     1.0000 0.40010  0.86150  0.62860  Biso   1.000  C
  H337     1.0000 0.45370  0.90670  0.60500  Biso   1.000  H
  H338     1.0000 0.45360  0.84740  0.67080  Biso   1.000  H
  C952     1.0000 0.40750  0.85320  0.65080  Biso   1.000  C
  H339     1.0000 0.38130  0.88410  0.62770  Biso   1.000  H
  H340     1.0000 0.37570  0.84150  0.65990  Biso   1.000  H
  I41      1.0000 0.10952  0.07780  0.81341  Biso   1.000  I
  Cu41     1.0000 0.01993  0.06512  0.83487  Biso   1.000  Cu
  N41      1.0000 0.04297  0.14143  0.84939  Biso   1.000  N
  C953     1.0000 0.09727  0.17643  0.85593  Biso   1.000  C
  C954     1.0000 0.00267  0.15193  0.85584  Biso   1.000  C
  C955     1.0000 0.95037  0.94893  0.76211  Biso   1.000  C
  H341     1.0000 0.12727  0.17013  0.85113  Biso   1.000  H
  C956     1.0000 0.11067  0.22023  0.86911  Biso   1.000  C
  C957     1.0000 0.01287  0.19523  0.86927  Biso   1.000  C
  H342     1.0000 0.96447  0.12833  0.85093  Biso   1.000  H
  H343     1.0000 0.95207  0.91583  0.76683  Biso   1.000  H
  C958     1.0000 0.06857  0.23083  0.87631  Biso   1.000  C
  C959     1.0000 0.17217  0.25763  0.87644  Biso   1.000  C
  H344     1.0000 0.98217  0.20093  0.87373  Biso   1.000  H
  H345     1.0000 0.07727  0.26123  0.88573  Biso   1.000  H
  O393     1.0000 0.21017  0.25293  0.86608  Biso   1.000  O
  O394     1.0000 0.18176  0.29002  0.89131  Biso   1.000  O
  Ti103    1.0000 0.29955  0.29837  0.86967  Biso   1.000  Ti
  Ti104    1.0000 0.26314  0.35027  0.90606  Biso   1.000  Ti
  O395     1.0000 0.29147  0.36533  0.87655  Biso   1.000  O
  O396     1.0000 0.30437  0.30073  0.84285  Biso   1.000  O
  O397     1.0000 0.29587  0.22453  0.87629  Biso   1.000  O
  O398     1.0000 0.27952  0.28607  0.89923  Biso   1.000  O
  O399     1.0000 0.38267  0.34253  0.87336  Biso   1.000  O
  O400     1.0000 0.22941  0.30984  0.93176  Biso   1.000  O
  O401     1.0000 0.23237  0.39599  0.90752  Biso   1.000  O
  C960     1.0000 0.30367  0.41613  0.86439  Biso   1.000  C
  C961     1.0000 0.29547  0.29893  0.82065  Biso   1.000  C
  Ti105    1.0000 0.26960  0.21407  0.90614  Biso   1.000  Ti
  C962     1.0000 0.30787  0.18763  0.86396  Biso   1.000  C
  P35      1.0000 0.23423  0.26582  0.94503  Biso   1.000  P
  C963     1.0000 0.18497  0.40263  0.91023  Biso   1.000  C
  C964     1.0000 0.36037  0.45613  0.86303  Biso   1.000  C
  C965     1.0000 0.24977  0.40743  0.85483  Biso   1.000  C
  C966     1.0000 0.35437  0.32663  0.81153  Biso   1.000  C
  C967     1.0000 0.24577  0.27403  0.81303  Biso   1.000  C
  O402     1.0000 0.23667  0.21915  0.93239  Biso   1.000  O
  O403     1.0000 0.21237  0.14343  0.90197  Biso   1.000  O
  C968     1.0000 0.36137  0.19543  0.86453  Biso   1.000  C
  C969     1.0000 0.25807  0.15183  0.85063  Biso   1.000  C
  C970     1.0000 0.17007  0.23253  0.95974  Biso   1.000  C
  C971     1.0000 0.19727  0.45833  0.90303  Biso   1.000  C
  C972     1.0000 0.15867  0.38863  0.92933  Biso   1.000  C
  C973     1.0000 0.15427  0.09703  0.90433  Biso   1.000  C
  C974     1.0000 0.16997  0.22303  0.97913  Biso   1.000  C
  C975     1.0000 0.11957  0.22473  0.95153  Biso   1.000  C
  C976     1.0000 0.15347  0.05413  0.91833  Biso   1.000  C
  C977     1.0000 0.11407  0.11773  0.90923  Biso   1.000  C
  H346     1.0000 0.20597  0.23613  0.98583  Biso   1.000  H
  C978     1.0000 0.11897  0.19423  0.99073  Biso   1.000  C
  C979     1.0000 0.06677  0.19483  0.96193  Biso   1.000  C
  H347     1.0000 0.12037  0.24003  0.93833  Biso   1.000  H
  H348     1.0000 0.12027  0.18073  0.00413  Biso   1.000  H
  C980     1.0000 0.07417  0.18653  0.98413  Biso   1.000  C
  H349     1.0000 0.04797  0.21743  0.96103  Biso   1.000  H
  H350     1.0000 0.04237  0.17483  0.99323  Biso   1.000  H
  I42      1.0000 0.77619  0.41113  0.14674  Biso   1.000  I
  Cu42     1.0000 0.68659  0.39846  0.16820  Biso   1.000  Cu
  N42      1.0000 0.70963  0.47477  0.18273  Biso   1.000  N
  C981     1.0000 0.76393  0.50977  0.18927  Biso   1.000  C
  C982     1.0000 0.66933  0.48527  0.18918  Biso   1.000  C
  C983     1.0000 0.61703  0.28227  0.09545  Biso   1.000  C
  H351     1.0000 0.79393  0.50347  0.18447  Biso   1.000  H
  C984     1.0000 0.77733  0.55357  0.20245  Biso   1.000  C
  C985     1.0000 0.67953  0.52857  0.20261  Biso   1.000  C
  H352     1.0000 0.63113  0.46167  0.18427  Biso   1.000  H
  H353     1.0000 0.61873  0.24917  0.10017  Biso   1.000  H
  C986     1.0000 0.73523  0.56417  0.20965  Biso   1.000  C
  C987     1.0000 0.83883  0.59097  0.20978  Biso   1.000  C
  H354     1.0000 0.64883  0.53427  0.20707  Biso   1.000  H
  H355     1.0000 0.74393  0.59457  0.21907  Biso   1.000  H
  O404     1.0000 0.87683  0.58627  0.19942  Biso   1.000  O
  O405     1.0000 0.84842  0.62336  0.22465  Biso   1.000  O
  Ti106    1.0000 0.96621  0.63171  0.20300  Biso   1.000  Ti
  Ti107    1.0000 0.92980  0.68361  0.23940  Biso   1.000  Ti
  O406     1.0000 0.95813  0.69867  0.20989  Biso   1.000  O
  O407     1.0000 0.97103  0.63407  0.17619  Biso   1.000  O
  O408     1.0000 0.96253  0.55787  0.20963  Biso   1.000  O
  O409     1.0000 0.94618  0.61941  0.23257  Biso   1.000  O
  O410     1.0000 0.04933  0.67587  0.20670  Biso   1.000  O
  O411     1.0000 0.89607  0.64318  0.26510  Biso   1.000  O
  O412     1.0000 0.89903  0.72933  0.24086  Biso   1.000  O
  C988     1.0000 0.97033  0.74947  0.19773  Biso   1.000  C
  C989     1.0000 0.96213  0.63227  0.15399  Biso   1.000  C
  Ti108    1.0000 0.93626  0.54741  0.23947  Biso   1.000  Ti
  C990     1.0000 0.97453  0.52097  0.19730  Biso   1.000  C
  P36      1.0000 0.90089  0.59916  0.27837  Biso   1.000  P
  C991     1.0000 0.85163  0.73597  0.24357  Biso   1.000  C
  C992     1.0000 0.02703  0.78947  0.19637  Biso   1.000  C
  C993     1.0000 0.91643  0.74077  0.18817  Biso   1.000  C
  C994     1.0000 0.02103  0.65997  0.14487  Biso   1.000  C
  C995     1.0000 0.91243  0.60737  0.14637  Biso   1.000  C
  O413     1.0000 0.90333  0.55249  0.26573  Biso   1.000  O
  O414     1.0000 0.87903  0.47677  0.23531  Biso   1.000  O
  C996     1.0000 0.02803  0.52877  0.19787  Biso   1.000  C
  C997     1.0000 0.92473  0.48517  0.18397  Biso   1.000  C
  C998     1.0000 0.83673  0.56587  0.29308  Biso   1.000  C
  C999     1.0000 0.86393  0.79167  0.23637  Biso   1.000  C
  C1000    1.0000 0.82533  0.72197  0.26267  Biso   1.000  C
  C1001    1.0000 0.82093  0.43037  0.23767  Biso   1.000  C
  C1002    1.0000 0.83663  0.55637  0.31247  Biso   1.000  C
  C1003    1.0000 0.78623  0.55807  0.28487  Biso   1.000  C
  C1004    1.0000 0.82013  0.38747  0.25167  Biso   1.000  C
  C1005    1.0000 0.78073  0.45107  0.24257  Biso   1.000  C
  H356     1.0000 0.87263  0.56947  0.31917  Biso   1.000  H
  C1006    1.0000 0.78563  0.52757  0.32407  Biso   1.000  C
  C1007    1.0000 0.73343  0.52817  0.29527  Biso   1.000  C
  H357     1.0000 0.78703  0.57337  0.27167  Biso   1.000  H
  H358     1.0000 0.78693  0.51407  0.33747  Biso   1.000  H
  C1008    1.0000 0.74083  0.51987  0.31747  Biso   1.000  C
  H359     1.0000 0.71463  0.55077  0.29437  Biso   1.000  H
  H360     1.0000 0.70903  0.50817  0.32657  Biso   1.000  H
  Cu43     1.0000 0.66667  0.33333  0.03144  Biso   1.000  Cu
  I43      1.0000 0.66667  0.33333  0.96416  Biso   1.000  I
  N43      1.0000 0.66667  0.33333  0.06353  Biso   1.000  N
  Cu44     1.0000 0.33333  0.66667  0.36477  Biso   1.000  Cu
  I44      1.0000 0.33333  0.66667  0.29750  Biso   1.000  I
  N44      1.0000 0.33333  0.66667  0.39686  Biso   1.000  N
  Cu45     1.0000 0.00000  0.00000  0.69811  Biso   1.000  Cu
  I45      1.0000 0.00000  0.00000  0.63083  Biso   1.000  I
  N45      1.0000 0.00000  0.00000  0.73020  Biso   1.000  N
  Cu46     1.0000 0.33333  0.66667  0.46856  Biso   1.000  Cu
  I46      1.0000 0.33333  0.66667  0.53584  Biso   1.000  I
  N46      1.0000 0.33333  0.66667  0.43647  Biso   1.000  N
  Cu47     1.0000 0.00000  0.00000  0.80189  Biso   1.000  Cu
  I47      1.0000 0.00000  0.00000  0.86917  Biso   1.000  I
  N47      1.0000 0.00000  0.00000  0.76980  Biso   1.000  N
  Cu48     1.0000 0.66667  0.33333  0.13523  Biso   1.000  Cu
  I48      1.0000 0.66667  0.33333  0.20250  Biso   1.000  I
  N48      1.0000 0.66667  0.33333  0.10314  Biso   1.000  N
  O415     1.0000 0.33333  0.39762  0.91667  Biso   1.000  O
  O416     1.0000 0.33333  0.21642  0.91667  Biso   1.000  O
  O417     1.0000 0.00000  0.73095  0.25000  Biso   1.000  O
  O418     1.0000 0.00000  0.54975  0.25000  Biso   1.000  O
  O419     1.0000 0.60238  0.93572  0.91667  Biso   1.000  O
  O420     1.0000 0.78358  0.11692  0.91667  Biso   1.000  O
  O421     1.0000 0.26905  0.26905  0.25000  Biso   1.000  O
  O422     1.0000 0.45025  0.45025  0.25000  Biso   1.000  O
  O423     1.0000 0.06428  0.66667  0.91667  Biso   1.000  O
  O424     1.0000 0.88308  0.66667  0.91667  Biso   1.000  O
  O425     1.0000 0.73095  0.00000  0.25000  Biso   1.000  O
  O426     1.0000 0.54975  0.00000  0.25000  Biso   1.000  O
  O427     1.0000 0.39762  0.33333  0.58333  Biso   1.000  O
  O428     1.0000 0.21642  0.33333  0.58333  Biso   1.000  O
  O429     1.0000 0.93572  0.60238  0.58333  Biso   1.000  O
  O430     1.0000 0.11692  0.78358  0.58333  Biso   1.000  O
  O431     1.0000 0.66667  0.06428  0.58333  Biso   1.000  O
  O432     1.0000 0.66667  0.88308  0.58333  Biso   1.000  O
