data_image0
_cell_length_a       13.527
_cell_length_b       25.847
_cell_length_c       26.657
_cell_angle_alpha    98.87
_cell_angle_beta     103.892
_cell_angle_gamma    103.725

_symmetry_space_group_name_H-M    "P 1"
_symmetry_int_tables_number       1

loop_
  _symmetry_equiv_pos_as_xyz
  'x, y, z'

loop_
  _atom_site_label
  _atom_site_occupancy
  _atom_site_fract_x
  _atom_site_fract_y
  _atom_site_fract_z
  _atom_site_thermal_displace_type
  _atom_site_B_iso_or_equiv
  _atom_site_type_symbol
  Ti1      1.0000 0.51685  0.12140  0.54975  Biso   1.000  Ti
  Ti2      1.0000 0.10039  0.08117  0.08526  Biso   1.000  Ti
  Ti3      1.0000 0.66289  0.07559  0.49156  Biso   1.000  Ti
  Ti4      1.0000 0.36642  0.03510  0.45032  Biso   1.000  Ti
  Ti5      1.0000 0.38313  0.42596  0.42986  Biso   1.000  Ti
  Ti6      1.0000 0.84650  0.96794  0.03029  Biso   1.000  Ti
  Ti7      1.0000 0.36135  0.55552  0.50330  Biso   1.000  Ti
  Ti8      1.0000 0.05295  0.96374  0.10856  Biso   1.000  Ti
  Ti9      1.0000 0.29231  0.43833  0.52559  Biso   1.000  Ti
  Ti10     1.0000 0.49027  0.47251  0.08136  Biso   1.000  Ti
  Ti11     1.0000 0.50100  0.40325  0.94933  Biso   1.000  Ti
  Ti12     1.0000 0.69082  0.45797  0.05249  Biso   1.000  Ti
  Cu1      1.0000 0.67207  0.24126  0.29369  Biso   1.000  Cu
  Cu2      1.0000 0.68309  0.24288  0.19620  Biso   1.000  Cu
  Cu3      1.0000 0.81434  0.20075  0.25520  Biso   1.000  Cu
  Cu4      1.0000 0.84358  0.30495  0.28391  Biso   1.000  Cu
  I1       1.0000 0.87094  0.24791  0.35772  Biso   1.000  I
  I2       1.0000 0.65473  0.32939  0.25621  Biso   1.000  I
  I3       1.0000 0.59984  0.14957  0.22026  Biso   1.000  I
  I4       1.0000 0.88592  0.26364  0.19449  Biso   1.000  I
  P1       1.0000 0.28960  0.42046  0.97746  Biso   1.000  P
  P2       1.0000 0.50800  0.98275  0.38860  Biso   1.000  P
  P3       1.0000 0.46190  0.54440  0.40421  Biso   1.000  P
  P4       1.0000 0.88850  0.08585  0.00107  Biso   1.000  P
  C1       1.0000 0.93770  0.41830  0.28470  Biso   1.000  C
  H1       1.0000 0.88950  0.40770  0.25010  Biso   1.000  H
  C2       1.0000 0.99890  0.47160  0.30310  Biso   1.000  C
  H2       1.0000 0.99290  0.49630  0.28040  Biso   1.000  H
  C3       1.0000 0.07250  0.45190  0.38080  Biso   1.000  C
  C4       1.0000 0.85710  0.04840  0.27470  Biso   1.000  C
  H3       1.0000 0.83650  0.02490  0.29680  Biso   1.000  H
  C5       1.0000 0.01220  0.39900  0.36210  Biso   1.000  C
  H4       1.0000 0.01930  0.37380  0.38420  Biso   1.000  H
  C6       1.0000 0.15470  0.47110  0.43430  Biso   1.000  C
  C7       1.0000 0.42040  0.56630  0.34430  Biso   1.000  C
  C8       1.0000 0.48640  0.58230  0.31540  Biso   1.000  C
  H5       1.0000 0.55800  0.58150  0.32730  Biso   1.000  H
  C9       1.0000 0.45500  0.59960  0.26980  Biso   1.000  C
  H6       1.0000 0.50550  0.61330  0.25200  Biso   1.000  H
  C10      1.0000 0.35500  0.59700  0.25110  Biso   1.000  C
  H7       1.0000 0.33270  0.60760  0.21860  Biso   1.000  H
  C11      1.0000 0.28500  0.58060  0.27480  Biso   1.000  C
  H8       1.0000 0.21240  0.57870  0.25950  Biso   1.000  H
  C12      1.0000 0.31560  0.56480  0.32520  Biso   1.000  C
  H9       1.0000 0.26570  0.55410  0.34410  Biso   1.000  H
  C13      1.0000 0.28180  0.54250  0.60130  Biso   1.000  C
  H10      1.0000 0.31380  0.58250  0.60490  Biso   1.000  H
  C14      1.0000 0.34470  0.52910  0.65010  Biso   1.000  C
  H11      1.0000 0.32110  0.48970  0.64770  Biso   1.000  H
  H12      1.0000 0.33340  0.54870  0.68170  Biso   1.000  H
  H13      1.0000 0.42050  0.54010  0.65240  Biso   1.000  H
  C15      1.0000 0.16760  0.53520  0.59230  Biso   1.000  C
  H14      1.0000 0.12990  0.49610  0.58320  Biso   1.000  H
  H15      1.0000 0.14140  0.55190  0.56310  Biso   1.000  H
  H16      1.0000 0.15510  0.55280  0.62460  Biso   1.000  H
  C16      1.0000 0.11600  0.37670  0.57750  Biso   1.000  C
  H17      1.0000 0.07300  0.40070  0.58820  Biso   1.000  H
  C17      1.0000 0.17200  0.35900  0.61400  Biso   1.000  C
  H18      1.0000 0.16130  0.37330  0.64850  Biso   1.000  H
  H19      1.0000 0.24680  0.37250  0.61620  Biso   1.000  H
  H20      1.0000 0.14920  0.31930  0.60610  Biso   1.000  H
  C18      1.0000 0.06000  0.32500  0.54500  Biso   1.000  C
  C19      1.0000 0.29320  0.32360  0.46850  Biso   1.000  C
  H21      1.0000 0.32100  0.31390  0.43780  Biso   1.000  H
  C20      1.0000 0.35710  0.30730  0.50860  Biso   1.000  C
  H22      1.0000 0.36570  0.33070  0.54290  Biso   1.000  H
  H23      1.0000 0.42680  0.31070  0.50260  Biso   1.000  H
  H24      1.0000 0.32370  0.26920  0.50840  Biso   1.000  H
  C21      1.0000 0.17650  0.29580  0.44570  Biso   1.000  C
  H25      1.0000 0.16040  0.25910  0.45290  Biso   1.000  H
  H26      1.0000 0.15600  0.29290  0.40730  Biso   1.000  H
  H27      1.0000 0.13670  0.31710  0.46200  Biso   1.000  H
  C22      1.0000 0.26500  0.36210  0.31560  Biso   1.000  C
  H28      1.0000 0.33300  0.37070  0.30610  Biso   1.000  H
  C23      1.0000 0.20000  0.38220  0.28360  Biso   1.000  C
  C24      1.0000 0.22400  0.30080  0.30310  Biso   1.000  C
  C25      1.0000 0.22370  0.63280  0.48930  Biso   1.000  C
  H29      1.0000 0.15950  0.60030  0.47650  Biso   1.000  H
  C26      1.0000 0.23500  0.65030  0.44270  Biso   1.000  C
  H30      1.0000 0.18640  0.67200  0.43290  Biso   1.000  H
  H31      1.0000 0.21920  0.61840  0.41380  Biso   1.000  H
  H32      1.0000 0.30860  0.67270  0.44920  Biso   1.000  H
  C27      1.0000 0.19990  0.66850  0.52710  Biso   1.000  C
  H33      1.0000 0.26600  0.69660  0.54770  Biso   1.000  H
  H34      1.0000 0.17080  0.64790  0.55080  Biso   1.000  H
  C28      1.0000 0.60200  0.28660  0.10440  Biso   1.000  C
  H35      1.0000 0.65930  0.31790  0.12360  Biso   1.000  H
  C29      1.0000 0.53520  0.28880  0.05690  Biso   1.000  C
  C30      1.0000 0.44620  0.20230  0.04790  Biso   1.000  C
  H36      1.0000 0.39080  0.17040  0.02800  Biso   1.000  H
  C31      1.0000 0.50890  0.19940  0.09500  Biso   1.000  C
  H37      1.0000 0.49530  0.16650  0.10720  Biso   1.000  H
  C32      1.0000 0.55670  0.34110  0.03660  Biso   1.000  C
  C33      1.0000 0.16660  0.36780  0.96500  Biso   1.000  C
  C34      1.0000 0.08840  0.35440  0.91670  Biso   1.000  C
  H38      1.0000 0.09820  0.37410  0.89010  Biso   1.000  H
  C35      1.0000 0.99600  0.31230  0.90720  Biso   1.000  C
  H39      1.0000 0.94260  0.30320  0.87420  Biso   1.000  H
  C36      1.0000 0.98160  0.28350  0.94610  Biso   1.000  C
  H40      1.0000 0.91840  0.25470  0.93970  Biso   1.000  H
  C37      1.0000 0.05970  0.29690  0.99450  Biso   1.000  C
  H41      1.0000 0.04990  0.27720  0.02100  Biso   1.000  H
  C38      1.0000 0.15220  0.33900  0.00390  Biso   1.000  C
  H42      1.0000 0.20560  0.34810  0.03700  Biso   1.000  H
  C39      1.0000 0.39200  0.41690  0.15820  Biso   1.000  C
  H43      1.0000 0.44520  0.42750  0.19390  Biso   1.000  H
  C40      1.0000 0.38800  0.36630  0.15300  Biso   1.000  C
  H44      1.0000 0.40100  0.35730  0.18800  Biso   1.000  H
  H45      1.0000 0.44260  0.35920  0.13670  Biso   1.000  H
  H46      1.0000 0.31780  0.34370  0.13040  Biso   1.000  H
  C41      1.0000 0.33200  0.44240  0.17500  Biso   1.000  C
  H47      1.0000 0.26340  0.43310  0.14710  Biso   1.000  H
  H48      1.0000 0.36560  0.48180  0.18230  Biso   1.000  H
  H49      1.0000 0.31960  0.43180  0.20680  Biso   1.000  H
  C42      1.0000 0.71300  0.51100  0.16680  Biso   1.000  C
  H50      1.0000 0.78560  0.52150  0.16190  Biso   1.000  H
  C43      1.0000 0.70200  0.56230  0.18690  Biso   1.000  C
  H51      1.0000 0.69400  0.56370  0.22260  Biso   1.000  H
  H52      1.0000 0.63920  0.56790  0.16370  Biso   1.000  H
  H53      1.0000 0.76540  0.59110  0.18840  Biso   1.000  H
  C44      1.0000 0.72290  0.47070  0.20010  Biso   1.000  C
  H54      1.0000 0.78170  0.48770  0.23250  Biso   1.000  H
  H55      1.0000 0.73670  0.43930  0.18040  Biso   1.000  H
  H56      1.0000 0.65660  0.45860  0.20940  Biso   1.000  H
  C45      1.0000 0.91200  0.44250  0.10520  Biso   1.000  C
  C46      1.0000 0.90600  0.39330  0.11100  Biso   1.000  C
  H57      1.0000 0.90640  0.37070  0.07810  Biso   1.000  H
  H58      1.0000 0.83960  0.37820  0.11940  Biso   1.000  H
  H59      1.0000 0.96650  0.39360  0.14000  Biso   1.000  H
  C47      1.0000 0.99700  0.48100  0.12800  Biso   1.000  C
  H60      1.0000 0.03020  0.49340  0.10180  Biso   1.000  H
  H61      1.0000 0.04550  0.46810  0.15330  Biso   1.000  H
  H62      1.0000 0.97900  0.51150  0.14750  Biso   1.000  H
  C48      1.0000 0.73800  0.41050  0.95130  Biso   1.000  C
  C49      1.0000 0.76300  0.44140  0.92060  Biso   1.000  C
  H63      1.0000 0.82410  0.47270  0.94090  Biso   1.000  H
  H64      1.0000 0.70290  0.45450  0.90520  Biso   1.000  H
  H65      1.0000 0.78220  0.42070  0.89210  Biso   1.000  H
  C50      1.0000 0.74400  0.35500  0.94760  Biso   1.000  C
  H66      1.0000 0.76920  0.34410  0.91730  Biso   1.000  H
  H67      1.0000 0.67290  0.33040  0.94280  Biso   1.000  H
  H68      1.0000 0.79280  0.35270  0.98030  Biso   1.000  H
  C51      1.0000 0.83510  0.09730  0.27890  Biso   1.000  C
  H69      1.0000 0.79640  0.10610  0.30270  Biso   1.000  H
  C52      1.0000 0.91830  0.11880  0.21750  Biso   1.000  C
  H70      1.0000 0.94160  0.14330  0.19670  Biso   1.000  H
  C53      1.0000 0.93940  0.06830  0.21280  Biso   1.000  C
  C54      1.0000 0.99450  0.05280  0.17250  Biso   1.000  C
  C55      1.0000 0.81550  0.13590  0.99870  Biso   1.000  C
  C56      1.0000 0.75580  0.13940  0.95170  Biso   1.000  C
  H71      1.0000 0.75280  0.11540  0.92030  Biso   1.000  H
  C57      1.0000 0.69750  0.17800  0.94810  Biso   1.000  C
  H72      1.0000 0.65490  0.17980  0.91490  Biso   1.000  H
  C58      1.0000 0.70370  0.21190  0.99310  Biso   1.000  C
  H73      1.0000 0.66440  0.23790  0.99160  Biso   1.000  H
  C59      1.0000 0.76400  0.20960  0.03910  Biso   1.000  C
  H74      1.0000 0.76750  0.23400  0.07050  Biso   1.000  H
  C60      1.0000 0.82140  0.17170  0.04180  Biso   1.000  C
  H75      1.0000 0.86600  0.17130  0.07520  Biso   1.000  H
  C61      1.0000 0.20960  0.19470  0.15950  Biso   1.000  C
  H76      1.0000 0.18430  0.18410  0.18970  Biso   1.000  H
  C62      1.0000 0.32160  0.21950  0.18040  Biso   1.000  C
  H77      1.0000 0.35920  0.19250  0.17290  Biso   1.000  H
  H78      1.0000 0.33970  0.23310  0.21880  Biso   1.000  H
  H79      1.0000 0.34280  0.25000  0.16380  Biso   1.000  H
  C63      1.0000 0.14880  0.22830  0.13900  Biso   1.000  C
  H80      1.0000 0.16680  0.26260  0.16530  Biso   1.000  H
  H81      1.0000 0.07300  0.20940  0.13110  Biso   1.000  H
  H82      1.0000 0.16430  0.23620  0.10650  Biso   1.000  H
  C64      1.0000 0.28270  0.04510  0.15180  Biso   1.000  C
  H83      1.0000 0.30310  0.08220  0.14410  Biso   1.000  H
  C65      1.0000 0.30020  0.06390  0.20840  Biso   1.000  C
  H84      1.0000 0.29130  0.03240  0.22490  Biso   1.000  H
  H85      1.0000 0.24870  0.08350  0.21400  Biso   1.000  H
  H86      1.0000 0.37240  0.08840  0.22430  Biso   1.000  H
  C66      1.0000 0.34280  0.02400  0.12720  Biso   1.000  C
  H87      1.0000 0.41740  0.04530  0.14320  Biso   1.000  H
  H88      1.0000 0.32110  0.02500  0.08960  Biso   1.000  H
  H89      1.0000 0.33440  0.98610  0.13050  Biso   1.000  H
  C67      1.0000 0.15100  0.91130  0.20290  Biso   1.000  C
  H90      1.0000 0.22300  0.93880  0.21730  Biso   1.000  H
  C68      1.0000 0.09800  0.92500  0.24150  Biso   1.000  C
  H91      1.0000 0.02560  0.90030  0.23080  Biso   1.000  H
  H92      1.0000 0.09500  0.96270  0.24390  Biso   1.000  H
  H93      1.0000 0.13690  0.92110  0.27620  Biso   1.000  H
  C69      1.0000 0.17500  0.86520  0.18880  Biso   1.000  C
  H94      1.0000 0.18810  0.84820  0.21930  Biso   1.000  H
  H95      1.0000 0.23940  0.87330  0.17700  Biso   1.000  H
  H96      1.0000 0.11610  0.84020  0.15990  Biso   1.000  H
  C70      1.0000 0.84850  0.86540  0.07850  Biso   1.000  C
  H97      1.0000 0.91600  0.86100  0.10040  Biso   1.000  H
  C71      1.0000 0.80700  0.86710  0.12340  Biso   1.000  C
  H98      1.0000 0.73950  0.83850  0.11430  Biso   1.000  H
  H99      1.0000 0.79560  0.90290  0.13310  Biso   1.000  H
  H100     1.0000 0.85800  0.86120  0.15340  Biso   1.000  H
  C72      1.0000 0.84400  0.82540  0.03990  Biso   1.000  C
  H101     1.0000 0.84510  0.79300  0.05460  Biso   1.000  H
  H102     1.0000 0.90700  0.83620  0.02750  Biso   1.000  H
  C73      1.0000 0.64280  0.97520  0.05600  Biso   1.000  C
  H103     1.0000 0.62850  0.99760  0.02910  Biso   1.000  H
  C74      1.0000 0.54900  0.94000  0.05150  Biso   1.000  C
  H104     1.0000 0.56080  0.91340  0.07320  Biso   1.000  H
  H105     1.0000 0.51560  0.92080  0.01430  Biso   1.000  H
  H106     1.0000 0.50320  0.95990  0.06370  Biso   1.000  H
  C75      1.0000 0.67700  0.01200  0.10700  Biso   1.000  C
  H107     1.0000 0.61520  0.01990  0.11600  Biso   1.000  H
  H108     1.0000 0.72660  0.04600  0.10610  Biso   1.000  H
  H109     1.0000 0.71250  0.99510  0.13370  Biso   1.000  H
  C76      1.0000 0.54200  0.27730  0.36090  Biso   1.000  C
  H110     1.0000 0.53530  0.30300  0.33930  Biso   1.000  H
  C77      1.0000 0.50290  0.28010  0.40380  Biso   1.000  C
  H111     1.0000 0.47020  0.30790  0.41130  Biso   1.000  H
  C78      1.0000 0.55770  0.20660  0.42330  Biso   1.000  C
  C79      1.0000 0.59780  0.20420  0.38120  Biso   1.000  C
  H112     1.0000 0.63250  0.17690  0.37470  Biso   1.000  H
  C80      1.0000 0.56910  0.16760  0.45940  Biso   1.000  C
  C81      1.0000 0.54300  0.01150  0.29640  Biso   1.000  C
  H113     1.0000 0.55680  0.04850  0.31400  Biso   1.000  H
  C82      1.0000 0.54970  0.99980  0.24620  Biso   1.000  C
  H114     1.0000 0.56790  0.02900  0.22930  Biso   1.000  H
  C83      1.0000 0.53210  0.94970  0.22010  Biso   1.000  C
  H115     1.0000 0.54260  0.94340  0.18600  Biso   1.000  H
  C84      1.0000 0.49900  0.90750  0.24140  Biso   1.000  C
  H116     1.0000 0.47750  0.87100  0.22090  Biso   1.000  H
  C85      1.0000 0.49780  0.91800  0.29470  Biso   1.000  C
  H117     1.0000 0.48370  0.88870  0.31190  Biso   1.000  H
  C86      1.0000 0.23000  0.05830  0.35230  Biso   1.000  C
  C87      1.0000 0.27540  0.10240  0.52670  Biso   1.000  C
  H118     1.0000 0.31000  0.11940  0.56520  Biso   1.000  H
  C88      1.0000 0.25280  0.15020  0.50840  Biso   1.000  C
  H119     1.0000 0.22840  0.14170  0.46960  Biso   1.000  H
  H120     1.0000 0.31740  0.18110  0.52100  Biso   1.000  H
  H121     1.0000 0.19720  0.15980  0.52250  Biso   1.000  H
  C89      1.0000 0.20130  0.05650  0.53080  Biso   1.000  C
  H122     1.0000 0.14800  0.06810  0.54540  Biso   1.000  H
  H123     1.0000 0.23760  0.03690  0.55440  Biso   1.000  H
  H124     1.0000 0.16620  0.03230  0.49570  Biso   1.000  H
  C90      1.0000 0.51300  0.23000  0.62260  Biso   1.000  C
  H125     1.0000 0.43570  0.22640  0.60940  Biso   1.000  H
  C91      1.0000 0.55400  0.27220  0.60620  Biso   1.000  C
  H126     1.0000 0.52020  0.30070  0.61390  Biso   1.000  H
  H127     1.0000 0.54320  0.26190  0.56790  Biso   1.000  H
  H128     1.0000 0.63070  0.28600  0.62440  Biso   1.000  H
  C92      1.0000 0.52700  0.23070  0.67900  Biso   1.000  C
  H129     1.0000 0.58510  0.21570  0.69250  Biso   1.000  H
  H130     1.0000 0.46080  0.20850  0.68330  Biso   1.000  H
  H131     1.0000 0.54250  0.26840  0.69880  Biso   1.000  H
  C93      1.0000 0.76230  0.15990  0.59870  Biso   1.000  C
  H132     1.0000 0.81470  0.14280  0.58740  Biso   1.000  H
  C94      1.0000 0.80360  0.21500  0.59210  Biso   1.000  C
  H133     1.0000 0.75000  0.23460  0.59220  Biso   1.000  H
  H134     1.0000 0.82080  0.21310  0.55830  Biso   1.000  H
  H135     1.0000 0.86800  0.23430  0.62120  Biso   1.000  H
  C95      1.0000 0.76800  0.14480  0.64670  Biso   1.000  C
  H136     1.0000 0.69860  0.13860  0.65320  Biso   1.000  H
  H137     1.0000 0.82070  0.17400  0.67520  Biso   1.000  H
  H138     1.0000 0.78990  0.11110  0.64560  Biso   1.000  H
  C96      1.0000 0.85710  0.12840  0.45650  Biso   1.000  C
  H139     1.0000 0.81510  0.14830  0.43460  Biso   1.000  H
  C97      1.0000 0.95350  0.16880  0.49320  Biso   1.000  C
  H140     1.0000 0.98560  0.15220  0.52120  Biso   1.000  H
  H141     1.0000 0.93460  0.20050  0.50910  Biso   1.000  H
  H142     1.0000 0.00450  0.18050  0.47360  Biso   1.000  H
  C98      1.0000 0.87900  0.08940  0.42250  Biso   1.000  C
  H143     1.0000 0.95510  0.09960  0.42590  Biso   1.000  H
  H144     1.0000 0.83880  0.08710  0.38590  Biso   1.000  H
  H145     1.0000 0.85800  0.05380  0.43160  Biso   1.000  H
  C99      1.0000 0.51660  0.97090  0.32180  Biso   1.000  C
  N1       1.0000 0.58800  0.24180  0.12380  Biso   1.000  N
  N2       1.0000 0.59080  0.23820  0.34840  Biso   1.000  N
  N3       1.0000 0.94300  0.38120  0.31330  Biso   1.000  N
  N4       1.0000 0.86530  0.13300  0.25130  Biso   1.000  N
  N5       1.0000 0.50900  0.24510  0.43520  Biso   1.000  N
  N6       1.0000 0.45700  0.24680  0.02730  Biso   1.000  N
  N7       1.0000 0.90840  0.03220  0.23910  Biso   1.000  N
  N8       1.0000 0.06700  0.49000  0.35190  Biso   1.000  N
  O1       1.0000 0.36510  0.09120  0.51240  Biso   1.000  O
  O2       1.0000 0.37290  0.47930  0.48450  Biso   1.000  O
  O3       1.0000 0.30850  0.97470  0.46840  Biso   1.000  O
  O4       1.0000 0.52470  0.17100  0.49520  Biso   1.000  O
  O5       1.0000 0.98990  0.00900  0.06310  Biso   1.000  O
  O6       1.0000 0.51210  0.06370  0.49010  Biso   1.000  O
  O7       1.0000 0.66880  0.12920  0.55740  Biso   1.000  O
  O8       1.0000 0.83550  0.92900  0.96860  Biso   1.000  O
  O9       1.0000 0.41450  0.00510  0.39080  Biso   1.000  O
  O10      1.0000 0.90410  0.92020  0.07700  Biso   1.000  O
  O11      1.0000 0.15890  0.43580  0.46270  Biso   1.000  O
  O12      1.0000 0.99230  0.11050  0.04460  Biso   1.000  O
  O13      1.0000 0.79370  0.10280  0.48720  Biso   1.000  O
  O14      1.0000 0.17040  0.03110  0.12310  Biso   1.000  O
  O15      1.0000 0.02730  0.08850  0.14950  Biso   1.000  O
  O16      1.0000 0.62650  0.13770  0.45130  Biso   1.000  O
  O17      1.0000 0.61240  0.02410  0.42260  Biso   1.000  O
  O18      1.0000 0.41460  0.48290  0.39080  Biso   1.000  O
  O19      1.0000 0.31240  0.38150  0.47490  Biso   1.000  O
  O20      1.0000 0.18870  0.14570  0.12210  Biso   1.000  O
  O21      1.0000 0.00400  0.00480  0.16700  Biso   1.000  O
  O22      1.0000 0.30030  0.51530  0.55320  Biso   1.000  O
  O23      1.0000 0.82020  0.03460  0.01110  Biso   1.000  O
  O24      1.0000 0.51850  0.17860  0.59580  Biso   1.000  O
  O25      1.0000 0.53880  0.44980  0.02300  Biso   1.000  O
  O26      1.0000 0.58200  0.56060  0.41970  Biso   1.000  O
  O27      1.0000 0.49130  0.58630  0.55480  Biso   1.000  O
  O28      1.0000 0.10400  0.92870  0.15610  Biso   1.000  O
  O29      1.0000 0.49130  0.92700  0.40290  Biso   1.000  O
  O30      1.0000 0.41990  0.57220  0.44560  Biso   1.000  O
  O31      1.0000 0.35240  0.39730  0.94470  Biso   1.000  O
  O32      1.0000 0.49640  0.33990  0.99270  Biso   1.000  O
  O33      1.0000 0.90450  0.07400  0.94640  Biso   1.000  O
  O34      1.0000 0.21340  0.51800  0.44530  Biso   1.000  O
  O35      1.0000 0.25920  0.46900  0.95800  Biso   1.000  O
  O36      1.0000 0.48510  0.54080  0.08650  Biso   1.000  O
  O37      1.0000 0.72240  0.95310  0.04610  Biso   1.000  O
  O38      1.0000 0.34520  0.43470  0.03610  Biso   1.000  O
  O39      1.0000 0.26990  0.05610  0.40540  Biso   1.000  O
  O40      1.0000 0.64910  0.48570  0.11410  Biso   1.000  O
  O41      1.0000 0.30840  0.61190  0.51190  Biso   1.000  O
  O42      1.0000 0.29230  0.37930  0.37090  Biso   1.000  O
  O43      1.0000 0.20410  0.40110  0.55510  Biso   1.000  O
  O44      1.0000 0.63580  0.37940  0.06590  Biso   1.000  O
  O45      1.0000 0.46080  0.44640  0.13590  Biso   1.000  O
  O46      1.0000 0.66330  0.42110  0.97800  Biso   1.000  O
  O47      1.0000 0.47650  0.34920  0.89450  Biso   1.000  O
  O48      1.0000 0.82010  0.45460  0.08230  Biso   1.000  O
  C100     1.0000 0.30400  0.11990  0.35500  Biso   1.000  C
  C101     1.0000 0.15300  0.07700  0.34200  Biso   1.000  C
  Ti13     1.0000 0.48315  0.87860  0.45025  Biso   1.000  Ti
  Ti14     1.0000 0.89961  0.91883  0.91474  Biso   1.000  Ti
  Ti15     1.0000 0.33711  0.92441  0.50844  Biso   1.000  Ti
  Ti16     1.0000 0.63358  0.96490  0.54968  Biso   1.000  Ti
  Ti17     1.0000 0.61687  0.57404  0.57014  Biso   1.000  Ti
  Ti18     1.0000 0.15350  0.03206  0.96971  Biso   1.000  Ti
  Ti19     1.0000 0.63865  0.44448  0.49670  Biso   1.000  Ti
  Ti20     1.0000 0.94705  0.03626  0.89144  Biso   1.000  Ti
  Ti21     1.0000 0.70769  0.56167  0.47441  Biso   1.000  Ti
  Ti22     1.0000 0.50973  0.52749  0.91864  Biso   1.000  Ti
  Ti23     1.0000 0.49900  0.59675  0.05067  Biso   1.000  Ti
  Ti24     1.0000 0.30918  0.54203  0.94751  Biso   1.000  Ti
  Cu5      1.0000 0.32793  0.75874  0.70631  Biso   1.000  Cu
  Cu6      1.0000 0.31691  0.75712  0.80380  Biso   1.000  Cu
  Cu7      1.0000 0.18566  0.79925  0.74480  Biso   1.000  Cu
  Cu8      1.0000 0.15642  0.69505  0.71609  Biso   1.000  Cu
  I5       1.0000 0.12906  0.75209  0.64228  Biso   1.000  I
  I6       1.0000 0.34527  0.67061  0.74379  Biso   1.000  I
  I7       1.0000 0.40016  0.85043  0.77974  Biso   1.000  I
  I8       1.0000 0.11408  0.73636  0.80551  Biso   1.000  I
  P5       1.0000 0.71040  0.57954  0.02254  Biso   1.000  P
  P6       1.0000 0.49200  0.01725  0.61140  Biso   1.000  P
  P7       1.0000 0.53810  0.45560  0.59579  Biso   1.000  P
  P8       1.0000 0.11150  0.91415  0.99893  Biso   1.000  P
  C102     1.0000 0.06230  0.58170  0.71530  Biso   1.000  C
  H146     1.0000 0.11050  0.59230  0.74990  Biso   1.000  H
  C103     1.0000 0.00110  0.52840  0.69690  Biso   1.000  C
  H147     1.0000 0.00710  0.50370  0.71960  Biso   1.000  H
  C104     1.0000 0.92750  0.54810  0.61920  Biso   1.000  C
  C105     1.0000 0.14290  0.95160  0.72530  Biso   1.000  C
  H148     1.0000 0.16350  0.97510  0.70320  Biso   1.000  H
  C106     1.0000 0.98780  0.60100  0.63790  Biso   1.000  C
  H149     1.0000 0.98070  0.62620  0.61580  Biso   1.000  H
  C107     1.0000 0.84530  0.52890  0.56570  Biso   1.000  C
  C108     1.0000 0.57960  0.43370  0.65570  Biso   1.000  C
  C109     1.0000 0.51360  0.41770  0.68460  Biso   1.000  C
  H150     1.0000 0.44200  0.41850  0.67270  Biso   1.000  H
  C110     1.0000 0.54500  0.40040  0.73020  Biso   1.000  C
  H151     1.0000 0.49450  0.38670  0.74800  Biso   1.000  H
  C111     1.0000 0.64500  0.40300  0.74890  Biso   1.000  C
  H152     1.0000 0.66730  0.39240  0.78140  Biso   1.000  H
  C112     1.0000 0.71500  0.41940  0.72520  Biso   1.000  C
  H153     1.0000 0.78760  0.42130  0.74050  Biso   1.000  H
  C113     1.0000 0.68440  0.43520  0.67480  Biso   1.000  C
  H154     1.0000 0.73430  0.44590  0.65590  Biso   1.000  H
  C114     1.0000 0.71820  0.45750  0.39870  Biso   1.000  C
  H155     1.0000 0.68620  0.41750  0.39510  Biso   1.000  H
  C115     1.0000 0.65530  0.47090  0.34990  Biso   1.000  C
  H156     1.0000 0.67890  0.51030  0.35230  Biso   1.000  H
  H157     1.0000 0.66660  0.45130  0.31830  Biso   1.000  H
  H158     1.0000 0.57950  0.45990  0.34760  Biso   1.000  H
  C116     1.0000 0.83240  0.46480  0.40770  Biso   1.000  C
  H159     1.0000 0.87010  0.50390  0.41680  Biso   1.000  H
  H160     1.0000 0.85860  0.44810  0.43690  Biso   1.000  H
  H161     1.0000 0.84490  0.44720  0.37540  Biso   1.000  H
  C117     1.0000 0.88400  0.62330  0.42250  Biso   1.000  C
  H162     1.0000 0.92700  0.59930  0.41180  Biso   1.000  H
  C118     1.0000 0.82800  0.64100  0.38600  Biso   1.000  C
  H163     1.0000 0.83870  0.62670  0.35150  Biso   1.000  H
  H164     1.0000 0.75320  0.62750  0.38380  Biso   1.000  H
  H165     1.0000 0.85080  0.68070  0.39390  Biso   1.000  H
  C119     1.0000 0.94000  0.67500  0.45500  Biso   1.000  C
  C120     1.0000 0.70680  0.67640  0.53150  Biso   1.000  C
  H166     1.0000 0.67900  0.68610  0.56220  Biso   1.000  H
  C121     1.0000 0.64290  0.69270  0.49140  Biso   1.000  C
  H167     1.0000 0.63430  0.66930  0.45710  Biso   1.000  H
  H168     1.0000 0.57320  0.68930  0.49740  Biso   1.000  H
  H169     1.0000 0.67630  0.73080  0.49160  Biso   1.000  H
  C122     1.0000 0.82350  0.70420  0.55430  Biso   1.000  C
  H170     1.0000 0.83960  0.74090  0.54710  Biso   1.000  H
  H171     1.0000 0.84400  0.70710  0.59270  Biso   1.000  H
  H172     1.0000 0.86330  0.68290  0.53800  Biso   1.000  H
  C123     1.0000 0.73500  0.63790  0.68440  Biso   1.000  C
  H173     1.0000 0.66700  0.62930  0.69390  Biso   1.000  H
  C124     1.0000 0.80000  0.61780  0.71640  Biso   1.000  C
  C125     1.0000 0.77600  0.69920  0.69690  Biso   1.000  C
  C126     1.0000 0.77630  0.36720  0.51070  Biso   1.000  C
  H174     1.0000 0.84050  0.39970  0.52350  Biso   1.000  H
  C127     1.0000 0.76500  0.34970  0.55730  Biso   1.000  C
  H175     1.0000 0.81360  0.32800  0.56710  Biso   1.000  H
  H176     1.0000 0.78080  0.38160  0.58620  Biso   1.000  H
  H177     1.0000 0.69140  0.32730  0.55080  Biso   1.000  H
  C128     1.0000 0.80010  0.33150  0.47290  Biso   1.000  C
  H178     1.0000 0.73400  0.30340  0.45230  Biso   1.000  H
  H179     1.0000 0.82920  0.35210  0.44920  Biso   1.000  H
  C129     1.0000 0.39800  0.71340  0.89560  Biso   1.000  C
  H180     1.0000 0.34070  0.68210  0.87640  Biso   1.000  H
  C130     1.0000 0.46480  0.71120  0.94310  Biso   1.000  C
  C131     1.0000 0.55380  0.79770  0.95210  Biso   1.000  C
  H181     1.0000 0.60920  0.82960  0.97200  Biso   1.000  H
  C132     1.0000 0.49110  0.80060  0.90500  Biso   1.000  C
  H182     1.0000 0.50470  0.83350  0.89280  Biso   1.000  H
  C133     1.0000 0.44330  0.65890  0.96340  Biso   1.000  C
  C134     1.0000 0.83340  0.63220  0.03500  Biso   1.000  C
  C135     1.0000 0.91160  0.64560  0.08330  Biso   1.000  C
  H183     1.0000 0.90180  0.62590  0.10990  Biso   1.000  H
  C136     1.0000 0.00400  0.68770  0.09280  Biso   1.000  C
  H184     1.0000 0.05740  0.69680  0.12580  Biso   1.000  H
  C137     1.0000 0.01840  0.71650  0.05390  Biso   1.000  C
  H185     1.0000 0.08160  0.74530  0.06030  Biso   1.000  H
  C138     1.0000 0.94030  0.70310  0.00550  Biso   1.000  C
  H186     1.0000 0.95010  0.72280  0.97900  Biso   1.000  H
  C139     1.0000 0.84780  0.66100  0.99610  Biso   1.000  C
  H187     1.0000 0.79440  0.65190  0.96300  Biso   1.000  H
  C140     1.0000 0.60800  0.58310  0.84180  Biso   1.000  C
  H188     1.0000 0.55480  0.57250  0.80610  Biso   1.000  H
  C141     1.0000 0.61200  0.63370  0.84700  Biso   1.000  C
  H189     1.0000 0.59900  0.64270  0.81200  Biso   1.000  H
  H190     1.0000 0.55740  0.64080  0.86330  Biso   1.000  H
  H191     1.0000 0.68220  0.65630  0.86960  Biso   1.000  H
  C142     1.0000 0.66800  0.55760  0.82500  Biso   1.000  C
  H192     1.0000 0.73660  0.56690  0.85290  Biso   1.000  H
  H193     1.0000 0.63440  0.51820  0.81770  Biso   1.000  H
  H194     1.0000 0.68040  0.56820  0.79320  Biso   1.000  H
  C143     1.0000 0.28700  0.48900  0.83320  Biso   1.000  C
  H195     1.0000 0.21440  0.47850  0.83810  Biso   1.000  H
  C144     1.0000 0.29800  0.43770  0.81310  Biso   1.000  C
  H196     1.0000 0.30600  0.43630  0.77740  Biso   1.000  H
  H197     1.0000 0.36080  0.43210  0.83630  Biso   1.000  H
  H198     1.0000 0.23460  0.40890  0.81160  Biso   1.000  H
  C145     1.0000 0.27710  0.52930  0.79990  Biso   1.000  C
  H199     1.0000 0.21830  0.51230  0.76750  Biso   1.000  H
  H200     1.0000 0.26330  0.56070  0.81960  Biso   1.000  H
  H201     1.0000 0.34340  0.54140  0.79060  Biso   1.000  H
  C146     1.0000 0.08800  0.55750  0.89480  Biso   1.000  C
  C147     1.0000 0.09400  0.60670  0.88900  Biso   1.000  C
  H202     1.0000 0.09360  0.62930  0.92190  Biso   1.000  H
  H203     1.0000 0.16040  0.62180  0.88060  Biso   1.000  H
  H204     1.0000 0.03350  0.60640  0.86000  Biso   1.000  H
  C148     1.0000 0.00300  0.51900  0.87200  Biso   1.000  C
  H205     1.0000 0.96980  0.50660  0.89820  Biso   1.000  H
  H206     1.0000 0.95450  0.53190  0.84670  Biso   1.000  H
  H207     1.0000 0.02100  0.48850  0.85250  Biso   1.000  H
  C149     1.0000 0.26200  0.58950  0.04870  Biso   1.000  C
  C150     1.0000 0.23700  0.55860  0.07940  Biso   1.000  C
  H208     1.0000 0.17590  0.52730  0.05910  Biso   1.000  H
  H209     1.0000 0.29710  0.54550  0.09480  Biso   1.000  H
  H210     1.0000 0.21780  0.57930  0.10790  Biso   1.000  H
  C151     1.0000 0.25600  0.64500  0.05240  Biso   1.000  C
  H211     1.0000 0.23080  0.65590  0.08270  Biso   1.000  H
  H212     1.0000 0.32710  0.66960  0.05720  Biso   1.000  H
  H213     1.0000 0.20720  0.64730  0.01970  Biso   1.000  H
  C152     1.0000 0.16490  0.90270  0.72110  Biso   1.000  C
  H214     1.0000 0.20360  0.89390  0.69730  Biso   1.000  H
  C153     1.0000 0.08170  0.88120  0.78250  Biso   1.000  C
  H215     1.0000 0.05840  0.85670  0.80330  Biso   1.000  H
  C154     1.0000 0.06060  0.93170  0.78720  Biso   1.000  C
  C155     1.0000 0.00550  0.94720  0.82750  Biso   1.000  C
  C156     1.0000 0.18450  0.86410  0.00130  Biso   1.000  C
  C157     1.0000 0.24420  0.86060  0.04830  Biso   1.000  C
  H216     1.0000 0.24720  0.88460  0.07970  Biso   1.000  H
  C158     1.0000 0.30250  0.82200  0.05190  Biso   1.000  C
  H217     1.0000 0.34510  0.82020  0.08510  Biso   1.000  H
  C159     1.0000 0.29630  0.78810  0.00690  Biso   1.000  C
  H218     1.0000 0.33560  0.76210  0.00840  Biso   1.000  H
  C160     1.0000 0.23600  0.79040  0.96090  Biso   1.000  C
  H219     1.0000 0.23250  0.76600  0.92950  Biso   1.000  H
  C161     1.0000 0.17860  0.82830  0.95820  Biso   1.000  C
  H220     1.0000 0.13400  0.82870  0.92480  Biso   1.000  H
  C162     1.0000 0.79040  0.80530  0.84050  Biso   1.000  C
  H221     1.0000 0.81570  0.81590  0.81030  Biso   1.000  H
  C163     1.0000 0.67840  0.78050  0.81960  Biso   1.000  C
  H222     1.0000 0.64080  0.80750  0.82710  Biso   1.000  H
  H223     1.0000 0.66030  0.76690  0.78120  Biso   1.000  H
  H224     1.0000 0.65720  0.75000  0.83620  Biso   1.000  H
  C164     1.0000 0.85120  0.77170  0.86100  Biso   1.000  C
  H225     1.0000 0.83320  0.73740  0.83470  Biso   1.000  H
  H226     1.0000 0.92700  0.79060  0.86890  Biso   1.000  H
  H227     1.0000 0.83570  0.76380  0.89350  Biso   1.000  H
  C165     1.0000 0.71730  0.95490  0.84820  Biso   1.000  C
  H228     1.0000 0.69690  0.91780  0.85590  Biso   1.000  H
  C166     1.0000 0.69980  0.93610  0.79160  Biso   1.000  C
  H229     1.0000 0.70870  0.96760  0.77510  Biso   1.000  H
  H230     1.0000 0.75130  0.91650  0.78600  Biso   1.000  H
  H231     1.0000 0.62760  0.91160  0.77570  Biso   1.000  H
  C167     1.0000 0.65720  0.97600  0.87280  Biso   1.000  C
  H232     1.0000 0.58260  0.95470  0.85680  Biso   1.000  H
  H233     1.0000 0.67890  0.97500  0.91040  Biso   1.000  H
  H234     1.0000 0.66560  0.01390  0.86950  Biso   1.000  H
  C168     1.0000 0.84900  0.08870  0.79710  Biso   1.000  C
  H235     1.0000 0.77700  0.06120  0.78270  Biso   1.000  H
  C169     1.0000 0.90200  0.07500  0.75850  Biso   1.000  C
  H236     1.0000 0.97440  0.09970  0.76920  Biso   1.000  H
  H237     1.0000 0.90500  0.03730  0.75610  Biso   1.000  H
  H238     1.0000 0.86310  0.07890  0.72380  Biso   1.000  H
  C170     1.0000 0.82500  0.13480  0.81120  Biso   1.000  C
  H239     1.0000 0.81190  0.15180  0.78070  Biso   1.000  H
  H240     1.0000 0.76060  0.12670  0.82300  Biso   1.000  H
  H241     1.0000 0.88390  0.15980  0.84010  Biso   1.000  H
  C171     1.0000 0.15150  0.13460  0.92150  Biso   1.000  C
  H242     1.0000 0.08400  0.13900  0.89960  Biso   1.000  H
  C172     1.0000 0.19300  0.13290  0.87660  Biso   1.000  C
  H243     1.0000 0.26050  0.16150  0.88570  Biso   1.000  H
  H244     1.0000 0.20440  0.09710  0.86690  Biso   1.000  H
  H245     1.0000 0.14200  0.13880  0.84660  Biso   1.000  H
  C173     1.0000 0.15600  0.17460  0.96010  Biso   1.000  C
  H246     1.0000 0.15490  0.20700  0.94540  Biso   1.000  H
  H247     1.0000 0.09300  0.16380  0.97250  Biso   1.000  H
  C174     1.0000 0.35720  0.02480  0.94400  Biso   1.000  C
  H248     1.0000 0.37150  0.00240  0.97090  Biso   1.000  H
  C175     1.0000 0.45100  0.06000  0.94850  Biso   1.000  C
  H249     1.0000 0.43920  0.08660  0.92680  Biso   1.000  H
  H250     1.0000 0.48440  0.07920  0.98570  Biso   1.000  H
  H251     1.0000 0.49680  0.04010  0.93630  Biso   1.000  H
  C176     1.0000 0.32300  0.98800  0.89300  Biso   1.000  C
  H252     1.0000 0.38480  0.98010  0.88400  Biso   1.000  H
  H253     1.0000 0.27340  0.95400  0.89390  Biso   1.000  H
  H254     1.0000 0.28750  0.00490  0.86630  Biso   1.000  H
  C177     1.0000 0.45800  0.72270  0.63910  Biso   1.000  C
  H255     1.0000 0.46470  0.69700  0.66070  Biso   1.000  H
  C178     1.0000 0.49710  0.71990  0.59620  Biso   1.000  C
  H256     1.0000 0.52980  0.69210  0.58870  Biso   1.000  H
  C179     1.0000 0.44230  0.79340  0.57670  Biso   1.000  C
  C180     1.0000 0.40220  0.79580  0.61880  Biso   1.000  C
  H257     1.0000 0.36750  0.82310  0.62530  Biso   1.000  H
  C181     1.0000 0.43090  0.83240  0.54060  Biso   1.000  C
  C182     1.0000 0.45700  0.98850  0.70360  Biso   1.000  C
  H258     1.0000 0.44320  0.95150  0.68600  Biso   1.000  H
  C183     1.0000 0.45030  0.00020  0.75380  Biso   1.000  C
  H259     1.0000 0.43210  0.97100  0.77070  Biso   1.000  H
  C184     1.0000 0.46790  0.05030  0.77990  Biso   1.000  C
  H260     1.0000 0.45740  0.05660  0.81400  Biso   1.000  H
  C185     1.0000 0.50100  0.09250  0.75860  Biso   1.000  C
  H261     1.0000 0.52250  0.12900  0.77910  Biso   1.000  H
  C186     1.0000 0.50220  0.08200  0.70530  Biso   1.000  C
  H262     1.0000 0.51630  0.11130  0.68810  Biso   1.000  H
  C187     1.0000 0.77000  0.94170  0.64770  Biso   1.000  C
  C188     1.0000 0.72460  0.89760  0.47330  Biso   1.000  C
  H263     1.0000 0.69000  0.88060  0.43480  Biso   1.000  H
  C189     1.0000 0.74720  0.84980  0.49160  Biso   1.000  C
  H264     1.0000 0.77160  0.85830  0.53040  Biso   1.000  H
  H265     1.0000 0.68260  0.81890  0.47900  Biso   1.000  H
  H266     1.0000 0.80280  0.84020  0.47750  Biso   1.000  H
  C190     1.0000 0.79870  0.94350  0.46920  Biso   1.000  C
  H267     1.0000 0.85200  0.93190  0.45460  Biso   1.000  H
  H268     1.0000 0.76240  0.96310  0.44560  Biso   1.000  H
  H269     1.0000 0.83380  0.96770  0.50430  Biso   1.000  H
  C191     1.0000 0.48700  0.77000  0.37740  Biso   1.000  C
  H270     1.0000 0.56430  0.77360  0.39060  Biso   1.000  H
  C192     1.0000 0.44600  0.72780  0.39380  Biso   1.000  C
  H271     1.0000 0.47980  0.69930  0.38610  Biso   1.000  H
  H272     1.0000 0.45680  0.73810  0.43210  Biso   1.000  H
  H273     1.0000 0.36930  0.71400  0.37560  Biso   1.000  H
  C193     1.0000 0.47300  0.76930  0.32100  Biso   1.000  C
  H274     1.0000 0.41490  0.78430  0.30750  Biso   1.000  H
  H275     1.0000 0.53920  0.79150  0.31670  Biso   1.000  H
  H276     1.0000 0.45750  0.73160  0.30120  Biso   1.000  H
  C194     1.0000 0.23770  0.84010  0.40130  Biso   1.000  C
  H277     1.0000 0.18530  0.85720  0.41260  Biso   1.000  H
  C195     1.0000 0.19640  0.78500  0.40790  Biso   1.000  C
  H278     1.0000 0.25000  0.76540  0.40780  Biso   1.000  H
  H279     1.0000 0.17920  0.78690  0.44170  Biso   1.000  H
  H280     1.0000 0.13200  0.76570  0.37880  Biso   1.000  H
  C196     1.0000 0.23200  0.85520  0.35330  Biso   1.000  C
  H281     1.0000 0.30140  0.86140  0.34680  Biso   1.000  H
  H282     1.0000 0.17930  0.82600  0.32480  Biso   1.000  H
  H283     1.0000 0.21010  0.88890  0.35440  Biso   1.000  H
  C197     1.0000 0.14290  0.87160  0.54350  Biso   1.000  C
  H284     1.0000 0.18490  0.85170  0.56540  Biso   1.000  H
  C198     1.0000 0.04650  0.83120  0.50680  Biso   1.000  C
  H285     1.0000 0.01440  0.84780  0.47880  Biso   1.000  H
  H286     1.0000 0.06540  0.79950  0.49090  Biso   1.000  H
  H287     1.0000 0.99550  0.81950  0.52640  Biso   1.000  H
  C199     1.0000 0.12100  0.91060  0.57750  Biso   1.000  C
  H288     1.0000 0.04490  0.90040  0.57410  Biso   1.000  H
  H289     1.0000 0.16120  0.91290  0.61410  Biso   1.000  H
  H290     1.0000 0.14200  0.94620  0.56840  Biso   1.000  H
  C200     1.0000 0.48340  0.02910  0.67820  Biso   1.000  C
  N9       1.0000 0.41200  0.75820  0.87620  Biso   1.000  N
  N10      1.0000 0.40920  0.76180  0.65160  Biso   1.000  N
  N11      1.0000 0.05700  0.61880  0.68670  Biso   1.000  N
  N12      1.0000 0.13470  0.86700  0.74870  Biso   1.000  N
  N13      1.0000 0.49100  0.75490  0.56480  Biso   1.000  N
  N14      1.0000 0.54300  0.75320  0.97270  Biso   1.000  N
  N15      1.0000 0.09160  0.96780  0.76090  Biso   1.000  N
  N16      1.0000 0.93300  0.51000  0.64810  Biso   1.000  N
  O49      1.0000 0.63490  0.90880  0.48760  Biso   1.000  O
  O50      1.0000 0.62710  0.52070  0.51550  Biso   1.000  O
  O51      1.0000 0.69150  0.02530  0.53160  Biso   1.000  O
  O52      1.0000 0.47530  0.82900  0.50480  Biso   1.000  O
  O53      1.0000 0.01010  0.99100  0.93690  Biso   1.000  O
  O54      1.0000 0.48790  0.93630  0.50990  Biso   1.000  O
  O55      1.0000 0.33120  0.87080  0.44260  Biso   1.000  O
  O56      1.0000 0.16450  0.07100  0.03140  Biso   1.000  O
  O57      1.0000 0.58550  0.99490  0.60920  Biso   1.000  O
  O58      1.0000 0.09590  0.07980  0.92300  Biso   1.000  O
  O59      1.0000 0.84110  0.56420  0.53730  Biso   1.000  O
  O60      1.0000 0.00770  0.88950  0.95540  Biso   1.000  O
  O61      1.0000 0.20630  0.89720  0.51280  Biso   1.000  O
  O62      1.0000 0.82960  0.96890  0.87690  Biso   1.000  O
  O63      1.0000 0.97270  0.91150  0.85050  Biso   1.000  O
  O64      1.0000 0.37350  0.86230  0.54870  Biso   1.000  O
  O65      1.0000 0.38760  0.97590  0.57740  Biso   1.000  O
  O66      1.0000 0.58540  0.51710  0.60920  Biso   1.000  O
  O67      1.0000 0.68760  0.61850  0.52510  Biso   1.000  O
  O68      1.0000 0.81130  0.85430  0.87790  Biso   1.000  O
  O69      1.0000 0.99600  0.99520  0.83300  Biso   1.000  O
  O70      1.0000 0.69970  0.48470  0.44680  Biso   1.000  O
  O71      1.0000 0.17980  0.96540  0.98890  Biso   1.000  O
  O72      1.0000 0.48150  0.82140  0.40420  Biso   1.000  O
  O73      1.0000 0.46120  0.55020  0.97700  Biso   1.000  O
  O74      1.0000 0.41800  0.43940  0.58030  Biso   1.000  O
  O75      1.0000 0.50870  0.41370  0.44520  Biso   1.000  O
  O76      1.0000 0.89600  0.07130  0.84390  Biso   1.000  O
  O77      1.0000 0.50870  0.07300  0.59710  Biso   1.000  O
  O78      1.0000 0.58010  0.42780  0.55440  Biso   1.000  O
  O79      1.0000 0.64760  0.60270  0.05530  Biso   1.000  O
  O80      1.0000 0.50360  0.66010  0.00730  Biso   1.000  O
  O81      1.0000 0.09550  0.92600  0.05360  Biso   1.000  O
  O82      1.0000 0.78660  0.48200  0.55470  Biso   1.000  O
  O83      1.0000 0.74080  0.53100  0.04200  Biso   1.000  O
  O84      1.0000 0.51490  0.45920  0.91350  Biso   1.000  O
  O85      1.0000 0.27760  0.04690  0.95390  Biso   1.000  O
  O86      1.0000 0.65480  0.56530  0.96390  Biso   1.000  O
  O87      1.0000 0.73010  0.94390  0.59460  Biso   1.000  O
  O88      1.0000 0.35090  0.51430  0.88590  Biso   1.000  O
  O89      1.0000 0.69160  0.38810  0.48810  Biso   1.000  O
  O90      1.0000 0.70770  0.62070  0.62910  Biso   1.000  O
  O91      1.0000 0.79590  0.59890  0.44490  Biso   1.000  O
  O92      1.0000 0.36420  0.62060  0.93410  Biso   1.000  O
  O93      1.0000 0.53920  0.55360  0.86410  Biso   1.000  O
  O94      1.0000 0.33670  0.57890  0.02200  Biso   1.000  O
  O95      1.0000 0.52350  0.65080  0.10550  Biso   1.000  O
  O96      1.0000 0.17990  0.54540  0.91770  Biso   1.000  O
  C201     1.0000 0.69600  0.88010  0.64500  Biso   1.000  C
  C202     1.0000 0.84700  0.92300  0.65800  Biso   1.000  C
