data_image0
_cell_length_a       25.6965
_cell_length_b       25.6965
_cell_length_c       25.6965
_cell_angle_alpha    77.2739
_cell_angle_beta     77.2739
_cell_angle_gamma    77.2739

_symmetry_space_group_name_H-M    P 1
_symmetry_int_tables_number       1

loop_
  _symmetry_equiv_pos_as_xyz
  'x, y, z'

loop_
  _atom_site_label
  _atom_site_occupancy
  _atom_site_fract_x
  _atom_site_fract_y
  _atom_site_fract_z
  _atom_site_thermal_displace_type
  _atom_site_B_iso_or_equiv
  _atom_site_type_symbol
  Mn1      1.0000 0.05969  0.48379  0.29188  Biso   1.000  Mn
  Mn2      1.0000 0.20727  0.76957  0.98851  Biso   1.000  Mn
  Mn3      1.0000 0.17358  0.50263  0.99151  Biso   1.000  Mn
  Mn4      1.0000 0.25532  0.51383  0.69130  Biso   1.000  Mn
  Mn5      1.0000 0.29188  0.05969  0.48379  Biso   1.000  Mn
  Mn6      1.0000 0.98851  0.20727  0.76957  Biso   1.000  Mn
  Mn7      1.0000 0.99151  0.17358  0.50263  Biso   1.000  Mn
  Mn8      1.0000 0.69130  0.25532  0.51383  Biso   1.000  Mn
  Mn9      1.0000 0.48379  0.29188  0.05969  Biso   1.000  Mn
  Mn10     1.0000 0.76957  0.98851  0.20727  Biso   1.000  Mn
  Mn11     1.0000 0.50263  0.99151  0.17358  Biso   1.000  Mn
  Mn12     1.0000 0.51383  0.69130  0.25532  Biso   1.000  Mn
  Mn13     1.0000 0.94031  0.51621  0.70812  Biso   1.000  Mn
  Mn14     1.0000 0.79273  0.23043  0.01149  Biso   1.000  Mn
  Mn15     1.0000 0.82642  0.49737  0.00849  Biso   1.000  Mn
  Mn16     1.0000 0.74468  0.48617  0.30870  Biso   1.000  Mn
  Mn17     1.0000 0.70812  0.94031  0.51621  Biso   1.000  Mn
  Mn18     1.0000 0.01149  0.79273  0.23043  Biso   1.000  Mn
  Mn19     1.0000 0.00849  0.82642  0.49737  Biso   1.000  Mn
  Mn20     1.0000 0.30870  0.74468  0.48617  Biso   1.000  Mn
  Mn21     1.0000 0.51621  0.70812  0.94031  Biso   1.000  Mn
  Mn22     1.0000 0.23043  0.01149  0.79273  Biso   1.000  Mn
  Mn23     1.0000 0.49737  0.00849  0.82642  Biso   1.000  Mn
  Mn24     1.0000 0.48617  0.30870  0.74468  Biso   1.000  Mn
  Mo1      1.0000 0.07987  0.64059  0.11727  Biso   1.000  Mo
  Mo2      1.0000 0.35756  0.45161  0.85351  Biso   1.000  Mo
  Mo3      1.0000 0.11727  0.07987  0.64059  Biso   1.000  Mo
  Mo4      1.0000 0.85351  0.35756  0.45161  Biso   1.000  Mo
  Mo5      1.0000 0.64059  0.11727  0.07987  Biso   1.000  Mo
  Mo6      1.0000 0.45161  0.85351  0.35756  Biso   1.000  Mo
  Mo7      1.0000 0.92013  0.35941  0.88273  Biso   1.000  Mo
  Mo8      1.0000 0.64244  0.54839  0.14649  Biso   1.000  Mo
  Mo9      1.0000 0.88273  0.92013  0.35941  Biso   1.000  Mo
  Mo10     1.0000 0.14649  0.64244  0.54839  Biso   1.000  Mo
  Mo11     1.0000 0.35941  0.88273  0.92013  Biso   1.000  Mo
  Mo12     1.0000 0.54839  0.14649  0.64244  Biso   1.000  Mo
  H1       1.0000 0.04730  0.40220  0.37560  Biso   1.000  H
  H2       1.0000 0.13680  0.41560  0.16590  Biso   1.000  H
  H3       1.0000 0.11220  0.38420  0.22220  Biso   1.000  H
  H4       1.0000 0.05520  0.47480  0.16100  Biso   1.000  H
  H5       1.0000 0.04480  0.41510  0.17110  Biso   1.000  H
  H6       1.0000 0.94570  0.47250  0.21670  Biso   1.000  H
  H7       1.0000 0.97350  0.52150  0.21520  Biso   1.000  H
  H8       1.0000 0.90530  0.52360  0.28130  Biso   1.000  H
  H9       1.0000 0.92090  0.46150  0.30380  Biso   1.000  H
  H10      1.0000 0.88380  0.52140  0.42230  Biso   1.000  H
  H11      1.0000 0.88020  0.57800  0.38340  Biso   1.000  H
  H12      1.0000 0.87060  0.52760  0.36420  Biso   1.000  H
  H13      1.0000 0.94490  0.56500  0.45560  Biso   1.000  H
  H14      1.0000 0.01810  0.57800  0.49120  Biso   1.000  H
  H15      1.0000 0.10760  0.54950  0.44970  Biso   1.000  H
  H16      1.0000 0.20370  0.54130  0.35280  Biso   1.000  H
  H17      1.0000 0.18640  0.50800  0.41060  Biso   1.000  H
  H18      1.0000 0.21790  0.47790  0.36300  Biso   1.000  H
  H19      1.0000 0.21800  0.44880  0.29810  Biso   1.000  H
  H20      1.0000 0.20190  0.49830  0.25270  Biso   1.000  H
  H21      1.0000 0.16990  0.39800  0.27430  Biso   1.000  H
  H22      1.0000 0.20640  0.42210  0.22120  Biso   1.000  H
  H23      1.0000 0.34370  0.66370  0.99410  Biso   1.000  H
  H24      1.0000 0.35450  0.72320  0.98470  Biso   1.000  H
  H25      1.0000 0.32340  0.70170  0.07570  Biso   1.000  H
  H26      1.0000 0.27590  0.67740  0.06650  Biso   1.000  H
  H27      1.0000 0.21150  0.73750  0.12120  Biso   1.000  H
  H28      1.0000 0.24870  0.77620  0.12660  Biso   1.000  H
  H29      1.0000 0.19730  0.85010  0.07320  Biso   1.000  H
  H30      1.0000 0.15970  0.82670  0.12640  Biso   1.000  H
  H31      1.0000 0.08430  0.86330  0.06860  Biso   1.000  H
  H32      1.0000 0.12990  0.87970  0.01950  Biso   1.000  H
  H33      1.0000 0.06080  0.86270  0.98350  Biso   1.000  H
  H34      1.0000 0.06120  0.80600  0.02210  Biso   1.000  H
  H35      1.0000 0.06560  0.84640  0.86720  Biso   1.000  H
  H36      1.0000 0.05730  0.78590  0.88290  Biso   1.000  H
  H37      1.0000 0.03400  0.82500  0.92470  Biso   1.000  H
  H38      1.0000 0.13460  0.77330  0.81550  Biso   1.000  H
  H39      1.0000 0.21710  0.73090  0.76790  Biso   1.000  H
  H40      1.0000 0.29180  0.70820  0.80590  Biso   1.000  H
  H41      1.0000 0.38280  0.71170  0.88750  Biso   1.000  H
  H42      1.0000 0.36610  0.65500  0.89430  Biso   1.000  H
  H43      1.0000 0.35810  0.69890  0.84220  Biso   1.000  H
  H44      1.0000 0.30650  0.51140  0.04470  Biso   1.000  H
  H45      1.0000 0.24630  0.53260  0.07080  Biso   1.000  H
  H46      1.0000 0.28800  0.55280  0.95940  Biso   1.000  H
  H47      1.0000 0.27600  0.59600  0.99750  Biso   1.000  H
  H48      1.0000 0.21360  0.64720  0.93190  Biso   1.000  H
  H49      1.0000 0.22610  0.59630  0.90370  Biso   1.000  H
  H50      1.0000 0.13970  0.64000  0.89000  Biso   1.000  H
  H51      1.0000 0.12120  0.64660  0.95110  Biso   1.000  H
  H52      1.0000 0.05690  0.63750  0.88170  Biso   1.000  H
  H53      1.0000 0.03080  0.59130  0.87240  Biso   1.000  H
  H54      1.0000 0.00910  0.61650  0.92500  Biso   1.000  H
  H55      1.0000 0.99790  0.51180  0.91760  Biso   1.000  H
  H56      1.0000 0.99740  0.42120  0.94240  Biso   1.000  H
  H57      1.0000 0.05890  0.36240  0.99040  Biso   1.000  H
  H58      1.0000 0.14420  0.31130  0.06180  Biso   1.000  H
  H59      1.0000 0.12490  0.31770  0.00660  Biso   1.000  H
  H60      1.0000 0.18700  0.30870  0.00810  Biso   1.000  H
  H61      1.0000 0.25310  0.36950  0.03120  Biso   1.000  H
  H62      1.0000 0.21340  0.36000  0.08700  Biso   1.000  H
  H63      1.0000 0.21780  0.44020  0.10410  Biso   1.000  H
  H64      1.0000 0.27780  0.41080  0.08700  Biso   1.000  H
  H65      1.0000 0.32130  0.43030  0.53230  Biso   1.000  H
  H66      1.0000 0.32300  0.37250  0.56860  Biso   1.000  H
  H67      1.0000 0.26940  0.40370  0.54840  Biso   1.000  H
  H68      1.0000 0.24570  0.33630  0.63230  Biso   1.000  H
  H69      1.0000 0.19380  0.30150  0.71060  Biso   1.000  H
  H70      1.0000 0.16580  0.34630  0.78170  Biso   1.000  H
  H71      1.0000 0.12440  0.41510  0.84250  Biso   1.000  H
  H72      1.0000 0.18200  0.39150  0.85740  Biso   1.000  H
  H73      1.0000 0.15290  0.44990  0.86680  Biso   1.000  H
  H74      1.0000 0.13970  0.54090  0.81840  Biso   1.000  H
  H75      1.0000 0.19750  0.52760  0.83390  Biso   1.000  H
  H76      1.0000 0.18620  0.61560  0.79410  Biso   1.000  H
  H77      1.0000 0.16390  0.60390  0.74650  Biso   1.000  H
  H78      1.0000 0.23290  0.65170  0.68190  Biso   1.000  H
  H79      1.0000 0.26990  0.65560  0.72170  Biso   1.000  H
  H80      1.0000 0.34060  0.59500  0.68070  Biso   1.000  H
  H81      1.0000 0.32320  0.64540  0.63690  Biso   1.000  H
  H82      1.0000 0.36190  0.57560  0.56900  Biso   1.000  H
  H83      1.0000 0.37160  0.53020  0.61970  Biso   1.000  H
  H84      1.0000 0.35800  0.48760  0.55470  Biso   1.000  H
  H85      1.0000 0.30480  0.52980  0.54560  Biso   1.000  H
  H86      1.0000 0.37560  0.04730  0.40220  Biso   1.000  H
  H87      1.0000 0.16590  0.13680  0.41560  Biso   1.000  H
  H88      1.0000 0.22220  0.11220  0.38420  Biso   1.000  H
  H89      1.0000 0.16100  0.05520  0.47480  Biso   1.000  H
  H90      1.0000 0.17110  0.04480  0.41510  Biso   1.000  H
  H91      1.0000 0.21670  0.94570  0.47250  Biso   1.000  H
  H92      1.0000 0.21520  0.97350  0.52150  Biso   1.000  H
  H93      1.0000 0.28130  0.90530  0.52360  Biso   1.000  H
  H94      1.0000 0.30380  0.92090  0.46150  Biso   1.000  H
  H95      1.0000 0.42230  0.88380  0.52140  Biso   1.000  H
  H96      1.0000 0.38340  0.88020  0.57800  Biso   1.000  H
  H97      1.0000 0.36420  0.87060  0.52760  Biso   1.000  H
  H98      1.0000 0.45560  0.94490  0.56500  Biso   1.000  H
  H99      1.0000 0.49120  0.01810  0.57800  Biso   1.000  H
  H100     1.0000 0.44970  0.10760  0.54950  Biso   1.000  H
  H101     1.0000 0.35280  0.20370  0.54130  Biso   1.000  H
  H102     1.0000 0.41060  0.18640  0.50800  Biso   1.000  H
  H103     1.0000 0.36300  0.21790  0.47790  Biso   1.000  H
  H104     1.0000 0.29810  0.21800  0.44880  Biso   1.000  H
  H105     1.0000 0.25270  0.20190  0.49830  Biso   1.000  H
  H106     1.0000 0.27430  0.16990  0.39800  Biso   1.000  H
  H107     1.0000 0.22120  0.20640  0.42210  Biso   1.000  H
  H108     1.0000 0.99410  0.34370  0.66370  Biso   1.000  H
  H109     1.0000 0.98470  0.35450  0.72320  Biso   1.000  H
  H110     1.0000 0.07570  0.32340  0.70170  Biso   1.000  H
  H111     1.0000 0.06650  0.27590  0.67740  Biso   1.000  H
  H112     1.0000 0.12120  0.21150  0.73750  Biso   1.000  H
  H113     1.0000 0.12660  0.24870  0.77620  Biso   1.000  H
  H114     1.0000 0.07320  0.19730  0.85010  Biso   1.000  H
  H115     1.0000 0.12640  0.15970  0.82670  Biso   1.000  H
  H116     1.0000 0.06860  0.08430  0.86330  Biso   1.000  H
  H117     1.0000 0.01950  0.12990  0.87970  Biso   1.000  H
  H118     1.0000 0.98350  0.06080  0.86270  Biso   1.000  H
  H119     1.0000 0.02210  0.06120  0.80600  Biso   1.000  H
  H120     1.0000 0.86720  0.06560  0.84640  Biso   1.000  H
  H121     1.0000 0.88290  0.05730  0.78590  Biso   1.000  H
  H122     1.0000 0.92470  0.03400  0.82500  Biso   1.000  H
  H123     1.0000 0.81550  0.13460  0.77330  Biso   1.000  H
  H124     1.0000 0.76790  0.21710  0.73090  Biso   1.000  H
  H125     1.0000 0.80590  0.29180  0.70820  Biso   1.000  H
  H126     1.0000 0.88750  0.38280  0.71170  Biso   1.000  H
  H127     1.0000 0.89430  0.36610  0.65500  Biso   1.000  H
  H128     1.0000 0.84220  0.35810  0.69890  Biso   1.000  H
  H129     1.0000 0.04470  0.30650  0.51140  Biso   1.000  H
  H130     1.0000 0.07080  0.24630  0.53260  Biso   1.000  H
  H131     1.0000 0.95940  0.28800  0.55280  Biso   1.000  H
  H132     1.0000 0.99750  0.27600  0.59600  Biso   1.000  H
  H133     1.0000 0.93190  0.21360  0.64720  Biso   1.000  H
  H134     1.0000 0.90370  0.22610  0.59630  Biso   1.000  H
  H135     1.0000 0.89000  0.13970  0.64000  Biso   1.000  H
  H136     1.0000 0.95110  0.12120  0.64660  Biso   1.000  H
  H137     1.0000 0.88170  0.05690  0.63750  Biso   1.000  H
  H138     1.0000 0.87240  0.03080  0.59130  Biso   1.000  H
  H139     1.0000 0.92500  0.00910  0.61650  Biso   1.000  H
  H140     1.0000 0.91760  0.99790  0.51180  Biso   1.000  H
  H141     1.0000 0.94240  0.99740  0.42120  Biso   1.000  H
  H142     1.0000 0.99040  0.05890  0.36240  Biso   1.000  H
  H143     1.0000 0.06180  0.14420  0.31130  Biso   1.000  H
  H144     1.0000 0.00660  0.12490  0.31770  Biso   1.000  H
  H145     1.0000 0.00810  0.18700  0.30870  Biso   1.000  H
  H146     1.0000 0.03120  0.25310  0.36950  Biso   1.000  H
  H147     1.0000 0.08700  0.21340  0.36000  Biso   1.000  H
  H148     1.0000 0.10410  0.21780  0.44020  Biso   1.000  H
  H149     1.0000 0.08700  0.27780  0.41080  Biso   1.000  H
  H150     1.0000 0.53230  0.32130  0.43030  Biso   1.000  H
  H151     1.0000 0.56860  0.32300  0.37250  Biso   1.000  H
  H152     1.0000 0.54840  0.26940  0.40370  Biso   1.000  H
  H153     1.0000 0.63230  0.24570  0.33630  Biso   1.000  H
  H154     1.0000 0.71060  0.19380  0.30150  Biso   1.000  H
  H155     1.0000 0.78170  0.16580  0.34630  Biso   1.000  H
  H156     1.0000 0.84250  0.12440  0.41510  Biso   1.000  H
  H157     1.0000 0.85740  0.18200  0.39150  Biso   1.000  H
  H158     1.0000 0.86680  0.15290  0.44990  Biso   1.000  H
  H159     1.0000 0.81840  0.13970  0.54090  Biso   1.000  H
  H160     1.0000 0.83390  0.19750  0.52760  Biso   1.000  H
  H161     1.0000 0.79410  0.18620  0.61560  Biso   1.000  H
  H162     1.0000 0.74650  0.16390  0.60390  Biso   1.000  H
  H163     1.0000 0.68190  0.23290  0.65170  Biso   1.000  H
  H164     1.0000 0.72170  0.26990  0.65560  Biso   1.000  H
  H165     1.0000 0.68070  0.34060  0.59500  Biso   1.000  H
  H166     1.0000 0.63690  0.32320  0.64540  Biso   1.000  H
  H167     1.0000 0.56900  0.36190  0.57560  Biso   1.000  H
  H168     1.0000 0.61970  0.37160  0.53020  Biso   1.000  H
  H169     1.0000 0.55470  0.35800  0.48760  Biso   1.000  H
  H170     1.0000 0.54560  0.30480  0.52980  Biso   1.000  H
  H171     1.0000 0.40220  0.37560  0.04730  Biso   1.000  H
  H172     1.0000 0.41560  0.16590  0.13680  Biso   1.000  H
  H173     1.0000 0.38420  0.22220  0.11220  Biso   1.000  H
  H174     1.0000 0.47480  0.16100  0.05520  Biso   1.000  H
  H175     1.0000 0.41510  0.17110  0.04480  Biso   1.000  H
  H176     1.0000 0.47250  0.21670  0.94570  Biso   1.000  H
  H177     1.0000 0.52150  0.21520  0.97350  Biso   1.000  H
  H178     1.0000 0.52360  0.28130  0.90530  Biso   1.000  H
  H179     1.0000 0.46150  0.30380  0.92090  Biso   1.000  H
  H180     1.0000 0.52140  0.42230  0.88380  Biso   1.000  H
  H181     1.0000 0.57800  0.38340  0.88020  Biso   1.000  H
  H182     1.0000 0.52760  0.36420  0.87060  Biso   1.000  H
  H183     1.0000 0.56500  0.45560  0.94490  Biso   1.000  H
  H184     1.0000 0.57800  0.49120  0.01810  Biso   1.000  H
  H185     1.0000 0.54950  0.44970  0.10760  Biso   1.000  H
  H186     1.0000 0.54130  0.35280  0.20370  Biso   1.000  H
  H187     1.0000 0.50800  0.41060  0.18640  Biso   1.000  H
  H188     1.0000 0.47790  0.36300  0.21790  Biso   1.000  H
  H189     1.0000 0.44880  0.29810  0.21800  Biso   1.000  H
  H190     1.0000 0.49830  0.25270  0.20190  Biso   1.000  H
  H191     1.0000 0.39800  0.27430  0.16990  Biso   1.000  H
  H192     1.0000 0.42210  0.22120  0.20640  Biso   1.000  H
  H193     1.0000 0.66370  0.99410  0.34370  Biso   1.000  H
  H194     1.0000 0.72320  0.98470  0.35450  Biso   1.000  H
  H195     1.0000 0.70170  0.07570  0.32340  Biso   1.000  H
  H196     1.0000 0.67740  0.06650  0.27590  Biso   1.000  H
  H197     1.0000 0.73750  0.12120  0.21150  Biso   1.000  H
  H198     1.0000 0.77620  0.12660  0.24870  Biso   1.000  H
  H199     1.0000 0.85010  0.07320  0.19730  Biso   1.000  H
  H200     1.0000 0.82670  0.12640  0.15970  Biso   1.000  H
  H201     1.0000 0.86330  0.06860  0.08430  Biso   1.000  H
  H202     1.0000 0.87970  0.01950  0.12990  Biso   1.000  H
  H203     1.0000 0.86270  0.98350  0.06080  Biso   1.000  H
  H204     1.0000 0.80600  0.02210  0.06120  Biso   1.000  H
  H205     1.0000 0.84640  0.86720  0.06560  Biso   1.000  H
  H206     1.0000 0.78590  0.88290  0.05730  Biso   1.000  H
  H207     1.0000 0.82500  0.92470  0.03400  Biso   1.000  H
  H208     1.0000 0.77330  0.81550  0.13460  Biso   1.000  H
  H209     1.0000 0.73090  0.76790  0.21710  Biso   1.000  H
  H210     1.0000 0.70820  0.80590  0.29180  Biso   1.000  H
  H211     1.0000 0.71170  0.88750  0.38280  Biso   1.000  H
  H212     1.0000 0.65500  0.89430  0.36610  Biso   1.000  H
  H213     1.0000 0.69890  0.84220  0.35810  Biso   1.000  H
  H214     1.0000 0.51140  0.04470  0.30650  Biso   1.000  H
  H215     1.0000 0.53260  0.07080  0.24630  Biso   1.000  H
  H216     1.0000 0.55280  0.95940  0.28800  Biso   1.000  H
  H217     1.0000 0.59600  0.99750  0.27600  Biso   1.000  H
  H218     1.0000 0.64720  0.93190  0.21360  Biso   1.000  H
  H219     1.0000 0.59630  0.90370  0.22610  Biso   1.000  H
  H220     1.0000 0.64000  0.89000  0.13970  Biso   1.000  H
  H221     1.0000 0.64660  0.95110  0.12120  Biso   1.000  H
  H222     1.0000 0.63750  0.88170  0.05690  Biso   1.000  H
  H223     1.0000 0.59130  0.87240  0.03080  Biso   1.000  H
  H224     1.0000 0.61650  0.92500  0.00910  Biso   1.000  H
  H225     1.0000 0.51180  0.91760  0.99790  Biso   1.000  H
  H226     1.0000 0.42120  0.94240  0.99740  Biso   1.000  H
  H227     1.0000 0.36240  0.99040  0.05890  Biso   1.000  H
  H228     1.0000 0.31130  0.06180  0.14420  Biso   1.000  H
  H229     1.0000 0.31770  0.00660  0.12490  Biso   1.000  H
  H230     1.0000 0.30870  0.00810  0.18700  Biso   1.000  H
  H231     1.0000 0.36950  0.03120  0.25310  Biso   1.000  H
  H232     1.0000 0.36000  0.08700  0.21340  Biso   1.000  H
  H233     1.0000 0.44020  0.10410  0.21780  Biso   1.000  H
  H234     1.0000 0.41080  0.08700  0.27780  Biso   1.000  H
  H235     1.0000 0.43030  0.53230  0.32130  Biso   1.000  H
  H236     1.0000 0.37250  0.56860  0.32300  Biso   1.000  H
  H237     1.0000 0.40370  0.54840  0.26940  Biso   1.000  H
  H238     1.0000 0.33630  0.63230  0.24570  Biso   1.000  H
  H239     1.0000 0.30150  0.71060  0.19380  Biso   1.000  H
  H240     1.0000 0.34630  0.78170  0.16580  Biso   1.000  H
  H241     1.0000 0.41510  0.84250  0.12440  Biso   1.000  H
  H242     1.0000 0.39150  0.85740  0.18200  Biso   1.000  H
  H243     1.0000 0.44990  0.86680  0.15290  Biso   1.000  H
  H244     1.0000 0.54090  0.81840  0.13970  Biso   1.000  H
  H245     1.0000 0.52760  0.83390  0.19750  Biso   1.000  H
  H246     1.0000 0.61560  0.79410  0.18620  Biso   1.000  H
  H247     1.0000 0.60390  0.74650  0.16390  Biso   1.000  H
  H248     1.0000 0.65170  0.68190  0.23290  Biso   1.000  H
  H249     1.0000 0.65560  0.72170  0.26990  Biso   1.000  H
  H250     1.0000 0.59500  0.68070  0.34060  Biso   1.000  H
  H251     1.0000 0.64540  0.63690  0.32320  Biso   1.000  H
  H252     1.0000 0.57560  0.56900  0.36190  Biso   1.000  H
  H253     1.0000 0.53020  0.61970  0.37160  Biso   1.000  H
  H254     1.0000 0.48760  0.55470  0.35800  Biso   1.000  H
  H255     1.0000 0.52980  0.54560  0.30480  Biso   1.000  H
  H256     1.0000 0.95270  0.59780  0.62440  Biso   1.000  H
  H257     1.0000 0.86320  0.58440  0.83410  Biso   1.000  H
  H258     1.0000 0.88780  0.61580  0.77780  Biso   1.000  H
  H259     1.0000 0.94480  0.52520  0.83900  Biso   1.000  H
  H260     1.0000 0.95520  0.58490  0.82890  Biso   1.000  H
  H261     1.0000 0.05430  0.52750  0.78330  Biso   1.000  H
  H262     1.0000 0.02650  0.47850  0.78480  Biso   1.000  H
  H263     1.0000 0.09470  0.47640  0.71870  Biso   1.000  H
  H264     1.0000 0.07910  0.53850  0.69620  Biso   1.000  H
  H265     1.0000 0.11620  0.47860  0.57770  Biso   1.000  H
  H266     1.0000 0.11980  0.42200  0.61660  Biso   1.000  H
  H267     1.0000 0.12940  0.47240  0.63580  Biso   1.000  H
  H268     1.0000 0.05510  0.43500  0.54440  Biso   1.000  H
  H269     1.0000 0.98190  0.42200  0.50880  Biso   1.000  H
  H270     1.0000 0.89240  0.45050  0.55030  Biso   1.000  H
  H271     1.0000 0.79630  0.45870  0.64720  Biso   1.000  H
  H272     1.0000 0.81360  0.49200  0.58940  Biso   1.000  H
  H273     1.0000 0.78210  0.52210  0.63700  Biso   1.000  H
  H274     1.0000 0.78200  0.55120  0.70190  Biso   1.000  H
  H275     1.0000 0.79810  0.50170  0.74730  Biso   1.000  H
  H276     1.0000 0.83010  0.60200  0.72570  Biso   1.000  H
  H277     1.0000 0.79360  0.57790  0.77880  Biso   1.000  H
  H278     1.0000 0.65630  0.33630  0.00590  Biso   1.000  H
  H279     1.0000 0.64550  0.27680  0.01530  Biso   1.000  H
  H280     1.0000 0.67660  0.29830  0.92430  Biso   1.000  H
  H281     1.0000 0.72410  0.32260  0.93350  Biso   1.000  H
  H282     1.0000 0.78850  0.26250  0.87880  Biso   1.000  H
  H283     1.0000 0.75130  0.22380  0.87340  Biso   1.000  H
  H284     1.0000 0.80270  0.14990  0.92680  Biso   1.000  H
  H285     1.0000 0.84030  0.17330  0.87360  Biso   1.000  H
  H286     1.0000 0.91570  0.13670  0.93140  Biso   1.000  H
  H287     1.0000 0.87010  0.12030  0.98050  Biso   1.000  H
  H288     1.0000 0.93920  0.13730  0.01650  Biso   1.000  H
  H289     1.0000 0.93880  0.19400  0.97790  Biso   1.000  H
  H290     1.0000 0.93440  0.15360  0.13280  Biso   1.000  H
  H291     1.0000 0.94270  0.21410  0.11710  Biso   1.000  H
  H292     1.0000 0.96600  0.17500  0.07530  Biso   1.000  H
  H293     1.0000 0.86540  0.22670  0.18450  Biso   1.000  H
  H294     1.0000 0.78290  0.26910  0.23210  Biso   1.000  H
  H295     1.0000 0.70820  0.29180  0.19410  Biso   1.000  H
  H296     1.0000 0.61720  0.28830  0.11250  Biso   1.000  H
  H297     1.0000 0.63390  0.34500  0.10570  Biso   1.000  H
  H298     1.0000 0.64190  0.30110  0.15780  Biso   1.000  H
  H299     1.0000 0.69350  0.48860  0.95530  Biso   1.000  H
  H300     1.0000 0.75370  0.46740  0.92920  Biso   1.000  H
  H301     1.0000 0.71200  0.44720  0.04060  Biso   1.000  H
  H302     1.0000 0.72400  0.40400  0.00250  Biso   1.000  H
  H303     1.0000 0.78640  0.35280  0.06810  Biso   1.000  H
  H304     1.0000 0.77390  0.40370  0.09630  Biso   1.000  H
  H305     1.0000 0.86030  0.36000  0.11000  Biso   1.000  H
  H306     1.0000 0.87880  0.35340  0.04890  Biso   1.000  H
  H307     1.0000 0.94310  0.36250  0.11830  Biso   1.000  H
  H308     1.0000 0.96920  0.40870  0.12760  Biso   1.000  H
  H309     1.0000 0.99090  0.38350  0.07500  Biso   1.000  H
  H310     1.0000 0.00210  0.48820  0.08240  Biso   1.000  H
  H311     1.0000 0.00260  0.57880  0.05760  Biso   1.000  H
  H312     1.0000 0.94110  0.63760  0.00960  Biso   1.000  H
  H313     1.0000 0.85580  0.68870  0.93820  Biso   1.000  H
  H314     1.0000 0.87510  0.68230  0.99340  Biso   1.000  H
  H315     1.0000 0.81300  0.69130  0.99190  Biso   1.000  H
  H316     1.0000 0.74690  0.63050  0.96880  Biso   1.000  H
  H317     1.0000 0.78660  0.64000  0.91300  Biso   1.000  H
  H318     1.0000 0.78220  0.55980  0.89590  Biso   1.000  H
  H319     1.0000 0.72220  0.58920  0.91300  Biso   1.000  H
  H320     1.0000 0.67870  0.56970  0.46770  Biso   1.000  H
  H321     1.0000 0.67700  0.62750  0.43140  Biso   1.000  H
  H322     1.0000 0.73060  0.59630  0.45160  Biso   1.000  H
  H323     1.0000 0.75430  0.66370  0.36770  Biso   1.000  H
  H324     1.0000 0.80620  0.69850  0.28940  Biso   1.000  H
  H325     1.0000 0.83420  0.65370  0.21830  Biso   1.000  H
  H326     1.0000 0.87560  0.58490  0.15750  Biso   1.000  H
  H327     1.0000 0.81800  0.60850  0.14260  Biso   1.000  H
  H328     1.0000 0.84710  0.55010  0.13320  Biso   1.000  H
  H329     1.0000 0.86030  0.45910  0.18160  Biso   1.000  H
  H330     1.0000 0.80250  0.47240  0.16610  Biso   1.000  H
  H331     1.0000 0.81380  0.38440  0.20590  Biso   1.000  H
  H332     1.0000 0.83610  0.39610  0.25350  Biso   1.000  H
  H333     1.0000 0.76710  0.34830  0.31810  Biso   1.000  H
  H334     1.0000 0.73010  0.34440  0.27830  Biso   1.000  H
  H335     1.0000 0.65940  0.40500  0.31930  Biso   1.000  H
  H336     1.0000 0.67680  0.35460  0.36310  Biso   1.000  H
  H337     1.0000 0.63810  0.42440  0.43100  Biso   1.000  H
  H338     1.0000 0.62840  0.46980  0.38030  Biso   1.000  H
  H339     1.0000 0.64200  0.51240  0.44530  Biso   1.000  H
  H340     1.0000 0.69520  0.47020  0.45440  Biso   1.000  H
  H341     1.0000 0.62440  0.95270  0.59780  Biso   1.000  H
  H342     1.0000 0.83410  0.86320  0.58440  Biso   1.000  H
  H343     1.0000 0.77780  0.88780  0.61580  Biso   1.000  H
  H344     1.0000 0.83900  0.94480  0.52520  Biso   1.000  H
  H345     1.0000 0.82890  0.95520  0.58490  Biso   1.000  H
  H346     1.0000 0.78330  0.05430  0.52750  Biso   1.000  H
  H347     1.0000 0.78480  0.02650  0.47850  Biso   1.000  H
  H348     1.0000 0.71870  0.09470  0.47640  Biso   1.000  H
  H349     1.0000 0.69620  0.07910  0.53850  Biso   1.000  H
  H350     1.0000 0.57770  0.11620  0.47860  Biso   1.000  H
  H351     1.0000 0.61660  0.11980  0.42200  Biso   1.000  H
  H352     1.0000 0.63580  0.12940  0.47240  Biso   1.000  H
  H353     1.0000 0.54440  0.05510  0.43500  Biso   1.000  H
  H354     1.0000 0.50880  0.98190  0.42200  Biso   1.000  H
  H355     1.0000 0.55030  0.89240  0.45050  Biso   1.000  H
  H356     1.0000 0.64720  0.79630  0.45870  Biso   1.000  H
  H357     1.0000 0.58940  0.81360  0.49200  Biso   1.000  H
  H358     1.0000 0.63700  0.78210  0.52210  Biso   1.000  H
  H359     1.0000 0.70190  0.78200  0.55120  Biso   1.000  H
  H360     1.0000 0.74730  0.79810  0.50170  Biso   1.000  H
  H361     1.0000 0.72570  0.83010  0.60200  Biso   1.000  H
  H362     1.0000 0.77880  0.79360  0.57790  Biso   1.000  H
  H363     1.0000 0.00590  0.65630  0.33630  Biso   1.000  H
  H364     1.0000 0.01530  0.64550  0.27680  Biso   1.000  H
  H365     1.0000 0.92430  0.67660  0.29830  Biso   1.000  H
  H366     1.0000 0.93350  0.72410  0.32260  Biso   1.000  H
  H367     1.0000 0.87880  0.78850  0.26250  Biso   1.000  H
  H368     1.0000 0.87340  0.75130  0.22380  Biso   1.000  H
  H369     1.0000 0.92680  0.80270  0.14990  Biso   1.000  H
  H370     1.0000 0.87360  0.84030  0.17330  Biso   1.000  H
  H371     1.0000 0.93140  0.91570  0.13670  Biso   1.000  H
  H372     1.0000 0.98050  0.87010  0.12030  Biso   1.000  H
  H373     1.0000 0.01650  0.93920  0.13730  Biso   1.000  H
  H374     1.0000 0.97790  0.93880  0.19400  Biso   1.000  H
  H375     1.0000 0.13280  0.93440  0.15360  Biso   1.000  H
  H376     1.0000 0.11710  0.94270  0.21410  Biso   1.000  H
  H377     1.0000 0.07530  0.96600  0.17500  Biso   1.000  H
  H378     1.0000 0.18450  0.86540  0.22670  Biso   1.000  H
  H379     1.0000 0.23210  0.78290  0.26910  Biso   1.000  H
  H380     1.0000 0.19410  0.70820  0.29180  Biso   1.000  H
  H381     1.0000 0.11250  0.61720  0.28830  Biso   1.000  H
  H382     1.0000 0.10570  0.63390  0.34500  Biso   1.000  H
  H383     1.0000 0.15780  0.64190  0.30110  Biso   1.000  H
  H384     1.0000 0.95530  0.69350  0.48860  Biso   1.000  H
  H385     1.0000 0.92920  0.75370  0.46740  Biso   1.000  H
  H386     1.0000 0.04060  0.71200  0.44720  Biso   1.000  H
  H387     1.0000 0.00250  0.72400  0.40400  Biso   1.000  H
  H388     1.0000 0.06810  0.78640  0.35280  Biso   1.000  H
  H389     1.0000 0.09630  0.77390  0.40370  Biso   1.000  H
  H390     1.0000 0.11000  0.86030  0.36000  Biso   1.000  H
  H391     1.0000 0.04890  0.87880  0.35340  Biso   1.000  H
  H392     1.0000 0.11830  0.94310  0.36250  Biso   1.000  H
  H393     1.0000 0.12760  0.96920  0.40870  Biso   1.000  H
  H394     1.0000 0.07500  0.99090  0.38350  Biso   1.000  H
  H395     1.0000 0.08240  0.00210  0.48820  Biso   1.000  H
  H396     1.0000 0.05760  0.00260  0.57880  Biso   1.000  H
  H397     1.0000 0.00960  0.94110  0.63760  Biso   1.000  H
  H398     1.0000 0.93820  0.85580  0.68870  Biso   1.000  H
  H399     1.0000 0.99340  0.87510  0.68230  Biso   1.000  H
  H400     1.0000 0.99190  0.81300  0.69130  Biso   1.000  H
  H401     1.0000 0.96880  0.74690  0.63050  Biso   1.000  H
  H402     1.0000 0.91300  0.78660  0.64000  Biso   1.000  H
  H403     1.0000 0.89590  0.78220  0.55980  Biso   1.000  H
  H404     1.0000 0.91300  0.72220  0.58920  Biso   1.000  H
  H405     1.0000 0.46770  0.67870  0.56970  Biso   1.000  H
  H406     1.0000 0.43140  0.67700  0.62750  Biso   1.000  H
  H407     1.0000 0.45160  0.73060  0.59630  Biso   1.000  H
  H408     1.0000 0.36770  0.75430  0.66370  Biso   1.000  H
  H409     1.0000 0.28940  0.80620  0.69850  Biso   1.000  H
  H410     1.0000 0.21830  0.83420  0.65370  Biso   1.000  H
  H411     1.0000 0.15750  0.87560  0.58490  Biso   1.000  H
  H412     1.0000 0.14260  0.81800  0.60850  Biso   1.000  H
  H413     1.0000 0.13320  0.84710  0.55010  Biso   1.000  H
  H414     1.0000 0.18160  0.86030  0.45910  Biso   1.000  H
  H415     1.0000 0.16610  0.80250  0.47240  Biso   1.000  H
  H416     1.0000 0.20590  0.81380  0.38440  Biso   1.000  H
  H417     1.0000 0.25350  0.83610  0.39610  Biso   1.000  H
  H418     1.0000 0.31810  0.76710  0.34830  Biso   1.000  H
  H419     1.0000 0.27830  0.73010  0.34440  Biso   1.000  H
  H420     1.0000 0.31930  0.65940  0.40500  Biso   1.000  H
  H421     1.0000 0.36310  0.67680  0.35460  Biso   1.000  H
  H422     1.0000 0.43100  0.63810  0.42440  Biso   1.000  H
  H423     1.0000 0.38030  0.62840  0.46980  Biso   1.000  H
  H424     1.0000 0.44530  0.64200  0.51240  Biso   1.000  H
  H425     1.0000 0.45440  0.69520  0.47020  Biso   1.000  H
  H426     1.0000 0.59780  0.62440  0.95270  Biso   1.000  H
  H427     1.0000 0.58440  0.83410  0.86320  Biso   1.000  H
  H428     1.0000 0.61580  0.77780  0.88780  Biso   1.000  H
  H429     1.0000 0.52520  0.83900  0.94480  Biso   1.000  H
  H430     1.0000 0.58490  0.82890  0.95520  Biso   1.000  H
  H431     1.0000 0.52750  0.78330  0.05430  Biso   1.000  H
  H432     1.0000 0.47850  0.78480  0.02650  Biso   1.000  H
  H433     1.0000 0.47640  0.71870  0.09470  Biso   1.000  H
  H434     1.0000 0.53850  0.69620  0.07910  Biso   1.000  H
  H435     1.0000 0.47860  0.57770  0.11620  Biso   1.000  H
  H436     1.0000 0.42200  0.61660  0.11980  Biso   1.000  H
  H437     1.0000 0.47240  0.63580  0.12940  Biso   1.000  H
  H438     1.0000 0.43500  0.54440  0.05510  Biso   1.000  H
  H439     1.0000 0.42200  0.50880  0.98190  Biso   1.000  H
  H440     1.0000 0.45050  0.55030  0.89240  Biso   1.000  H
  H441     1.0000 0.45870  0.64720  0.79630  Biso   1.000  H
  H442     1.0000 0.49200  0.58940  0.81360  Biso   1.000  H
  H443     1.0000 0.52210  0.63700  0.78210  Biso   1.000  H
  H444     1.0000 0.55120  0.70190  0.78200  Biso   1.000  H
  H445     1.0000 0.50170  0.74730  0.79810  Biso   1.000  H
  H446     1.0000 0.60200  0.72570  0.83010  Biso   1.000  H
  H447     1.0000 0.57790  0.77880  0.79360  Biso   1.000  H
  H448     1.0000 0.33630  0.00590  0.65630  Biso   1.000  H
  H449     1.0000 0.27680  0.01530  0.64550  Biso   1.000  H
  H450     1.0000 0.29830  0.92430  0.67660  Biso   1.000  H
  H451     1.0000 0.32260  0.93350  0.72410  Biso   1.000  H
  H452     1.0000 0.26250  0.87880  0.78850  Biso   1.000  H
  H453     1.0000 0.22380  0.87340  0.75130  Biso   1.000  H
  H454     1.0000 0.14990  0.92680  0.80270  Biso   1.000  H
  H455     1.0000 0.17330  0.87360  0.84030  Biso   1.000  H
  H456     1.0000 0.13670  0.93140  0.91570  Biso   1.000  H
  H457     1.0000 0.12030  0.98050  0.87010  Biso   1.000  H
  H458     1.0000 0.13730  0.01650  0.93920  Biso   1.000  H
  H459     1.0000 0.19400  0.97790  0.93880  Biso   1.000  H
  H460     1.0000 0.15360  0.13280  0.93440  Biso   1.000  H
  H461     1.0000 0.21410  0.11710  0.94270  Biso   1.000  H
  H462     1.0000 0.17500  0.07530  0.96600  Biso   1.000  H
  H463     1.0000 0.22670  0.18450  0.86540  Biso   1.000  H
  H464     1.0000 0.26910  0.23210  0.78290  Biso   1.000  H
  H465     1.0000 0.29180  0.19410  0.70820  Biso   1.000  H
  H466     1.0000 0.28830  0.11250  0.61720  Biso   1.000  H
  H467     1.0000 0.34500  0.10570  0.63390  Biso   1.000  H
  H468     1.0000 0.30110  0.15780  0.64190  Biso   1.000  H
  H469     1.0000 0.48860  0.95530  0.69350  Biso   1.000  H
  H470     1.0000 0.46740  0.92920  0.75370  Biso   1.000  H
  H471     1.0000 0.44720  0.04060  0.71200  Biso   1.000  H
  H472     1.0000 0.40400  0.00250  0.72400  Biso   1.000  H
  H473     1.0000 0.35280  0.06810  0.78640  Biso   1.000  H
  H474     1.0000 0.40370  0.09630  0.77390  Biso   1.000  H
  H475     1.0000 0.36000  0.11000  0.86030  Biso   1.000  H
  H476     1.0000 0.35340  0.04890  0.87880  Biso   1.000  H
  H477     1.0000 0.36250  0.11830  0.94310  Biso   1.000  H
  H478     1.0000 0.40870  0.12760  0.96920  Biso   1.000  H
  H479     1.0000 0.38350  0.07500  0.99090  Biso   1.000  H
  H480     1.0000 0.48820  0.08240  0.00210  Biso   1.000  H
  H481     1.0000 0.57880  0.05760  0.00260  Biso   1.000  H
  H482     1.0000 0.63760  0.00960  0.94110  Biso   1.000  H
  H483     1.0000 0.68870  0.93820  0.85580  Biso   1.000  H
  H484     1.0000 0.68230  0.99340  0.87510  Biso   1.000  H
  H485     1.0000 0.69130  0.99190  0.81300  Biso   1.000  H
  H486     1.0000 0.63050  0.96880  0.74690  Biso   1.000  H
  H487     1.0000 0.64000  0.91300  0.78660  Biso   1.000  H
  H488     1.0000 0.55980  0.89590  0.78220  Biso   1.000  H
  H489     1.0000 0.58920  0.91300  0.72220  Biso   1.000  H
  H490     1.0000 0.56970  0.46770  0.67870  Biso   1.000  H
  H491     1.0000 0.62750  0.43140  0.67700  Biso   1.000  H
  H492     1.0000 0.59630  0.45160  0.73060  Biso   1.000  H
  H493     1.0000 0.66370  0.36770  0.75430  Biso   1.000  H
  H494     1.0000 0.69850  0.28940  0.80620  Biso   1.000  H
  H495     1.0000 0.65370  0.21830  0.83420  Biso   1.000  H
  H496     1.0000 0.58490  0.15750  0.87560  Biso   1.000  H
  H497     1.0000 0.60850  0.14260  0.81800  Biso   1.000  H
  H498     1.0000 0.55010  0.13320  0.84710  Biso   1.000  H
  H499     1.0000 0.45910  0.18160  0.86030  Biso   1.000  H
  H500     1.0000 0.47240  0.16610  0.80250  Biso   1.000  H
  H501     1.0000 0.38440  0.20590  0.81380  Biso   1.000  H
  H502     1.0000 0.39610  0.25350  0.83610  Biso   1.000  H
  H503     1.0000 0.34830  0.31810  0.76710  Biso   1.000  H
  H504     1.0000 0.34440  0.27830  0.73010  Biso   1.000  H
  H505     1.0000 0.40500  0.31930  0.65940  Biso   1.000  H
  H506     1.0000 0.35460  0.36310  0.67680  Biso   1.000  H
  H507     1.0000 0.42440  0.43100  0.63810  Biso   1.000  H
  H508     1.0000 0.46980  0.38030  0.62840  Biso   1.000  H
  H509     1.0000 0.51240  0.44530  0.64200  Biso   1.000  H
  H510     1.0000 0.47020  0.45440  0.69520  Biso   1.000  H
  C1       1.0000 0.14168  0.67448  0.05688  Biso   1.000  C
  C2       1.0000 0.10458  0.56598  0.08668  Biso   1.000  C
  C3       1.0000 0.15060  0.62680  0.15330  Biso   1.000  C
  C4       1.0000 0.06565  0.59095  0.19445  Biso   1.000  C
  C5       1.0000 0.99310  0.64110  0.14140  Biso   1.000  C
  C6       1.0000 0.05955  0.71735  0.14255  Biso   1.000  C
  C7       1.0000 0.04471  0.67691  0.04501  Biso   1.000  C
  C8       1.0000 0.27484  0.47324  0.89264  Biso   1.000  C
  C9       1.0000 0.33960  0.53970  0.84170  Biso   1.000  C
  C10      1.0000 0.33740  0.46640  0.77320  Biso   1.000  C
  C11      1.0000 0.43460  0.47950  0.81980  Biso   1.000  C
  C12      1.0000 0.41748  0.38298  0.83108  Biso   1.000  C
  C13      1.0000 0.32090  0.38500  0.86900  Biso   1.000  C
  C14      1.0000 0.37600  0.43710  0.93190  Biso   1.000  C
  C15      1.0000 0.11180  0.41980  0.19960  Biso   1.000  C
  C16      1.0000 0.05580  0.44110  0.18690  Biso   1.000  C
  C17      1.0000 0.96650  0.48640  0.23600  Biso   1.000  C
  C18      1.0000 0.93550  0.49390  0.28620  Biso   1.000  C
  C19      1.0000 0.94900  0.52650  0.36340  Biso   1.000  C
  C20      1.0000 0.89090  0.53940  0.38520  Biso   1.000  C
  C21      1.0000 0.99030  0.53390  0.39120  Biso   1.000  C
  C22      1.0000 0.98040  0.55530  0.43820  Biso   1.000  C
  C23      1.0000 0.02520  0.56240  0.46040  Biso   1.000  C
  C24      1.0000 0.07800  0.54610  0.43620  Biso   1.000  C
  C25      1.0000 0.08340  0.52470  0.39010  Biso   1.000  C
  C26      1.0000 0.13770  0.50660  0.35750  Biso   1.000  C
  C27      1.0000 0.19140  0.50860  0.37230  Biso   1.000  C
  C28      1.0000 0.18930  0.46770  0.27820  Biso   1.000  C
  C29      1.0000 0.17560  0.43130  0.24910  Biso   1.000  C
  C30      1.0000 0.32640  0.70100  0.99540  Biso   1.000  C
  C31      1.0000 0.29710  0.70600  0.05240  Biso   1.000  C
  C32      1.0000 0.22730  0.76920  0.10310  Biso   1.000  C
  C33      1.0000 0.18180  0.81850  0.09240  Biso   1.000  C
  C34      1.0000 0.11110  0.85040  0.03910  Biso   1.000  C
  C35      1.0000 0.08380  0.83180  0.00130  Biso   1.000  C
  C36      1.0000 0.11630  0.79970  0.91780  Biso   1.000  C
  C37      1.0000 0.06340  0.81580  0.89610  Biso   1.000  C
  C38      1.0000 0.16448  0.77248  0.88238  Biso   1.000  C
  C39      1.0000 0.16560  0.76320  0.83090  Biso   1.000  C
  C40      1.0000 0.21540  0.73770  0.80240  Biso   1.000  C
  C41      1.0000 0.25900  0.72390  0.82480  Biso   1.000  C
  C42      1.0000 0.25600  0.73300  0.87780  Biso   1.000  C
  C43      1.0000 0.30120  0.71510  0.90810  Biso   1.000  C
  C44      1.0000 0.35710  0.69310  0.88050  Biso   1.000  C
  C45      1.0000 0.26930  0.52070  0.03870  Biso   1.000  C
  C46      1.0000 0.26480  0.56450  0.99160  Biso   1.000  C
  C47      1.0000 0.20310  0.61280  0.93330  Biso   1.000  C
  C48      1.0000 0.14320  0.62270  0.92690  Biso   1.000  C
  C49      1.0000 0.08120  0.56400  0.92790  Biso   1.000  C
  C50      1.0000 0.04080  0.60620  0.89910  Biso   1.000  C
  C51      1.0000 0.07050  0.50770  0.94540  Biso   1.000  C
  C52      1.0000 0.02490  0.48830  0.93450  Biso   1.000  C
  C53      1.0000 0.02470  0.43480  0.95070  Biso   1.000  C
  C54      1.0000 0.06180  0.39880  0.97840  Biso   1.000  C
  C55      1.0000 0.10320  0.41950  0.98710  Biso   1.000  C
  C56      1.0000 0.14810  0.38890  0.01450  Biso   1.000  C
  C57      1.0000 0.15140  0.32540  0.02370  Biso   1.000  C
  C58      1.0000 0.22430  0.38740  0.05620  Biso   1.000  C
  C59      1.0000 0.24400  0.42700  0.07430  Biso   1.000  C
  C60      1.0000 0.28380  0.43260  0.61010  Biso   1.000  C
  C61      1.0000 0.30090  0.40760  0.56040  Biso   1.000  C
  C62      1.0000 0.25014  0.40434  0.65804  Biso   1.000  C
  C63      1.0000 0.23480  0.35490  0.66120  Biso   1.000  C
  C64      1.0000 0.20400  0.33480  0.70760  Biso   1.000  C
  C65      1.0000 0.18700  0.36130  0.75000  Biso   1.000  C
  C66      1.0000 0.20212  0.41132  0.74552  Biso   1.000  C
  C67      1.0000 0.18450  0.44720  0.78690  Biso   1.000  C
  C68      1.0000 0.15860  0.42390  0.84360  Biso   1.000  C
  C69      1.0000 0.17811  0.53761  0.80371  Biso   1.000  C
  C70      1.0000 0.19000  0.58980  0.77050  Biso   1.000  C
  C71      1.0000 0.26180  0.63170  0.70120  Biso   1.000  C
  C72      1.0000 0.31150  0.61390  0.66150  Biso   1.000  C
  C73      1.0000 0.34500  0.54960  0.59750  Biso   1.000  C
  C74      1.0000 0.32670  0.51020  0.57240  Biso   1.000  C
  C75      1.0000 0.05688  0.14168  0.67448  Biso   1.000  C
  C76      1.0000 0.08668  0.10458  0.56598  Biso   1.000  C
  C77      1.0000 0.15330  0.15060  0.62680  Biso   1.000  C
  C78      1.0000 0.19445  0.06565  0.59095  Biso   1.000  C
  C79      1.0000 0.14140  0.99310  0.64110  Biso   1.000  C
  C80      1.0000 0.14255  0.05955  0.71735  Biso   1.000  C
  C81      1.0000 0.04501  0.04471  0.67691  Biso   1.000  C
  C82      1.0000 0.89264  0.27484  0.47324  Biso   1.000  C
  C83      1.0000 0.84170  0.33960  0.53970  Biso   1.000  C
  C84      1.0000 0.77320  0.33740  0.46640  Biso   1.000  C
  C85      1.0000 0.81980  0.43460  0.47950  Biso   1.000  C
  C86      1.0000 0.83108  0.41748  0.38298  Biso   1.000  C
  C87      1.0000 0.86900  0.32090  0.38500  Biso   1.000  C
  C88      1.0000 0.93190  0.37600  0.43710  Biso   1.000  C
  C89      1.0000 0.19960  0.11180  0.41980  Biso   1.000  C
  C90      1.0000 0.18690  0.05580  0.44110  Biso   1.000  C
  C91      1.0000 0.23600  0.96650  0.48640  Biso   1.000  C
  C92      1.0000 0.28620  0.93550  0.49390  Biso   1.000  C
  C93      1.0000 0.36340  0.94900  0.52650  Biso   1.000  C
  C94      1.0000 0.38520  0.89090  0.53940  Biso   1.000  C
  C95      1.0000 0.39120  0.99030  0.53390  Biso   1.000  C
  C96      1.0000 0.43820  0.98040  0.55530  Biso   1.000  C
  C97      1.0000 0.46040  0.02520  0.56240  Biso   1.000  C
  C98      1.0000 0.43620  0.07800  0.54610  Biso   1.000  C
  C99      1.0000 0.39010  0.08340  0.52470  Biso   1.000  C
  C100     1.0000 0.35750  0.13770  0.50660  Biso   1.000  C
  C101     1.0000 0.37230  0.19140  0.50860  Biso   1.000  C
  C102     1.0000 0.27820  0.18930  0.46770  Biso   1.000  C
  C103     1.0000 0.24910  0.17560  0.43130  Biso   1.000  C
  C104     1.0000 0.99540  0.32640  0.70100  Biso   1.000  C
  C105     1.0000 0.05240  0.29710  0.70600  Biso   1.000  C
  C106     1.0000 0.10310  0.22730  0.76920  Biso   1.000  C
  C107     1.0000 0.09240  0.18180  0.81850  Biso   1.000  C
  C108     1.0000 0.03910  0.11110  0.85040  Biso   1.000  C
  C109     1.0000 0.00130  0.08380  0.83180  Biso   1.000  C
  C110     1.0000 0.91780  0.11630  0.79970  Biso   1.000  C
  C111     1.0000 0.89610  0.06340  0.81580  Biso   1.000  C
  C112     1.0000 0.88238  0.16448  0.77248  Biso   1.000  C
  C113     1.0000 0.83090  0.16560  0.76320  Biso   1.000  C
  C114     1.0000 0.80240  0.21540  0.73770  Biso   1.000  C
  C115     1.0000 0.82480  0.25900  0.72390  Biso   1.000  C
  C116     1.0000 0.87780  0.25600  0.73300  Biso   1.000  C
  C117     1.0000 0.90810  0.30120  0.71510  Biso   1.000  C
  C118     1.0000 0.88050  0.35710  0.69310  Biso   1.000  C
  C119     1.0000 0.03870  0.26930  0.52070  Biso   1.000  C
  C120     1.0000 0.99160  0.26480  0.56450  Biso   1.000  C
  C121     1.0000 0.93330  0.20310  0.61280  Biso   1.000  C
  C122     1.0000 0.92690  0.14320  0.62270  Biso   1.000  C
  C123     1.0000 0.92790  0.08120  0.56400  Biso   1.000  C
  C124     1.0000 0.89910  0.04080  0.60620  Biso   1.000  C
  C125     1.0000 0.94540  0.07050  0.50770  Biso   1.000  C
  C126     1.0000 0.93450  0.02490  0.48830  Biso   1.000  C
  C127     1.0000 0.95070  0.02470  0.43480  Biso   1.000  C
  C128     1.0000 0.97840  0.06180  0.39880  Biso   1.000  C
  C129     1.0000 0.98710  0.10320  0.41950  Biso   1.000  C
  C130     1.0000 0.01450  0.14810  0.38890  Biso   1.000  C
  C131     1.0000 0.02370  0.15140  0.32540  Biso   1.000  C
  C132     1.0000 0.05620  0.22430  0.38740  Biso   1.000  C
  C133     1.0000 0.07430  0.24400  0.42700  Biso   1.000  C
  C134     1.0000 0.61010  0.28380  0.43260  Biso   1.000  C
  C135     1.0000 0.56040  0.30090  0.40760  Biso   1.000  C
  C136     1.0000 0.65804  0.25014  0.40434  Biso   1.000  C
  C137     1.0000 0.66120  0.23480  0.35490  Biso   1.000  C
  C138     1.0000 0.70760  0.20400  0.33480  Biso   1.000  C
  C139     1.0000 0.75000  0.18700  0.36130  Biso   1.000  C
  C140     1.0000 0.74552  0.20212  0.41132  Biso   1.000  C
  C141     1.0000 0.78690  0.18450  0.44720  Biso   1.000  C
  C142     1.0000 0.84360  0.15860  0.42390  Biso   1.000  C
  C143     1.0000 0.80371  0.17811  0.53761  Biso   1.000  C
  C144     1.0000 0.77050  0.19000  0.58980  Biso   1.000  C
  C145     1.0000 0.70120  0.26180  0.63170  Biso   1.000  C
  C146     1.0000 0.66150  0.31150  0.61390  Biso   1.000  C
  C147     1.0000 0.59750  0.34500  0.54960  Biso   1.000  C
  C148     1.0000 0.57240  0.32670  0.51020  Biso   1.000  C
  C149     1.0000 0.67448  0.05688  0.14168  Biso   1.000  C
  C150     1.0000 0.56598  0.08668  0.10458  Biso   1.000  C
  C151     1.0000 0.62680  0.15330  0.15060  Biso   1.000  C
  C152     1.0000 0.59095  0.19445  0.06565  Biso   1.000  C
  C153     1.0000 0.64110  0.14140  0.99310  Biso   1.000  C
  C154     1.0000 0.71735  0.14255  0.05955  Biso   1.000  C
  C155     1.0000 0.67691  0.04501  0.04471  Biso   1.000  C
  C156     1.0000 0.47324  0.89264  0.27484  Biso   1.000  C
  C157     1.0000 0.53970  0.84170  0.33960  Biso   1.000  C
  C158     1.0000 0.46640  0.77320  0.33740  Biso   1.000  C
  C159     1.0000 0.47950  0.81980  0.43460  Biso   1.000  C
  C160     1.0000 0.38298  0.83108  0.41748  Biso   1.000  C
  C161     1.0000 0.38500  0.86900  0.32090  Biso   1.000  C
  C162     1.0000 0.43710  0.93190  0.37600  Biso   1.000  C
  C163     1.0000 0.41980  0.19960  0.11180  Biso   1.000  C
  C164     1.0000 0.44110  0.18690  0.05580  Biso   1.000  C
  C165     1.0000 0.48640  0.23600  0.96650  Biso   1.000  C
  C166     1.0000 0.49390  0.28620  0.93550  Biso   1.000  C
  C167     1.0000 0.52650  0.36340  0.94900  Biso   1.000  C
  C168     1.0000 0.53940  0.38520  0.89090  Biso   1.000  C
  C169     1.0000 0.53390  0.39120  0.99030  Biso   1.000  C
  C170     1.0000 0.55530  0.43820  0.98040  Biso   1.000  C
  C171     1.0000 0.56240  0.46040  0.02520  Biso   1.000  C
  C172     1.0000 0.54610  0.43620  0.07800  Biso   1.000  C
  C173     1.0000 0.52470  0.39010  0.08340  Biso   1.000  C
  C174     1.0000 0.50660  0.35750  0.13770  Biso   1.000  C
  C175     1.0000 0.50860  0.37230  0.19140  Biso   1.000  C
  C176     1.0000 0.46770  0.27820  0.18930  Biso   1.000  C
  C177     1.0000 0.43130  0.24910  0.17560  Biso   1.000  C
  C178     1.0000 0.70100  0.99540  0.32640  Biso   1.000  C
  C179     1.0000 0.70600  0.05240  0.29710  Biso   1.000  C
  C180     1.0000 0.76920  0.10310  0.22730  Biso   1.000  C
  C181     1.0000 0.81850  0.09240  0.18180  Biso   1.000  C
  C182     1.0000 0.85040  0.03910  0.11110  Biso   1.000  C
  C183     1.0000 0.83180  0.00130  0.08380  Biso   1.000  C
  C184     1.0000 0.79970  0.91780  0.11630  Biso   1.000  C
  C185     1.0000 0.81580  0.89610  0.06340  Biso   1.000  C
  C186     1.0000 0.77248  0.88238  0.16448  Biso   1.000  C
  C187     1.0000 0.76320  0.83090  0.16560  Biso   1.000  C
  C188     1.0000 0.73770  0.80240  0.21540  Biso   1.000  C
  C189     1.0000 0.72390  0.82480  0.25900  Biso   1.000  C
  C190     1.0000 0.73300  0.87780  0.25600  Biso   1.000  C
  C191     1.0000 0.71510  0.90810  0.30120  Biso   1.000  C
  C192     1.0000 0.69310  0.88050  0.35710  Biso   1.000  C
  C193     1.0000 0.52070  0.03870  0.26930  Biso   1.000  C
  C194     1.0000 0.56450  0.99160  0.26480  Biso   1.000  C
  C195     1.0000 0.61280  0.93330  0.20310  Biso   1.000  C
  C196     1.0000 0.62270  0.92690  0.14320  Biso   1.000  C
  C197     1.0000 0.56400  0.92790  0.08120  Biso   1.000  C
  C198     1.0000 0.60620  0.89910  0.04080  Biso   1.000  C
  C199     1.0000 0.50770  0.94540  0.07050  Biso   1.000  C
  C200     1.0000 0.48830  0.93450  0.02490  Biso   1.000  C
  C201     1.0000 0.43480  0.95070  0.02470  Biso   1.000  C
  C202     1.0000 0.39880  0.97840  0.06180  Biso   1.000  C
  C203     1.0000 0.41950  0.98710  0.10320  Biso   1.000  C
  C204     1.0000 0.38890  0.01450  0.14810  Biso   1.000  C
  C205     1.0000 0.32540  0.02370  0.15140  Biso   1.000  C
  C206     1.0000 0.38740  0.05620  0.22430  Biso   1.000  C
  C207     1.0000 0.42700  0.07430  0.24400  Biso   1.000  C
  C208     1.0000 0.43260  0.61010  0.28380  Biso   1.000  C
  C209     1.0000 0.40760  0.56040  0.30090  Biso   1.000  C
  C210     1.0000 0.40434  0.65804  0.25014  Biso   1.000  C
  C211     1.0000 0.35490  0.66120  0.23480  Biso   1.000  C
  C212     1.0000 0.33480  0.70760  0.20400  Biso   1.000  C
  C213     1.0000 0.36130  0.75000  0.18700  Biso   1.000  C
  C214     1.0000 0.41132  0.74552  0.20212  Biso   1.000  C
  C215     1.0000 0.44720  0.78690  0.18450  Biso   1.000  C
  C216     1.0000 0.42390  0.84360  0.15860  Biso   1.000  C
  C217     1.0000 0.53761  0.80371  0.17811  Biso   1.000  C
  C218     1.0000 0.58980  0.77050  0.19000  Biso   1.000  C
  C219     1.0000 0.63170  0.70120  0.26180  Biso   1.000  C
  C220     1.0000 0.61390  0.66150  0.31150  Biso   1.000  C
  C221     1.0000 0.54960  0.59750  0.34500  Biso   1.000  C
  C222     1.0000 0.51020  0.57240  0.32670  Biso   1.000  C
  C223     1.0000 0.85832  0.32552  0.94312  Biso   1.000  C
  C224     1.0000 0.89542  0.43402  0.91332  Biso   1.000  C
  C225     1.0000 0.84940  0.37320  0.84670  Biso   1.000  C
  C226     1.0000 0.93435  0.40905  0.80555  Biso   1.000  C
  C227     1.0000 0.00690  0.35890  0.85860  Biso   1.000  C
  C228     1.0000 0.94045  0.28265  0.85745  Biso   1.000  C
  C229     1.0000 0.95529  0.32309  0.95499  Biso   1.000  C
  C230     1.0000 0.72516  0.52676  0.10736  Biso   1.000  C
  C231     1.0000 0.66040  0.46030  0.15830  Biso   1.000  C
  C232     1.0000 0.66260  0.53360  0.22680  Biso   1.000  C
  C233     1.0000 0.56540  0.52050  0.18020  Biso   1.000  C
  C234     1.0000 0.58252  0.61702  0.16892  Biso   1.000  C
  C235     1.0000 0.67910  0.61500  0.13100  Biso   1.000  C
  C236     1.0000 0.62400  0.56290  0.06810  Biso   1.000  C
  C237     1.0000 0.88820  0.58020  0.80040  Biso   1.000  C
  C238     1.0000 0.94420  0.55890  0.81310  Biso   1.000  C
  C239     1.0000 0.03350  0.51360  0.76400  Biso   1.000  C
  C240     1.0000 0.06450  0.50610  0.71380  Biso   1.000  C
  C241     1.0000 0.05100  0.47350  0.63660  Biso   1.000  C
  C242     1.0000 0.10910  0.46060  0.61480  Biso   1.000  C
  C243     1.0000 0.00970  0.46610  0.60880  Biso   1.000  C
  C244     1.0000 0.01960  0.44470  0.56180  Biso   1.000  C
  C245     1.0000 0.97480  0.43760  0.53960  Biso   1.000  C
  C246     1.0000 0.92200  0.45390  0.56380  Biso   1.000  C
  C247     1.0000 0.91660  0.47530  0.60990  Biso   1.000  C
  C248     1.0000 0.86230  0.49340  0.64250  Biso   1.000  C
  C249     1.0000 0.80860  0.49140  0.62770  Biso   1.000  C
  C250     1.0000 0.81070  0.53230  0.72180  Biso   1.000  C
  C251     1.0000 0.82440  0.56870  0.75090  Biso   1.000  C
  C252     1.0000 0.67360  0.29900  0.00460  Biso   1.000  C
  C253     1.0000 0.70290  0.29400  0.94760  Biso   1.000  C
  C254     1.0000 0.77270  0.23080  0.89690  Biso   1.000  C
  C255     1.0000 0.81820  0.18150  0.90760  Biso   1.000  C
  C256     1.0000 0.88890  0.14960  0.96090  Biso   1.000  C
  C257     1.0000 0.91620  0.16820  0.99870  Biso   1.000  C
  C258     1.0000 0.88370  0.20030  0.08220  Biso   1.000  C
  C259     1.0000 0.93660  0.18420  0.10390  Biso   1.000  C
  C260     1.0000 0.83552  0.22752  0.11762  Biso   1.000  C
  C261     1.0000 0.83440  0.23680  0.16910  Biso   1.000  C
  C262     1.0000 0.78460  0.26230  0.19760  Biso   1.000  C
  C263     1.0000 0.74100  0.27610  0.17520  Biso   1.000  C
  C264     1.0000 0.74400  0.26700  0.12220  Biso   1.000  C
  C265     1.0000 0.69880  0.28490  0.09190  Biso   1.000  C
  C266     1.0000 0.64290  0.30690  0.11950  Biso   1.000  C
  C267     1.0000 0.73070  0.47930  0.96130  Biso   1.000  C
  C268     1.0000 0.73520  0.43550  0.00840  Biso   1.000  C
  C269     1.0000 0.79690  0.38720  0.06670  Biso   1.000  C
  C270     1.0000 0.85680  0.37730  0.07310  Biso   1.000  C
  C271     1.0000 0.91880  0.43600  0.07210  Biso   1.000  C
  C272     1.0000 0.95920  0.39380  0.10090  Biso   1.000  C
  C273     1.0000 0.92950  0.49230  0.05460  Biso   1.000  C
  C274     1.0000 0.97510  0.51170  0.06550  Biso   1.000  C
  C275     1.0000 0.97530  0.56520  0.04930  Biso   1.000  C
  C276     1.0000 0.93820  0.60120  0.02160  Biso   1.000  C
  C277     1.0000 0.89680  0.58050  0.01290  Biso   1.000  C
  C278     1.0000 0.85190  0.61110  0.98550  Biso   1.000  C
  C279     1.0000 0.84860  0.67460  0.97630  Biso   1.000  C
  C280     1.0000 0.77570  0.61260  0.94380  Biso   1.000  C
  C281     1.0000 0.75600  0.57300  0.92570  Biso   1.000  C
  C282     1.0000 0.71620  0.56740  0.38990  Biso   1.000  C
  C283     1.0000 0.69910  0.59240  0.43960  Biso   1.000  C
  C284     1.0000 0.74986  0.59566  0.34196  Biso   1.000  C
  C285     1.0000 0.76520  0.64510  0.33880  Biso   1.000  C
  C286     1.0000 0.79600  0.66520  0.29240  Biso   1.000  C
  C287     1.0000 0.81300  0.63870  0.25000  Biso   1.000  C
  C288     1.0000 0.79788  0.58868  0.25448  Biso   1.000  C
  C289     1.0000 0.81550  0.55280  0.21310  Biso   1.000  C
  C290     1.0000 0.84140  0.57610  0.15640  Biso   1.000  C
  C291     1.0000 0.82189  0.46239  0.19629  Biso   1.000  C
  C292     1.0000 0.81000  0.41020  0.22950  Biso   1.000  C
  C293     1.0000 0.73820  0.36830  0.29880  Biso   1.000  C
  C294     1.0000 0.68850  0.38610  0.33850  Biso   1.000  C
  C295     1.0000 0.65500  0.45040  0.40250  Biso   1.000  C
  C296     1.0000 0.67330  0.48980  0.42760  Biso   1.000  C
  C297     1.0000 0.94312  0.85832  0.32552  Biso   1.000  C
  C298     1.0000 0.91332  0.89542  0.43402  Biso   1.000  C
  C299     1.0000 0.84670  0.84940  0.37320  Biso   1.000  C
  C300     1.0000 0.80555  0.93435  0.40905  Biso   1.000  C
  C301     1.0000 0.85860  0.00690  0.35890  Biso   1.000  C
  C302     1.0000 0.85745  0.94045  0.28265  Biso   1.000  C
  C303     1.0000 0.95499  0.95529  0.32309  Biso   1.000  C
  C304     1.0000 0.10736  0.72516  0.52676  Biso   1.000  C
  C305     1.0000 0.15830  0.66040  0.46030  Biso   1.000  C
  C306     1.0000 0.22680  0.66260  0.53360  Biso   1.000  C
  C307     1.0000 0.18020  0.56540  0.52050  Biso   1.000  C
  C308     1.0000 0.16892  0.58252  0.61702  Biso   1.000  C
  C309     1.0000 0.13100  0.67910  0.61500  Biso   1.000  C
  C310     1.0000 0.06810  0.62400  0.56290  Biso   1.000  C
  C311     1.0000 0.80040  0.88820  0.58020  Biso   1.000  C
  C312     1.0000 0.81310  0.94420  0.55890  Biso   1.000  C
  C313     1.0000 0.76400  0.03350  0.51360  Biso   1.000  C
  C314     1.0000 0.71380  0.06450  0.50610  Biso   1.000  C
  C315     1.0000 0.63660  0.05100  0.47350  Biso   1.000  C
  C316     1.0000 0.61480  0.10910  0.46060  Biso   1.000  C
  C317     1.0000 0.60880  0.00970  0.46610  Biso   1.000  C
  C318     1.0000 0.56180  0.01960  0.44470  Biso   1.000  C
  C319     1.0000 0.53960  0.97480  0.43760  Biso   1.000  C
  C320     1.0000 0.56380  0.92200  0.45390  Biso   1.000  C
  C321     1.0000 0.60990  0.91660  0.47530  Biso   1.000  C
  C322     1.0000 0.64250  0.86230  0.49340  Biso   1.000  C
  C323     1.0000 0.62770  0.80860  0.49140  Biso   1.000  C
  C324     1.0000 0.72180  0.81070  0.53230  Biso   1.000  C
  C325     1.0000 0.75090  0.82440  0.56870  Biso   1.000  C
  C326     1.0000 0.00460  0.67360  0.29900  Biso   1.000  C
  C327     1.0000 0.94760  0.70290  0.29400  Biso   1.000  C
  C328     1.0000 0.89690  0.77270  0.23080  Biso   1.000  C
  C329     1.0000 0.90760  0.81820  0.18150  Biso   1.000  C
  C330     1.0000 0.96090  0.88890  0.14960  Biso   1.000  C
  C331     1.0000 0.99870  0.91620  0.16820  Biso   1.000  C
  C332     1.0000 0.08220  0.88370  0.20030  Biso   1.000  C
  C333     1.0000 0.10390  0.93660  0.18420  Biso   1.000  C
  C334     1.0000 0.11762  0.83552  0.22752  Biso   1.000  C
  C335     1.0000 0.16910  0.83440  0.23680  Biso   1.000  C
  C336     1.0000 0.19760  0.78460  0.26230  Biso   1.000  C
  C337     1.0000 0.17520  0.74100  0.27610  Biso   1.000  C
  C338     1.0000 0.12220  0.74400  0.26700  Biso   1.000  C
  C339     1.0000 0.09190  0.69880  0.28490  Biso   1.000  C
  C340     1.0000 0.11950  0.64290  0.30690  Biso   1.000  C
  C341     1.0000 0.96130  0.73070  0.47930  Biso   1.000  C
  C342     1.0000 0.00840  0.73520  0.43550  Biso   1.000  C
  C343     1.0000 0.06670  0.79690  0.38720  Biso   1.000  C
  C344     1.0000 0.07310  0.85680  0.37730  Biso   1.000  C
  C345     1.0000 0.07210  0.91880  0.43600  Biso   1.000  C
  C346     1.0000 0.10090  0.95920  0.39380  Biso   1.000  C
  C347     1.0000 0.05460  0.92950  0.49230  Biso   1.000  C
  C348     1.0000 0.06550  0.97510  0.51170  Biso   1.000  C
  C349     1.0000 0.04930  0.97530  0.56520  Biso   1.000  C
  C350     1.0000 0.02160  0.93820  0.60120  Biso   1.000  C
  C351     1.0000 0.01290  0.89680  0.58050  Biso   1.000  C
  C352     1.0000 0.98550  0.85190  0.61110  Biso   1.000  C
  C353     1.0000 0.97630  0.84860  0.67460  Biso   1.000  C
  C354     1.0000 0.94380  0.77570  0.61260  Biso   1.000  C
  C355     1.0000 0.92570  0.75600  0.57300  Biso   1.000  C
  C356     1.0000 0.38990  0.71620  0.56740  Biso   1.000  C
  C357     1.0000 0.43960  0.69910  0.59240  Biso   1.000  C
  C358     1.0000 0.34196  0.74986  0.59566  Biso   1.000  C
  C359     1.0000 0.33880  0.76520  0.64510  Biso   1.000  C
  C360     1.0000 0.29240  0.79600  0.66520  Biso   1.000  C
  C361     1.0000 0.25000  0.81300  0.63870  Biso   1.000  C
  C362     1.0000 0.25448  0.79788  0.58868  Biso   1.000  C
  C363     1.0000 0.21310  0.81550  0.55280  Biso   1.000  C
  C364     1.0000 0.15640  0.84140  0.57610  Biso   1.000  C
  C365     1.0000 0.19629  0.82189  0.46239  Biso   1.000  C
  C366     1.0000 0.22950  0.81000  0.41020  Biso   1.000  C
  C367     1.0000 0.29880  0.73820  0.36830  Biso   1.000  C
  C368     1.0000 0.33850  0.68850  0.38610  Biso   1.000  C
  C369     1.0000 0.40250  0.65500  0.45040  Biso   1.000  C
  C370     1.0000 0.42760  0.67330  0.48980  Biso   1.000  C
  C371     1.0000 0.32552  0.94312  0.85832  Biso   1.000  C
  C372     1.0000 0.43402  0.91332  0.89542  Biso   1.000  C
  C373     1.0000 0.37320  0.84670  0.84940  Biso   1.000  C
  C374     1.0000 0.40905  0.80555  0.93435  Biso   1.000  C
  C375     1.0000 0.35890  0.85860  0.00690  Biso   1.000  C
  C376     1.0000 0.28265  0.85745  0.94045  Biso   1.000  C
  C377     1.0000 0.32309  0.95499  0.95529  Biso   1.000  C
  C378     1.0000 0.52676  0.10736  0.72516  Biso   1.000  C
  C379     1.0000 0.46030  0.15830  0.66040  Biso   1.000  C
  C380     1.0000 0.53360  0.22680  0.66260  Biso   1.000  C
  C381     1.0000 0.52050  0.18020  0.56540  Biso   1.000  C
  C382     1.0000 0.61702  0.16892  0.58252  Biso   1.000  C
  C383     1.0000 0.61500  0.13100  0.67910  Biso   1.000  C
  C384     1.0000 0.56290  0.06810  0.62400  Biso   1.000  C
  C385     1.0000 0.58020  0.80040  0.88820  Biso   1.000  C
  C386     1.0000 0.55890  0.81310  0.94420  Biso   1.000  C
  C387     1.0000 0.51360  0.76400  0.03350  Biso   1.000  C
  C388     1.0000 0.50610  0.71380  0.06450  Biso   1.000  C
  C389     1.0000 0.47350  0.63660  0.05100  Biso   1.000  C
  C390     1.0000 0.46060  0.61480  0.10910  Biso   1.000  C
  C391     1.0000 0.46610  0.60880  0.00970  Biso   1.000  C
  C392     1.0000 0.44470  0.56180  0.01960  Biso   1.000  C
  C393     1.0000 0.43760  0.53960  0.97480  Biso   1.000  C
  C394     1.0000 0.45390  0.56380  0.92200  Biso   1.000  C
  C395     1.0000 0.47530  0.60990  0.91660  Biso   1.000  C
  C396     1.0000 0.49340  0.64250  0.86230  Biso   1.000  C
  C397     1.0000 0.49140  0.62770  0.80860  Biso   1.000  C
  C398     1.0000 0.53230  0.72180  0.81070  Biso   1.000  C
  C399     1.0000 0.56870  0.75090  0.82440  Biso   1.000  C
  C400     1.0000 0.29900  0.00460  0.67360  Biso   1.000  C
  C401     1.0000 0.29400  0.94760  0.70290  Biso   1.000  C
  C402     1.0000 0.23080  0.89690  0.77270  Biso   1.000  C
  C403     1.0000 0.18150  0.90760  0.81820  Biso   1.000  C
  C404     1.0000 0.14960  0.96090  0.88890  Biso   1.000  C
  C405     1.0000 0.16820  0.99870  0.91620  Biso   1.000  C
  C406     1.0000 0.20030  0.08220  0.88370  Biso   1.000  C
  C407     1.0000 0.18420  0.10390  0.93660  Biso   1.000  C
  C408     1.0000 0.22752  0.11762  0.83552  Biso   1.000  C
  C409     1.0000 0.23680  0.16910  0.83440  Biso   1.000  C
  C410     1.0000 0.26230  0.19760  0.78460  Biso   1.000  C
  C411     1.0000 0.27610  0.17520  0.74100  Biso   1.000  C
  C412     1.0000 0.26700  0.12220  0.74400  Biso   1.000  C
  C413     1.0000 0.28490  0.09190  0.69880  Biso   1.000  C
  C414     1.0000 0.30690  0.11950  0.64290  Biso   1.000  C
  C415     1.0000 0.47930  0.96130  0.73070  Biso   1.000  C
  C416     1.0000 0.43550  0.00840  0.73520  Biso   1.000  C
  C417     1.0000 0.38720  0.06670  0.79690  Biso   1.000  C
  C418     1.0000 0.37730  0.07310  0.85680  Biso   1.000  C
  C419     1.0000 0.43600  0.07210  0.91880  Biso   1.000  C
  C420     1.0000 0.39380  0.10090  0.95920  Biso   1.000  C
  C421     1.0000 0.49230  0.05460  0.92950  Biso   1.000  C
  C422     1.0000 0.51170  0.06550  0.97510  Biso   1.000  C
  C423     1.0000 0.56520  0.04930  0.97530  Biso   1.000  C
  C424     1.0000 0.60120  0.02160  0.93820  Biso   1.000  C
  C425     1.0000 0.58050  0.01290  0.89680  Biso   1.000  C
  C426     1.0000 0.61110  0.98550  0.85190  Biso   1.000  C
  C427     1.0000 0.67460  0.97630  0.84860  Biso   1.000  C
  C428     1.0000 0.61260  0.94380  0.77570  Biso   1.000  C
  C429     1.0000 0.57300  0.92570  0.75600  Biso   1.000  C
  C430     1.0000 0.56740  0.38990  0.71620  Biso   1.000  C
  C431     1.0000 0.59240  0.43960  0.69910  Biso   1.000  C
  C432     1.0000 0.59566  0.34196  0.74986  Biso   1.000  C
  C433     1.0000 0.64510  0.33880  0.76520  Biso   1.000  C
  C434     1.0000 0.66520  0.29240  0.79600  Biso   1.000  C
  C435     1.0000 0.63870  0.25000  0.81300  Biso   1.000  C
  C436     1.0000 0.58868  0.25448  0.79788  Biso   1.000  C
  C437     1.0000 0.55280  0.21310  0.81550  Biso   1.000  C
  C438     1.0000 0.57610  0.15640  0.84140  Biso   1.000  C
  C439     1.0000 0.46239  0.19629  0.82189  Biso   1.000  C
  C440     1.0000 0.41020  0.22950  0.81000  Biso   1.000  C
  C441     1.0000 0.36830  0.29880  0.73820  Biso   1.000  C
  C442     1.0000 0.38610  0.33850  0.68850  Biso   1.000  C
  C443     1.0000 0.45040  0.40250  0.65500  Biso   1.000  C
  C444     1.0000 0.48980  0.42760  0.67330  Biso   1.000  C
  N1       1.0000 0.17516  0.69346  0.02566  Biso   1.000  N
  N2       1.0000 0.12126  0.52716  0.06826  Biso   1.000  N
  N3       1.0000 0.18930  0.61830  0.17200  Biso   1.000  N
  N4       1.0000 0.05946  0.56206  0.23526  Biso   1.000  N
  N5       1.0000 0.94680  0.64510  0.15670  Biso   1.000  N
  N6       1.0000 0.04777  0.76067  0.15367  Biso   1.000  N
  N7       1.0000 0.02519  0.69739  0.00709  Biso   1.000  N
  N8       1.0000 0.23140  0.48340  0.91680  Biso   1.000  N
  N9       1.0000 0.33070  0.58640  0.83150  Biso   1.000  N
  N10      1.0000 0.32627  0.47617  0.73067  Biso   1.000  N
  N11      1.0000 0.47461  0.49381  0.80091  Biso   1.000  N
  N12      1.0000 0.44768  0.34848  0.81618  Biso   1.000  N
  N13      1.0000 0.29930  0.34360  0.87950  Biso   1.000  N
  N14      1.0000 0.38480  0.42500  0.97660  Biso   1.000  N
  N15      1.0000 0.13060  0.45150  0.22530  Biso   1.000  N
  N16      1.0000 0.01750  0.45010  0.23840  Biso   1.000  N
  N17      1.0000 0.96840  0.50630  0.32130  Biso   1.000  N
  N18      1.0000 0.04290  0.51860  0.36860  Biso   1.000  N
  N19      1.0000 0.13880  0.48730  0.31690  Biso   1.000  N
  N20      1.0000 0.26134  0.75904  0.05294  Biso   1.000  N
  N21      1.0000 0.14871  0.80511  0.05971  Biso   1.000  N
  N22      1.0000 0.12447  0.80687  0.96117  Biso   1.000  N
  N23      1.0000 0.20988  0.75718  0.90388  Biso   1.000  N
  N24      1.0000 0.28811  0.71891  0.95821  Biso   1.000  N
  N25      1.0000 0.17780  0.41270  0.02910  Biso   1.000  N
  N26      1.0000 0.10556  0.47376  0.97176  Biso   1.000  N
  N27      1.0000 0.12500  0.57260  0.93940  Biso   1.000  N
  N28      1.0000 0.21069  0.57769  0.98419  Biso   1.000  N
  N29      1.0000 0.25260  0.47200  0.02910  Biso   1.000  N
  N30      1.0000 0.29910  0.57770  0.63030  Biso   1.000  N
  N31      1.0000 0.24434  0.58384  0.73844  Biso   1.000  N
  N32      1.0000 0.19484  0.49544  0.77014  Biso   1.000  N
  N33      1.0000 0.23347  0.43157  0.70007  Biso   1.000  N
  N34      1.0000 0.29537  0.47707  0.61547  Biso   1.000  N
  N35      1.0000 0.02566  0.17516  0.69346  Biso   1.000  N
  N36      1.0000 0.06826  0.12126  0.52716  Biso   1.000  N
  N37      1.0000 0.17200  0.18930  0.61830  Biso   1.000  N
  N38      1.0000 0.23526  0.05946  0.56206  Biso   1.000  N
  N39      1.0000 0.15670  0.94680  0.64510  Biso   1.000  N
  N40      1.0000 0.15367  0.04777  0.76067  Biso   1.000  N
  N41      1.0000 0.00709  0.02519  0.69739  Biso   1.000  N
  N42      1.0000 0.91680  0.23140  0.48340  Biso   1.000  N
  N43      1.0000 0.83150  0.33070  0.58640  Biso   1.000  N
  N44      1.0000 0.73067  0.32627  0.47617  Biso   1.000  N
  N45      1.0000 0.80091  0.47461  0.49381  Biso   1.000  N
  N46      1.0000 0.81618  0.44768  0.34848  Biso   1.000  N
  N47      1.0000 0.87950  0.29930  0.34360  Biso   1.000  N
  N48      1.0000 0.97660  0.38480  0.42500  Biso   1.000  N
  N49      1.0000 0.22530  0.13060  0.45150  Biso   1.000  N
  N50      1.0000 0.23840  0.01750  0.45010  Biso   1.000  N
  N51      1.0000 0.32130  0.96840  0.50630  Biso   1.000  N
  N52      1.0000 0.36860  0.04290  0.51860  Biso   1.000  N
  N53      1.0000 0.31690  0.13880  0.48730  Biso   1.000  N
  N54      1.0000 0.05294  0.26134  0.75904  Biso   1.000  N
  N55      1.0000 0.05971  0.14871  0.80511  Biso   1.000  N
  N56      1.0000 0.96117  0.12447  0.80687  Biso   1.000  N
  N57      1.0000 0.90388  0.20988  0.75718  Biso   1.000  N
  N58      1.0000 0.95821  0.28811  0.71891  Biso   1.000  N
  N59      1.0000 0.02910  0.17780  0.41270  Biso   1.000  N
  N60      1.0000 0.97176  0.10556  0.47376  Biso   1.000  N
  N61      1.0000 0.93940  0.12500  0.57260  Biso   1.000  N
  N62      1.0000 0.98419  0.21069  0.57769  Biso   1.000  N
  N63      1.0000 0.02910  0.25260  0.47200  Biso   1.000  N
  N64      1.0000 0.63030  0.29910  0.57770  Biso   1.000  N
  N65      1.0000 0.73844  0.24434  0.58384  Biso   1.000  N
  N66      1.0000 0.77014  0.19484  0.49544  Biso   1.000  N
  N67      1.0000 0.70007  0.23347  0.43157  Biso   1.000  N
  N68      1.0000 0.61547  0.29537  0.47707  Biso   1.000  N
  N69      1.0000 0.69346  0.02566  0.17516  Biso   1.000  N
  N70      1.0000 0.52716  0.06826  0.12126  Biso   1.000  N
  N71      1.0000 0.61830  0.17200  0.18930  Biso   1.000  N
  N72      1.0000 0.56206  0.23526  0.05946  Biso   1.000  N
  N73      1.0000 0.64510  0.15670  0.94680  Biso   1.000  N
  N74      1.0000 0.76067  0.15367  0.04777  Biso   1.000  N
  N75      1.0000 0.69739  0.00709  0.02519  Biso   1.000  N
  N76      1.0000 0.48340  0.91680  0.23140  Biso   1.000  N
  N77      1.0000 0.58640  0.83150  0.33070  Biso   1.000  N
  N78      1.0000 0.47617  0.73067  0.32627  Biso   1.000  N
  N79      1.0000 0.49381  0.80091  0.47461  Biso   1.000  N
  N80      1.0000 0.34848  0.81618  0.44768  Biso   1.000  N
  N81      1.0000 0.34360  0.87950  0.29930  Biso   1.000  N
  N82      1.0000 0.42500  0.97660  0.38480  Biso   1.000  N
  N83      1.0000 0.45150  0.22530  0.13060  Biso   1.000  N
  N84      1.0000 0.45010  0.23840  0.01750  Biso   1.000  N
  N85      1.0000 0.50630  0.32130  0.96840  Biso   1.000  N
  N86      1.0000 0.51860  0.36860  0.04290  Biso   1.000  N
  N87      1.0000 0.48730  0.31690  0.13880  Biso   1.000  N
  N88      1.0000 0.75904  0.05294  0.26134  Biso   1.000  N
  N89      1.0000 0.80511  0.05971  0.14871  Biso   1.000  N
  N90      1.0000 0.80687  0.96117  0.12447  Biso   1.000  N
  N91      1.0000 0.75718  0.90388  0.20988  Biso   1.000  N
  N92      1.0000 0.71891  0.95821  0.28811  Biso   1.000  N
  N93      1.0000 0.41270  0.02910  0.17780  Biso   1.000  N
  N94      1.0000 0.47376  0.97176  0.10556  Biso   1.000  N
  N95      1.0000 0.57260  0.93940  0.12500  Biso   1.000  N
  N96      1.0000 0.57769  0.98419  0.21069  Biso   1.000  N
  N97      1.0000 0.47200  0.02910  0.25260  Biso   1.000  N
  N98      1.0000 0.57770  0.63030  0.29910  Biso   1.000  N
  N99      1.0000 0.58384  0.73844  0.24434  Biso   1.000  N
  N100     1.0000 0.49544  0.77014  0.19484  Biso   1.000  N
  N101     1.0000 0.43157  0.70007  0.23347  Biso   1.000  N
  N102     1.0000 0.47707  0.61547  0.29537  Biso   1.000  N
  N103     1.0000 0.82484  0.30654  0.97434  Biso   1.000  N
  N104     1.0000 0.87874  0.47284  0.93174  Biso   1.000  N
  N105     1.0000 0.81070  0.38170  0.82800  Biso   1.000  N
  N106     1.0000 0.94054  0.43794  0.76474  Biso   1.000  N
  N107     1.0000 0.05320  0.35490  0.84330  Biso   1.000  N
  N108     1.0000 0.95223  0.23933  0.84633  Biso   1.000  N
  N109     1.0000 0.97481  0.30261  0.99291  Biso   1.000  N
  N110     1.0000 0.76860  0.51660  0.08320  Biso   1.000  N
  N111     1.0000 0.66930  0.41360  0.16850  Biso   1.000  N
  N112     1.0000 0.67373  0.52383  0.26933  Biso   1.000  N
  N113     1.0000 0.52539  0.50619  0.19909  Biso   1.000  N
  N114     1.0000 0.55232  0.65152  0.18382  Biso   1.000  N
  N115     1.0000 0.70070  0.65640  0.12050  Biso   1.000  N
  N116     1.0000 0.61520  0.57500  0.02340  Biso   1.000  N
  N117     1.0000 0.86940  0.54850  0.77470  Biso   1.000  N
  N118     1.0000 0.98250  0.54990  0.76160  Biso   1.000  N
  N119     1.0000 0.03160  0.49370  0.67870  Biso   1.000  N
  N120     1.0000 0.95710  0.48140  0.63140  Biso   1.000  N
  N121     1.0000 0.86120  0.51270  0.68310  Biso   1.000  N
  N122     1.0000 0.73866  0.24096  0.94706  Biso   1.000  N
  N123     1.0000 0.85129  0.19489  0.94029  Biso   1.000  N
  N124     1.0000 0.87553  0.19313  0.03883  Biso   1.000  N
  N125     1.0000 0.79012  0.24282  0.09612  Biso   1.000  N
  N126     1.0000 0.71189  0.28109  0.04179  Biso   1.000  N
  N127     1.0000 0.82220  0.58730  0.97090  Biso   1.000  N
  N128     1.0000 0.89444  0.52624  0.02824  Biso   1.000  N
  N129     1.0000 0.87500  0.42740  0.06060  Biso   1.000  N
  N130     1.0000 0.78931  0.42231  0.01581  Biso   1.000  N
  N131     1.0000 0.74740  0.52800  0.97090  Biso   1.000  N
  N132     1.0000 0.70090  0.42230  0.36970  Biso   1.000  N
  N133     1.0000 0.75566  0.41616  0.26156  Biso   1.000  N
  N134     1.0000 0.80516  0.50456  0.22986  Biso   1.000  N
  N135     1.0000 0.76653  0.56843  0.29993  Biso   1.000  N
  N136     1.0000 0.70463  0.52293  0.38453  Biso   1.000  N
  N137     1.0000 0.97434  0.82484  0.30654  Biso   1.000  N
  N138     1.0000 0.93174  0.87874  0.47284  Biso   1.000  N
  N139     1.0000 0.82800  0.81070  0.38170  Biso   1.000  N
  N140     1.0000 0.76474  0.94054  0.43794  Biso   1.000  N
  N141     1.0000 0.84330  0.05320  0.35490  Biso   1.000  N
  N142     1.0000 0.84633  0.95223  0.23933  Biso   1.000  N
  N143     1.0000 0.99291  0.97481  0.30261  Biso   1.000  N
  N144     1.0000 0.08320  0.76860  0.51660  Biso   1.000  N
  N145     1.0000 0.16850  0.66930  0.41360  Biso   1.000  N
  N146     1.0000 0.26933  0.67373  0.52383  Biso   1.000  N
  N147     1.0000 0.19909  0.52539  0.50619  Biso   1.000  N
  N148     1.0000 0.18382  0.55232  0.65152  Biso   1.000  N
  N149     1.0000 0.12050  0.70070  0.65640  Biso   1.000  N
  N150     1.0000 0.02340  0.61520  0.57500  Biso   1.000  N
  N151     1.0000 0.77470  0.86940  0.54850  Biso   1.000  N
  N152     1.0000 0.76160  0.98250  0.54990  Biso   1.000  N
  N153     1.0000 0.67870  0.03160  0.49370  Biso   1.000  N
  N154     1.0000 0.63140  0.95710  0.48140  Biso   1.000  N
  N155     1.0000 0.68310  0.86120  0.51270  Biso   1.000  N
  N156     1.0000 0.94706  0.73866  0.24096  Biso   1.000  N
  N157     1.0000 0.94029  0.85129  0.19489  Biso   1.000  N
  N158     1.0000 0.03883  0.87553  0.19313  Biso   1.000  N
  N159     1.0000 0.09612  0.79012  0.24282  Biso   1.000  N
  N160     1.0000 0.04179  0.71189  0.28109  Biso   1.000  N
  N161     1.0000 0.97090  0.82220  0.58730  Biso   1.000  N
  N162     1.0000 0.02824  0.89444  0.52624  Biso   1.000  N
  N163     1.0000 0.06060  0.87500  0.42740  Biso   1.000  N
  N164     1.0000 0.01581  0.78931  0.42231  Biso   1.000  N
  N165     1.0000 0.97090  0.74740  0.52800  Biso   1.000  N
  N166     1.0000 0.36970  0.70090  0.42230  Biso   1.000  N
  N167     1.0000 0.26156  0.75566  0.41616  Biso   1.000  N
  N168     1.0000 0.22986  0.80516  0.50456  Biso   1.000  N
  N169     1.0000 0.29993  0.76653  0.56843  Biso   1.000  N
  N170     1.0000 0.38453  0.70463  0.52293  Biso   1.000  N
  N171     1.0000 0.30654  0.97434  0.82484  Biso   1.000  N
  N172     1.0000 0.47284  0.93174  0.87874  Biso   1.000  N
  N173     1.0000 0.38170  0.82800  0.81070  Biso   1.000  N
  N174     1.0000 0.43794  0.76474  0.94054  Biso   1.000  N
  N175     1.0000 0.35490  0.84330  0.05320  Biso   1.000  N
  N176     1.0000 0.23933  0.84633  0.95223  Biso   1.000  N
  N177     1.0000 0.30261  0.99291  0.97481  Biso   1.000  N
  N178     1.0000 0.51660  0.08320  0.76860  Biso   1.000  N
  N179     1.0000 0.41360  0.16850  0.66930  Biso   1.000  N
  N180     1.0000 0.52383  0.26933  0.67373  Biso   1.000  N
  N181     1.0000 0.50619  0.19909  0.52539  Biso   1.000  N
  N182     1.0000 0.65152  0.18382  0.55232  Biso   1.000  N
  N183     1.0000 0.65640  0.12050  0.70070  Biso   1.000  N
  N184     1.0000 0.57500  0.02340  0.61520  Biso   1.000  N
  N185     1.0000 0.54850  0.77470  0.86940  Biso   1.000  N
  N186     1.0000 0.54990  0.76160  0.98250  Biso   1.000  N
  N187     1.0000 0.49370  0.67870  0.03160  Biso   1.000  N
  N188     1.0000 0.48140  0.63140  0.95710  Biso   1.000  N
  N189     1.0000 0.51270  0.68310  0.86120  Biso   1.000  N
  N190     1.0000 0.24096  0.94706  0.73866  Biso   1.000  N
  N191     1.0000 0.19489  0.94029  0.85129  Biso   1.000  N
  N192     1.0000 0.19313  0.03883  0.87553  Biso   1.000  N
  N193     1.0000 0.24282  0.09612  0.79012  Biso   1.000  N
  N194     1.0000 0.28109  0.04179  0.71189  Biso   1.000  N
  N195     1.0000 0.58730  0.97090  0.82220  Biso   1.000  N
  N196     1.0000 0.52624  0.02824  0.89444  Biso   1.000  N
  N197     1.0000 0.42740  0.06060  0.87500  Biso   1.000  N
  N198     1.0000 0.42231  0.01581  0.78931  Biso   1.000  N
  N199     1.0000 0.52800  0.97090  0.74740  Biso   1.000  N
  N200     1.0000 0.42230  0.36970  0.70090  Biso   1.000  N
  N201     1.0000 0.41616  0.26156  0.75566  Biso   1.000  N
  N202     1.0000 0.50456  0.22986  0.80516  Biso   1.000  N
  N203     1.0000 0.56843  0.29993  0.76653  Biso   1.000  N
  N204     1.0000 0.52293  0.38453  0.70463  Biso   1.000  N
  O1       1.0000 0.06440  0.39950  0.34500  Biso   1.000  O
  O2       1.0000 0.34500  0.06440  0.39950  Biso   1.000  O
  O3       1.0000 0.39950  0.34500  0.06440  Biso   1.000  O
  O4       1.0000 0.93560  0.60050  0.65500  Biso   1.000  O
  O5       1.0000 0.65500  0.93560  0.60050  Biso   1.000  O
  O6       1.0000 0.60050  0.65500  0.93560  Biso   1.000  O
