data_image0
_cell_length_a       29.37
_cell_length_b       20.998
_cell_length_c       27.36
_cell_angle_alpha    90
_cell_angle_beta     90
_cell_angle_gamma    90

_symmetry_space_group_name_H-M    "P 1"
_symmetry_int_tables_number       1

loop_
  _symmetry_equiv_pos_as_xyz
  'x, y, z'

loop_
  _atom_site_label
  _atom_site_occupancy
  _atom_site_fract_x
  _atom_site_fract_y
  _atom_site_fract_z
  _atom_site_thermal_displace_type
  _atom_site_B_iso_or_equiv
  _atom_site_type_symbol
  Cd1      1.0000 0.07052  0.25151  0.06894  Biso   1.000  Cd
  Na1      1.0000 0.03267  0.12417  0.13453  Biso   1.000  Na
  O1       1.0000 0.18690  0.27310  0.37590  Biso   1.000  O
  O2       1.0000 0.00140  0.22230  0.14400  Biso   1.000  O
  O3       1.0000 0.21450  0.17940  0.40420  Biso   1.000  O
  O4       1.0000 0.13630  0.26230  0.13190  Biso   1.000  O
  O5       1.0000 0.87480  0.48830  0.25660  Biso   1.000  O
  O6       1.0000 0.10270  0.16930  0.11270  Biso   1.000  O
  O7       1.0000 0.26280  0.00330  0.26000  Biso   1.000  O
  O8       1.0000 0.02860  0.30790  0.11960  Biso   1.000  O
  C1       1.0000 0.15180  0.11300  0.34970  Biso   1.000  C
  H1       1.0000 0.17010  0.09110  0.37180  Biso   1.000  H
  C2       1.0000 0.00340  0.28250  0.14260  Biso   1.000  C
  C3       1.0000 0.18650  0.21530  0.37670  Biso   1.000  C
  C4       1.0000 0.12650  0.21270  0.31280  Biso   1.000  C
  H2       1.0000 0.12750  0.25680  0.31080  Biso   1.000  H
  C5       1.0000 0.90990  0.38870  0.23320  Biso   1.000  C
  O9       1.0000 0.03950  0.10740  0.22070  Biso   1.000  O
  C6       1.0000 0.15490  0.17810  0.34650  Biso   1.000  C
  O10      1.0000 0.85040  0.40100  0.28750  Biso   1.000  O
  C7       1.0000 0.12150  0.07950  0.32000  Biso   1.000  C
  H3       1.0000 0.11890  0.03550  0.32200  Biso   1.000  H
  C8       1.0000 0.97000  0.38220  0.16920  Biso   1.000  C
  H4       1.0000 0.98880  0.40340  0.14720  Biso   1.000  H
  C9       1.0000 0.13160  0.20190  0.13710  Biso   1.000  C
  C10      1.0000 0.09520  0.11460  0.28720  Biso   1.000  C
  C11      1.0000 0.06040  0.07330  0.25580  Biso   1.000  C
  C12      1.0000 0.09680  0.17640  0.28250  Biso   1.000  C
  H5       1.0000 0.07860  0.19660  0.25940  Biso   1.000  H
  C13      1.0000 0.22390  0.09870  0.22930  Biso   1.000  C
  C14      1.0000 0.25830  0.05720  0.26380  Biso   1.000  C
  C15      1.0000 0.90910  0.32310  0.23120  Biso   1.000  C
  H6       1.0000 0.88950  0.29880  0.25040  Biso   1.000  H
  C16      1.0000 0.97050  0.31890  0.17280  Biso   1.000  C
  C17      1.0000 0.22190  0.16990  0.22990  Biso   1.000  C
  H7       1.0000 0.23980  0.19280  0.25170  Biso   1.000  H
  C18      1.0000 0.16290  0.16700  0.17050  Biso   1.000  C
  C19      1.0000 0.87490  0.42890  0.26180  Biso   1.000  C
  C20      1.0000 0.16310  0.10200  0.17340  Biso   1.000  C
  H8       1.0000 0.14290  0.07830  0.15450  Biso   1.000  H
  C21      1.0000 0.19480  0.20000  0.19920  Biso   1.000  C
  H9       1.0000 0.19680  0.24400  0.19650  Biso   1.000  H
  C22      1.0000 0.19340  0.07100  0.20450  Biso   1.000  C
  H10      1.0000 0.19110  0.02700  0.20730  Biso   1.000  H
  O11      1.0000 0.27630  0.09460  0.29680  Biso   1.000  O
  C23      1.0000 0.93970  0.29580  0.19830  Biso   1.000  C
  H11      1.0000 0.93640  0.25200  0.19480  Biso   1.000  H
  C24      1.0000 0.93740  0.41850  0.20250  Biso   1.000  C
  H12      1.0000 0.93690  0.46270  0.20120  Biso   1.000  H
  O12      1.0000 0.05740  0.01760  0.25980  Biso   1.000  O
  Cd2      1.0000 0.07052  0.75151  0.56894  Biso   1.000  Cd
  Na2      1.0000 0.03267  0.62417  0.63453  Biso   1.000  Na
  O13      1.0000 0.18690  0.77310  0.87590  Biso   1.000  O
  O14      1.0000 0.00140  0.72230  0.64400  Biso   1.000  O
  O15      1.0000 0.21450  0.67940  0.90420  Biso   1.000  O
  O16      1.0000 0.13630  0.76230  0.63190  Biso   1.000  O
  O17      1.0000 0.87480  0.98830  0.75660  Biso   1.000  O
  O18      1.0000 0.10270  0.66930  0.61270  Biso   1.000  O
  O19      1.0000 0.26280  0.50330  0.76000  Biso   1.000  O
  O20      1.0000 0.02860  0.80790  0.61960  Biso   1.000  O
  C25      1.0000 0.15180  0.61300  0.84970  Biso   1.000  C
  H13      1.0000 0.17010  0.59110  0.87180  Biso   1.000  H
  C26      1.0000 0.00340  0.78250  0.64260  Biso   1.000  C
  C27      1.0000 0.18650  0.71530  0.87670  Biso   1.000  C
  C28      1.0000 0.12650  0.71270  0.81280  Biso   1.000  C
  H14      1.0000 0.12750  0.75680  0.81080  Biso   1.000  H
  C29      1.0000 0.90990  0.88870  0.73320  Biso   1.000  C
  O21      1.0000 0.03950  0.60740  0.72070  Biso   1.000  O
  C30      1.0000 0.15490  0.67810  0.84650  Biso   1.000  C
  O22      1.0000 0.85040  0.90100  0.78750  Biso   1.000  O
  C31      1.0000 0.12150  0.57950  0.82000  Biso   1.000  C
  H15      1.0000 0.11890  0.53550  0.82200  Biso   1.000  H
  C32      1.0000 0.97000  0.88220  0.66920  Biso   1.000  C
  H16      1.0000 0.98880  0.90340  0.64720  Biso   1.000  H
  C33      1.0000 0.13160  0.70190  0.63710  Biso   1.000  C
  C34      1.0000 0.09520  0.61460  0.78720  Biso   1.000  C
  C35      1.0000 0.06040  0.57330  0.75580  Biso   1.000  C
  C36      1.0000 0.09680  0.67640  0.78250  Biso   1.000  C
  H17      1.0000 0.07860  0.69660  0.75940  Biso   1.000  H
  C37      1.0000 0.22390  0.59870  0.72930  Biso   1.000  C
  C38      1.0000 0.25830  0.55720  0.76380  Biso   1.000  C
  C39      1.0000 0.90910  0.82310  0.73120  Biso   1.000  C
  H18      1.0000 0.88950  0.79880  0.75040  Biso   1.000  H
  C40      1.0000 0.97050  0.81890  0.67280  Biso   1.000  C
  C41      1.0000 0.22190  0.66990  0.72990  Biso   1.000  C
  H19      1.0000 0.23980  0.69280  0.75170  Biso   1.000  H
  C42      1.0000 0.16290  0.66700  0.67050  Biso   1.000  C
  C43      1.0000 0.87490  0.92890  0.76180  Biso   1.000  C
  C44      1.0000 0.16310  0.60200  0.67340  Biso   1.000  C
  H20      1.0000 0.14290  0.57830  0.65450  Biso   1.000  H
  C45      1.0000 0.19480  0.70000  0.69920  Biso   1.000  C
  H21      1.0000 0.19680  0.74400  0.69650  Biso   1.000  H
  C46      1.0000 0.19340  0.57100  0.70450  Biso   1.000  C
  H22      1.0000 0.19110  0.52700  0.70730  Biso   1.000  H
  O23      1.0000 0.27630  0.59460  0.79680  Biso   1.000  O
  C47      1.0000 0.93970  0.79580  0.69830  Biso   1.000  C
  H23      1.0000 0.93640  0.75200  0.69480  Biso   1.000  H
  C48      1.0000 0.93740  0.91850  0.70250  Biso   1.000  C
  H24      1.0000 0.93690  0.96270  0.70120  Biso   1.000  H
  O24      1.0000 0.05740  0.51760  0.75980  Biso   1.000  O
  Cd3      1.0000 0.57052  0.25151  0.56894  Biso   1.000  Cd
  Na3      1.0000 0.53267  0.12417  0.63453  Biso   1.000  Na
  O25      1.0000 0.68690  0.27310  0.87590  Biso   1.000  O
  O26      1.0000 0.50140  0.22230  0.64400  Biso   1.000  O
  O27      1.0000 0.71450  0.17940  0.90420  Biso   1.000  O
  O28      1.0000 0.63630  0.26230  0.63190  Biso   1.000  O
  O29      1.0000 0.37480  0.48830  0.75660  Biso   1.000  O
  O30      1.0000 0.60270  0.16930  0.61270  Biso   1.000  O
  O31      1.0000 0.76280  0.00330  0.76000  Biso   1.000  O
  O32      1.0000 0.52860  0.30790  0.61960  Biso   1.000  O
  C49      1.0000 0.65180  0.11300  0.84970  Biso   1.000  C
  H25      1.0000 0.67010  0.09110  0.87180  Biso   1.000  H
  C50      1.0000 0.50340  0.28250  0.64260  Biso   1.000  C
  C51      1.0000 0.68650  0.21530  0.87670  Biso   1.000  C
  C52      1.0000 0.62650  0.21270  0.81280  Biso   1.000  C
  H26      1.0000 0.62750  0.25680  0.81080  Biso   1.000  H
  C53      1.0000 0.40990  0.38870  0.73320  Biso   1.000  C
  O33      1.0000 0.53950  0.10740  0.72070  Biso   1.000  O
  C54      1.0000 0.65490  0.17810  0.84650  Biso   1.000  C
  O34      1.0000 0.35040  0.40100  0.78750  Biso   1.000  O
  C55      1.0000 0.62150  0.07950  0.82000  Biso   1.000  C
  H27      1.0000 0.61890  0.03550  0.82200  Biso   1.000  H
  C56      1.0000 0.47000  0.38220  0.66920  Biso   1.000  C
  H28      1.0000 0.48880  0.40340  0.64720  Biso   1.000  H
  C57      1.0000 0.63160  0.20190  0.63710  Biso   1.000  C
  C58      1.0000 0.59520  0.11460  0.78720  Biso   1.000  C
  C59      1.0000 0.56040  0.07330  0.75580  Biso   1.000  C
  C60      1.0000 0.59680  0.17640  0.78250  Biso   1.000  C
  H29      1.0000 0.57860  0.19660  0.75940  Biso   1.000  H
  C61      1.0000 0.72390  0.09870  0.72930  Biso   1.000  C
  C62      1.0000 0.75830  0.05720  0.76380  Biso   1.000  C
  C63      1.0000 0.40910  0.32310  0.73120  Biso   1.000  C
  H30      1.0000 0.38950  0.29880  0.75040  Biso   1.000  H
  C64      1.0000 0.47050  0.31890  0.67280  Biso   1.000  C
  C65      1.0000 0.72190  0.16990  0.72990  Biso   1.000  C
  H31      1.0000 0.73980  0.19280  0.75170  Biso   1.000  H
  C66      1.0000 0.66290  0.16700  0.67050  Biso   1.000  C
  C67      1.0000 0.37490  0.42890  0.76180  Biso   1.000  C
  C68      1.0000 0.66310  0.10200  0.67340  Biso   1.000  C
  H32      1.0000 0.64290  0.07830  0.65450  Biso   1.000  H
  C69      1.0000 0.69480  0.20000  0.69920  Biso   1.000  C
  H33      1.0000 0.69680  0.24400  0.69650  Biso   1.000  H
  C70      1.0000 0.69340  0.07100  0.70450  Biso   1.000  C
  H34      1.0000 0.69110  0.02700  0.70730  Biso   1.000  H
  O35      1.0000 0.77630  0.09460  0.79680  Biso   1.000  O
  C71      1.0000 0.43970  0.29580  0.69830  Biso   1.000  C
  H35      1.0000 0.43640  0.25200  0.69480  Biso   1.000  H
  C72      1.0000 0.43740  0.41850  0.70250  Biso   1.000  C
  H36      1.0000 0.43690  0.46270  0.70120  Biso   1.000  H
  O36      1.0000 0.55740  0.01760  0.75980  Biso   1.000  O
  Cd4      1.0000 0.57052  0.75151  0.06894  Biso   1.000  Cd
  Na4      1.0000 0.53267  0.62417  0.13453  Biso   1.000  Na
  O37      1.0000 0.68690  0.77310  0.37590  Biso   1.000  O
  O38      1.0000 0.50140  0.72230  0.14400  Biso   1.000  O
  O39      1.0000 0.71450  0.67940  0.40420  Biso   1.000  O
  O40      1.0000 0.63630  0.76230  0.13190  Biso   1.000  O
  O41      1.0000 0.37480  0.98830  0.25660  Biso   1.000  O
  O42      1.0000 0.60270  0.66930  0.11270  Biso   1.000  O
  O43      1.0000 0.76280  0.50330  0.26000  Biso   1.000  O
  O44      1.0000 0.52860  0.80790  0.11960  Biso   1.000  O
  C73      1.0000 0.65180  0.61300  0.34970  Biso   1.000  C
  H37      1.0000 0.67010  0.59110  0.37180  Biso   1.000  H
  C74      1.0000 0.50340  0.78250  0.14260  Biso   1.000  C
  C75      1.0000 0.68650  0.71530  0.37670  Biso   1.000  C
  C76      1.0000 0.62650  0.71270  0.31280  Biso   1.000  C
  H38      1.0000 0.62750  0.75680  0.31080  Biso   1.000  H
  C77      1.0000 0.40990  0.88870  0.23320  Biso   1.000  C
  O45      1.0000 0.53950  0.60740  0.22070  Biso   1.000  O
  C78      1.0000 0.65490  0.67810  0.34650  Biso   1.000  C
  O46      1.0000 0.35040  0.90100  0.28750  Biso   1.000  O
  C79      1.0000 0.62150  0.57950  0.32000  Biso   1.000  C
  H39      1.0000 0.61890  0.53550  0.32200  Biso   1.000  H
  C80      1.0000 0.47000  0.88220  0.16920  Biso   1.000  C
  H40      1.0000 0.48880  0.90340  0.14720  Biso   1.000  H
  C81      1.0000 0.63160  0.70190  0.13710  Biso   1.000  C
  C82      1.0000 0.59520  0.61460  0.28720  Biso   1.000  C
  C83      1.0000 0.56040  0.57330  0.25580  Biso   1.000  C
  C84      1.0000 0.59680  0.67640  0.28250  Biso   1.000  C
  H41      1.0000 0.57860  0.69660  0.25940  Biso   1.000  H
  C85      1.0000 0.72390  0.59870  0.22930  Biso   1.000  C
  C86      1.0000 0.75830  0.55720  0.26380  Biso   1.000  C
  C87      1.0000 0.40910  0.82310  0.23120  Biso   1.000  C
  H42      1.0000 0.38950  0.79880  0.25040  Biso   1.000  H
  C88      1.0000 0.47050  0.81890  0.17280  Biso   1.000  C
  C89      1.0000 0.72190  0.66990  0.22990  Biso   1.000  C
  H43      1.0000 0.73980  0.69280  0.25170  Biso   1.000  H
  C90      1.0000 0.66290  0.66700  0.17050  Biso   1.000  C
  C91      1.0000 0.37490  0.92890  0.26180  Biso   1.000  C
  C92      1.0000 0.66310  0.60200  0.17340  Biso   1.000  C
  H44      1.0000 0.64290  0.57830  0.15450  Biso   1.000  H
  C93      1.0000 0.69480  0.70000  0.19920  Biso   1.000  C
  H45      1.0000 0.69680  0.74400  0.19650  Biso   1.000  H
  C94      1.0000 0.69340  0.57100  0.20450  Biso   1.000  C
  H46      1.0000 0.69110  0.52700  0.20730  Biso   1.000  H
  O47      1.0000 0.77630  0.59460  0.29680  Biso   1.000  O
  C95      1.0000 0.43970  0.79580  0.19830  Biso   1.000  C
  H47      1.0000 0.43640  0.75200  0.19480  Biso   1.000  H
  C96      1.0000 0.43740  0.91850  0.20250  Biso   1.000  C
  H48      1.0000 0.43690  0.96270  0.20120  Biso   1.000  H
  O48      1.0000 0.55740  0.51760  0.25980  Biso   1.000  O
  Cd5      1.0000 0.92948  0.74849  0.06894  Biso   1.000  Cd
  Na5      1.0000 0.96733  0.87583  0.13453  Biso   1.000  Na
  O49      1.0000 0.81310  0.72690  0.37590  Biso   1.000  O
  O50      1.0000 0.99860  0.77770  0.14400  Biso   1.000  O
  O51      1.0000 0.78550  0.82060  0.40420  Biso   1.000  O
  O52      1.0000 0.86370  0.73770  0.13190  Biso   1.000  O
  O53      1.0000 0.12520  0.51170  0.25660  Biso   1.000  O
  O54      1.0000 0.89730  0.83070  0.11270  Biso   1.000  O
  O55      1.0000 0.73720  0.99670  0.26000  Biso   1.000  O
  O56      1.0000 0.97140  0.69210  0.11960  Biso   1.000  O
  C97      1.0000 0.84820  0.88700  0.34970  Biso   1.000  C
  H49      1.0000 0.82990  0.90890  0.37180  Biso   1.000  H
  C98      1.0000 0.99660  0.71750  0.14260  Biso   1.000  C
  C99      1.0000 0.81350  0.78470  0.37670  Biso   1.000  C
  C100     1.0000 0.87350  0.78730  0.31280  Biso   1.000  C
  H50      1.0000 0.87250  0.74320  0.31080  Biso   1.000  H
  C101     1.0000 0.09010  0.61130  0.23320  Biso   1.000  C
  O57      1.0000 0.96050  0.89260  0.22070  Biso   1.000  O
  C102     1.0000 0.84510  0.82190  0.34650  Biso   1.000  C
  O58      1.0000 0.14960  0.59900  0.28750  Biso   1.000  O
  C103     1.0000 0.87850  0.92050  0.32000  Biso   1.000  C
  H51      1.0000 0.88110  0.96450  0.32200  Biso   1.000  H
  C104     1.0000 0.03000  0.61780  0.16920  Biso   1.000  C
  H52      1.0000 0.01120  0.59660  0.14720  Biso   1.000  H
  C105     1.0000 0.86840  0.79810  0.13710  Biso   1.000  C
  C106     1.0000 0.90480  0.88540  0.28720  Biso   1.000  C
  C107     1.0000 0.93960  0.92670  0.25580  Biso   1.000  C
  C108     1.0000 0.90320  0.82360  0.28250  Biso   1.000  C
  H53      1.0000 0.92140  0.80340  0.25940  Biso   1.000  H
  C109     1.0000 0.77610  0.90130  0.22930  Biso   1.000  C
  C110     1.0000 0.74170  0.94280  0.26380  Biso   1.000  C
  C111     1.0000 0.09090  0.67690  0.23120  Biso   1.000  C
  H54      1.0000 0.11050  0.70120  0.25040  Biso   1.000  H
  C112     1.0000 0.02950  0.68110  0.17280  Biso   1.000  C
  C113     1.0000 0.77810  0.83010  0.22990  Biso   1.000  C
  H55      1.0000 0.76020  0.80720  0.25170  Biso   1.000  H
  C114     1.0000 0.83710  0.83300  0.17050  Biso   1.000  C
  C115     1.0000 0.12510  0.57110  0.26180  Biso   1.000  C
  C116     1.0000 0.83690  0.89800  0.17340  Biso   1.000  C
  H56      1.0000 0.85710  0.92170  0.15450  Biso   1.000  H
  C117     1.0000 0.80520  0.80000  0.19920  Biso   1.000  C
  H57      1.0000 0.80320  0.75600  0.19650  Biso   1.000  H
  C118     1.0000 0.80660  0.92900  0.20450  Biso   1.000  C
  H58      1.0000 0.80890  0.97300  0.20730  Biso   1.000  H
  O59      1.0000 0.72370  0.90540  0.29680  Biso   1.000  O
  C119     1.0000 0.06030  0.70420  0.19830  Biso   1.000  C
  H59      1.0000 0.06360  0.74800  0.19480  Biso   1.000  H
  C120     1.0000 0.06260  0.58150  0.20250  Biso   1.000  C
  H60      1.0000 0.06310  0.53730  0.20120  Biso   1.000  H
  O60      1.0000 0.94260  0.98240  0.25980  Biso   1.000  O
  Cd6      1.0000 0.92948  0.24849  0.56894  Biso   1.000  Cd
  Na6      1.0000 0.96733  0.37583  0.63453  Biso   1.000  Na
  O61      1.0000 0.81310  0.22690  0.87590  Biso   1.000  O
  O62      1.0000 0.99860  0.27770  0.64400  Biso   1.000  O
  O63      1.0000 0.78550  0.32060  0.90420  Biso   1.000  O
  O64      1.0000 0.86370  0.23770  0.63190  Biso   1.000  O
  O65      1.0000 0.12520  0.01170  0.75660  Biso   1.000  O
  O66      1.0000 0.89730  0.33070  0.61270  Biso   1.000  O
  O67      1.0000 0.73720  0.49670  0.76000  Biso   1.000  O
  O68      1.0000 0.97140  0.19210  0.61960  Biso   1.000  O
  C121     1.0000 0.84820  0.38700  0.84970  Biso   1.000  C
  H61      1.0000 0.82990  0.40890  0.87180  Biso   1.000  H
  C122     1.0000 0.99660  0.21750  0.64260  Biso   1.000  C
  C123     1.0000 0.81350  0.28470  0.87670  Biso   1.000  C
  C124     1.0000 0.87350  0.28730  0.81280  Biso   1.000  C
  H62      1.0000 0.87250  0.24320  0.81080  Biso   1.000  H
  C125     1.0000 0.09010  0.11130  0.73320  Biso   1.000  C
  O69      1.0000 0.96050  0.39260  0.72070  Biso   1.000  O
  C126     1.0000 0.84510  0.32190  0.84650  Biso   1.000  C
  O70      1.0000 0.14960  0.09900  0.78750  Biso   1.000  O
  C127     1.0000 0.87850  0.42050  0.82000  Biso   1.000  C
  H63      1.0000 0.88110  0.46450  0.82200  Biso   1.000  H
  C128     1.0000 0.03000  0.11780  0.66920  Biso   1.000  C
  H64      1.0000 0.01120  0.09660  0.64720  Biso   1.000  H
  C129     1.0000 0.86840  0.29810  0.63710  Biso   1.000  C
  C130     1.0000 0.90480  0.38540  0.78720  Biso   1.000  C
  C131     1.0000 0.93960  0.42670  0.75580  Biso   1.000  C
  C132     1.0000 0.90320  0.32360  0.78250  Biso   1.000  C
  H65      1.0000 0.92140  0.30340  0.75940  Biso   1.000  H
  C133     1.0000 0.77610  0.40130  0.72930  Biso   1.000  C
  C134     1.0000 0.74170  0.44280  0.76380  Biso   1.000  C
  C135     1.0000 0.09090  0.17690  0.73120  Biso   1.000  C
  H66      1.0000 0.11050  0.20120  0.75040  Biso   1.000  H
  C136     1.0000 0.02950  0.18110  0.67280  Biso   1.000  C
  C137     1.0000 0.77810  0.33010  0.72990  Biso   1.000  C
  H67      1.0000 0.76020  0.30720  0.75170  Biso   1.000  H
  C138     1.0000 0.83710  0.33300  0.67050  Biso   1.000  C
  C139     1.0000 0.12510  0.07110  0.76180  Biso   1.000  C
  C140     1.0000 0.83690  0.39800  0.67340  Biso   1.000  C
  H68      1.0000 0.85710  0.42170  0.65450  Biso   1.000  H
  C141     1.0000 0.80520  0.30000  0.69920  Biso   1.000  C
  H69      1.0000 0.80320  0.25600  0.69650  Biso   1.000  H
  C142     1.0000 0.80660  0.42900  0.70450  Biso   1.000  C
  H70      1.0000 0.80890  0.47300  0.70730  Biso   1.000  H
  O71      1.0000 0.72370  0.40540  0.79680  Biso   1.000  O
  C143     1.0000 0.06030  0.20420  0.69830  Biso   1.000  C
  H71      1.0000 0.06360  0.24800  0.69480  Biso   1.000  H
  C144     1.0000 0.06260  0.08150  0.70250  Biso   1.000  C
  H72      1.0000 0.06310  0.03730  0.70120  Biso   1.000  H
  O72      1.0000 0.94260  0.48240  0.75980  Biso   1.000  O
  Cd7      1.0000 0.42948  0.74849  0.56894  Biso   1.000  Cd
  Na7      1.0000 0.46733  0.87583  0.63453  Biso   1.000  Na
  O73      1.0000 0.31310  0.72690  0.87590  Biso   1.000  O
  O74      1.0000 0.49860  0.77770  0.64400  Biso   1.000  O
  O75      1.0000 0.28550  0.82060  0.90420  Biso   1.000  O
  O76      1.0000 0.36370  0.73770  0.63190  Biso   1.000  O
  O77      1.0000 0.62520  0.51170  0.75660  Biso   1.000  O
  O78      1.0000 0.39730  0.83070  0.61270  Biso   1.000  O
  O79      1.0000 0.23720  0.99670  0.76000  Biso   1.000  O
  O80      1.0000 0.47140  0.69210  0.61960  Biso   1.000  O
  C145     1.0000 0.34820  0.88700  0.84970  Biso   1.000  C
  H73      1.0000 0.32990  0.90890  0.87180  Biso   1.000  H
  C146     1.0000 0.49660  0.71750  0.64260  Biso   1.000  C
  C147     1.0000 0.31350  0.78470  0.87670  Biso   1.000  C
  C148     1.0000 0.37350  0.78730  0.81280  Biso   1.000  C
  H74      1.0000 0.37250  0.74320  0.81080  Biso   1.000  H
  C149     1.0000 0.59010  0.61130  0.73320  Biso   1.000  C
  O81      1.0000 0.46050  0.89260  0.72070  Biso   1.000  O
  C150     1.0000 0.34510  0.82190  0.84650  Biso   1.000  C
  O82      1.0000 0.64960  0.59900  0.78750  Biso   1.000  O
  C151     1.0000 0.37850  0.92050  0.82000  Biso   1.000  C
  H75      1.0000 0.38110  0.96450  0.82200  Biso   1.000  H
  C152     1.0000 0.53000  0.61780  0.66920  Biso   1.000  C
  H76      1.0000 0.51120  0.59660  0.64720  Biso   1.000  H
  C153     1.0000 0.36840  0.79810  0.63710  Biso   1.000  C
  C154     1.0000 0.40480  0.88540  0.78720  Biso   1.000  C
  C155     1.0000 0.43960  0.92670  0.75580  Biso   1.000  C
  C156     1.0000 0.40320  0.82360  0.78250  Biso   1.000  C
  H77      1.0000 0.42140  0.80340  0.75940  Biso   1.000  H
  C157     1.0000 0.27610  0.90130  0.72930  Biso   1.000  C
  C158     1.0000 0.24170  0.94280  0.76380  Biso   1.000  C
  C159     1.0000 0.59090  0.67690  0.73120  Biso   1.000  C
  H78      1.0000 0.61050  0.70120  0.75040  Biso   1.000  H
  C160     1.0000 0.52950  0.68110  0.67280  Biso   1.000  C
  C161     1.0000 0.27810  0.83010  0.72990  Biso   1.000  C
  H79      1.0000 0.26020  0.80720  0.75170  Biso   1.000  H
  C162     1.0000 0.33710  0.83300  0.67050  Biso   1.000  C
  C163     1.0000 0.62510  0.57110  0.76180  Biso   1.000  C
  C164     1.0000 0.33690  0.89800  0.67340  Biso   1.000  C
  H80      1.0000 0.35710  0.92170  0.65450  Biso   1.000  H
  C165     1.0000 0.30520  0.80000  0.69920  Biso   1.000  C
  H81      1.0000 0.30320  0.75600  0.69650  Biso   1.000  H
  C166     1.0000 0.30660  0.92900  0.70450  Biso   1.000  C
  H82      1.0000 0.30890  0.97300  0.70730  Biso   1.000  H
  O83      1.0000 0.22370  0.90540  0.79680  Biso   1.000  O
  C167     1.0000 0.56030  0.70420  0.69830  Biso   1.000  C
  H83      1.0000 0.56360  0.74800  0.69480  Biso   1.000  H
  C168     1.0000 0.56260  0.58150  0.70250  Biso   1.000  C
  H84      1.0000 0.56310  0.53730  0.70120  Biso   1.000  H
  O84      1.0000 0.44260  0.98240  0.75980  Biso   1.000  O
  Cd8      1.0000 0.42948  0.24849  0.06894  Biso   1.000  Cd
  Na8      1.0000 0.46733  0.37583  0.13453  Biso   1.000  Na
  O85      1.0000 0.31310  0.22690  0.37590  Biso   1.000  O
  O86      1.0000 0.49860  0.27770  0.14400  Biso   1.000  O
  O87      1.0000 0.28550  0.32060  0.40420  Biso   1.000  O
  O88      1.0000 0.36370  0.23770  0.13190  Biso   1.000  O
  O89      1.0000 0.62520  0.01170  0.25660  Biso   1.000  O
  O90      1.0000 0.39730  0.33070  0.11270  Biso   1.000  O
  O91      1.0000 0.23720  0.49670  0.26000  Biso   1.000  O
  O92      1.0000 0.47140  0.19210  0.11960  Biso   1.000  O
  C169     1.0000 0.34820  0.38700  0.34970  Biso   1.000  C
  H85      1.0000 0.32990  0.40890  0.37180  Biso   1.000  H
  C170     1.0000 0.49660  0.21750  0.14260  Biso   1.000  C
  C171     1.0000 0.31350  0.28470  0.37670  Biso   1.000  C
  C172     1.0000 0.37350  0.28730  0.31280  Biso   1.000  C
  H86      1.0000 0.37250  0.24320  0.31080  Biso   1.000  H
  C173     1.0000 0.59010  0.11130  0.23320  Biso   1.000  C
  O93      1.0000 0.46050  0.39260  0.22070  Biso   1.000  O
  C174     1.0000 0.34510  0.32190  0.34650  Biso   1.000  C
  O94      1.0000 0.64960  0.09900  0.28750  Biso   1.000  O
  C175     1.0000 0.37850  0.42050  0.32000  Biso   1.000  C
  H87      1.0000 0.38110  0.46450  0.32200  Biso   1.000  H
  C176     1.0000 0.53000  0.11780  0.16920  Biso   1.000  C
  H88      1.0000 0.51120  0.09660  0.14720  Biso   1.000  H
  C177     1.0000 0.36840  0.29810  0.13710  Biso   1.000  C
  C178     1.0000 0.40480  0.38540  0.28720  Biso   1.000  C
  C179     1.0000 0.43960  0.42670  0.25580  Biso   1.000  C
  C180     1.0000 0.40320  0.32360  0.28250  Biso   1.000  C
  H89      1.0000 0.42140  0.30340  0.25940  Biso   1.000  H
  C181     1.0000 0.27610  0.40130  0.22930  Biso   1.000  C
  C182     1.0000 0.24170  0.44280  0.26380  Biso   1.000  C
  C183     1.0000 0.59090  0.17690  0.23120  Biso   1.000  C
  H90      1.0000 0.61050  0.20120  0.25040  Biso   1.000  H
  C184     1.0000 0.52950  0.18110  0.17280  Biso   1.000  C
  C185     1.0000 0.27810  0.33010  0.22990  Biso   1.000  C
  H91      1.0000 0.26020  0.30720  0.25170  Biso   1.000  H
  C186     1.0000 0.33710  0.33300  0.17050  Biso   1.000  C
  C187     1.0000 0.62510  0.07110  0.26180  Biso   1.000  C
  C188     1.0000 0.33690  0.39800  0.17340  Biso   1.000  C
  H92      1.0000 0.35710  0.42170  0.15450  Biso   1.000  H
  C189     1.0000 0.30520  0.30000  0.19920  Biso   1.000  C
  H93      1.0000 0.30320  0.25600  0.19650  Biso   1.000  H
  C190     1.0000 0.30660  0.42900  0.20450  Biso   1.000  C
  H94      1.0000 0.30890  0.47300  0.20730  Biso   1.000  H
  O95      1.0000 0.22370  0.40540  0.29680  Biso   1.000  O
  C191     1.0000 0.56030  0.20420  0.19830  Biso   1.000  C
  H95      1.0000 0.56360  0.24800  0.19480  Biso   1.000  H
  C192     1.0000 0.56260  0.08150  0.20250  Biso   1.000  C
  H96      1.0000 0.56310  0.03730  0.20120  Biso   1.000  H
  O96      1.0000 0.44260  0.48240  0.25980  Biso   1.000  O
  Cd9      1.0000 0.32052  0.99849  0.31894  Biso   1.000  Cd
  Na9      1.0000 0.28267  0.12583  0.38453  Biso   1.000  Na
  O97      1.0000 0.43690  0.97690  0.62590  Biso   1.000  O
  O98      1.0000 0.25140  0.02770  0.39400  Biso   1.000  O
  O99      1.0000 0.46450  0.07060  0.65420  Biso   1.000  O
  O100     1.0000 0.38630  0.98770  0.38190  Biso   1.000  O
  O101     1.0000 0.12480  0.76170  0.50660  Biso   1.000  O
  O102     1.0000 0.35270  0.08070  0.36270  Biso   1.000  O
  O103     1.0000 0.51280  0.24670  0.51000  Biso   1.000  O
  O104     1.0000 0.27860  0.94210  0.36960  Biso   1.000  O
  C193     1.0000 0.40180  0.13700  0.59970  Biso   1.000  C
  H97      1.0000 0.42010  0.15890  0.62180  Biso   1.000  H
  C194     1.0000 0.25340  0.96750  0.39260  Biso   1.000  C
  C195     1.0000 0.43650  0.03470  0.62670  Biso   1.000  C
  C196     1.0000 0.37650  0.03730  0.56280  Biso   1.000  C
  H98      1.0000 0.37750  0.99320  0.56080  Biso   1.000  H
  C197     1.0000 0.15990  0.86130  0.48320  Biso   1.000  C
  O105     1.0000 0.28950  0.14260  0.47070  Biso   1.000  O
  C198     1.0000 0.40490  0.07190  0.59650  Biso   1.000  C
  O106     1.0000 0.10040  0.84900  0.53750  Biso   1.000  O
  C199     1.0000 0.37150  0.17050  0.57000  Biso   1.000  C
  H99      1.0000 0.36890  0.21450  0.57200  Biso   1.000  H
  C200     1.0000 0.22000  0.86780  0.41920  Biso   1.000  C
  H100     1.0000 0.23880  0.84660  0.39720  Biso   1.000  H
  C201     1.0000 0.38160  0.04810  0.38710  Biso   1.000  C
  C202     1.0000 0.34520  0.13540  0.53720  Biso   1.000  C
  C203     1.0000 0.31040  0.17670  0.50580  Biso   1.000  C
  C204     1.0000 0.34680  0.07360  0.53250  Biso   1.000  C
  H101     1.0000 0.32860  0.05340  0.50940  Biso   1.000  H
  C205     1.0000 0.47390  0.15130  0.47930  Biso   1.000  C
  C206     1.0000 0.50830  0.19280  0.51380  Biso   1.000  C
  C207     1.0000 0.15910  0.92690  0.48120  Biso   1.000  C
  H102     1.0000 0.13950  0.95120  0.50040  Biso   1.000  H
  C208     1.0000 0.22050  0.93110  0.42280  Biso   1.000  C
  C209     1.0000 0.47190  0.08010  0.47990  Biso   1.000  C
  H103     1.0000 0.48980  0.05720  0.50170  Biso   1.000  H
  C210     1.0000 0.41290  0.08300  0.42050  Biso   1.000  C
  C211     1.0000 0.12490  0.82110  0.51180  Biso   1.000  C
  C212     1.0000 0.41310  0.14800  0.42340  Biso   1.000  C
  H104     1.0000 0.39290  0.17170  0.40450  Biso   1.000  H
  C213     1.0000 0.44480  0.05000  0.44920  Biso   1.000  C
  H105     1.0000 0.44680  0.00600  0.44650  Biso   1.000  H
  C214     1.0000 0.44340  0.17900  0.45450  Biso   1.000  C
  H106     1.0000 0.44110  0.22300  0.45730  Biso   1.000  H
  O107     1.0000 0.52630  0.15540  0.54680  Biso   1.000  O
  C215     1.0000 0.18970  0.95420  0.44830  Biso   1.000  C
  H107     1.0000 0.18640  0.99800  0.44480  Biso   1.000  H
  C216     1.0000 0.18740  0.83150  0.45250  Biso   1.000  C
  H108     1.0000 0.18690  0.78730  0.45120  Biso   1.000  H
  O108     1.0000 0.30740  0.23240  0.50980  Biso   1.000  O
  Cd10     1.0000 0.32052  0.49849  0.81894  Biso   1.000  Cd
  Na10     1.0000 0.28267  0.62583  0.88453  Biso   1.000  Na
  O109     1.0000 0.43690  0.47690  0.12590  Biso   1.000  O
  O110     1.0000 0.25140  0.52770  0.89400  Biso   1.000  O
  O111     1.0000 0.46450  0.57060  0.15420  Biso   1.000  O
  O112     1.0000 0.38630  0.48770  0.88190  Biso   1.000  O
  O113     1.0000 0.12480  0.26170  0.00660  Biso   1.000  O
  O114     1.0000 0.35270  0.58070  0.86270  Biso   1.000  O
  O115     1.0000 0.51280  0.74670  0.01000  Biso   1.000  O
  O116     1.0000 0.27860  0.44210  0.86960  Biso   1.000  O
  C217     1.0000 0.40180  0.63700  0.09970  Biso   1.000  C
  H109     1.0000 0.42010  0.65890  0.12180  Biso   1.000  H
  C218     1.0000 0.25340  0.46750  0.89260  Biso   1.000  C
  C219     1.0000 0.43650  0.53470  0.12670  Biso   1.000  C
  C220     1.0000 0.37650  0.53730  0.06280  Biso   1.000  C
  H110     1.0000 0.37750  0.49320  0.06080  Biso   1.000  H
  C221     1.0000 0.15990  0.36130  0.98320  Biso   1.000  C
  O117     1.0000 0.28950  0.64260  0.97070  Biso   1.000  O
  C222     1.0000 0.40490  0.57190  0.09650  Biso   1.000  C
  O118     1.0000 0.10040  0.34900  0.03750  Biso   1.000  O
  C223     1.0000 0.37150  0.67050  0.07000  Biso   1.000  C
  H111     1.0000 0.36890  0.71450  0.07200  Biso   1.000  H
  C224     1.0000 0.22000  0.36780  0.91920  Biso   1.000  C
  H112     1.0000 0.23880  0.34660  0.89720  Biso   1.000  H
  C225     1.0000 0.38160  0.54810  0.88710  Biso   1.000  C
  C226     1.0000 0.34520  0.63540  0.03720  Biso   1.000  C
  C227     1.0000 0.31040  0.67670  0.00580  Biso   1.000  C
  C228     1.0000 0.34680  0.57360  0.03250  Biso   1.000  C
  H113     1.0000 0.32860  0.55340  0.00940  Biso   1.000  H
  C229     1.0000 0.47390  0.65130  0.97930  Biso   1.000  C
  C230     1.0000 0.50830  0.69280  0.01380  Biso   1.000  C
  C231     1.0000 0.15910  0.42690  0.98120  Biso   1.000  C
  H114     1.0000 0.13950  0.45120  0.00040  Biso   1.000  H
  C232     1.0000 0.22050  0.43110  0.92280  Biso   1.000  C
  C233     1.0000 0.47190  0.58010  0.97990  Biso   1.000  C
  H115     1.0000 0.48980  0.55720  0.00170  Biso   1.000  H
  C234     1.0000 0.41290  0.58300  0.92050  Biso   1.000  C
  C235     1.0000 0.12490  0.32110  0.01180  Biso   1.000  C
  C236     1.0000 0.41310  0.64800  0.92340  Biso   1.000  C
  H116     1.0000 0.39290  0.67170  0.90450  Biso   1.000  H
  C237     1.0000 0.44480  0.55000  0.94920  Biso   1.000  C
  H117     1.0000 0.44680  0.50600  0.94650  Biso   1.000  H
  C238     1.0000 0.44340  0.67900  0.95450  Biso   1.000  C
  H118     1.0000 0.44110  0.72300  0.95730  Biso   1.000  H
  O119     1.0000 0.52630  0.65540  0.04680  Biso   1.000  O
  C239     1.0000 0.18970  0.45420  0.94830  Biso   1.000  C
  H119     1.0000 0.18640  0.49800  0.94480  Biso   1.000  H
  C240     1.0000 0.18740  0.33150  0.95250  Biso   1.000  C
  H120     1.0000 0.18690  0.28730  0.95120  Biso   1.000  H
  O120     1.0000 0.30740  0.73240  0.00980  Biso   1.000  O
  Cd11     1.0000 0.82052  0.99849  0.81894  Biso   1.000  Cd
  Na11     1.0000 0.78267  0.12583  0.88453  Biso   1.000  Na
  O121     1.0000 0.93690  0.97690  0.12590  Biso   1.000  O
  O122     1.0000 0.75140  0.02770  0.89400  Biso   1.000  O
  O123     1.0000 0.96450  0.07060  0.15420  Biso   1.000  O
  O124     1.0000 0.88630  0.98770  0.88190  Biso   1.000  O
  O125     1.0000 0.62480  0.76170  0.00660  Biso   1.000  O
  O126     1.0000 0.85270  0.08070  0.86270  Biso   1.000  O
  O127     1.0000 0.01280  0.24670  0.01000  Biso   1.000  O
  O128     1.0000 0.77860  0.94210  0.86960  Biso   1.000  O
  C241     1.0000 0.90180  0.13700  0.09970  Biso   1.000  C
  H121     1.0000 0.92010  0.15890  0.12180  Biso   1.000  H
  C242     1.0000 0.75340  0.96750  0.89260  Biso   1.000  C
  C243     1.0000 0.93650  0.03470  0.12670  Biso   1.000  C
  C244     1.0000 0.87650  0.03730  0.06280  Biso   1.000  C
  H122     1.0000 0.87750  0.99320  0.06080  Biso   1.000  H
  C245     1.0000 0.65990  0.86130  0.98320  Biso   1.000  C
  O129     1.0000 0.78950  0.14260  0.97070  Biso   1.000  O
  C246     1.0000 0.90490  0.07190  0.09650  Biso   1.000  C
  O130     1.0000 0.60040  0.84900  0.03750  Biso   1.000  O
  C247     1.0000 0.87150  0.17050  0.07000  Biso   1.000  C
  H123     1.0000 0.86890  0.21450  0.07200  Biso   1.000  H
  C248     1.0000 0.72000  0.86780  0.91920  Biso   1.000  C
  H124     1.0000 0.73880  0.84660  0.89720  Biso   1.000  H
  C249     1.0000 0.88160  0.04810  0.88710  Biso   1.000  C
  C250     1.0000 0.84520  0.13540  0.03720  Biso   1.000  C
  C251     1.0000 0.81040  0.17670  0.00580  Biso   1.000  C
  C252     1.0000 0.84680  0.07360  0.03250  Biso   1.000  C
  H125     1.0000 0.82860  0.05340  0.00940  Biso   1.000  H
  C253     1.0000 0.97390  0.15130  0.97930  Biso   1.000  C
  C254     1.0000 0.00830  0.19280  0.01380  Biso   1.000  C
  C255     1.0000 0.65910  0.92690  0.98120  Biso   1.000  C
  H126     1.0000 0.63950  0.95120  0.00040  Biso   1.000  H
  C256     1.0000 0.72050  0.93110  0.92280  Biso   1.000  C
  C257     1.0000 0.97190  0.08010  0.97990  Biso   1.000  C
  H127     1.0000 0.98980  0.05720  0.00170  Biso   1.000  H
  C258     1.0000 0.91290  0.08300  0.92050  Biso   1.000  C
  C259     1.0000 0.62490  0.82110  0.01180  Biso   1.000  C
  C260     1.0000 0.91310  0.14800  0.92340  Biso   1.000  C
  H128     1.0000 0.89290  0.17170  0.90450  Biso   1.000  H
  C261     1.0000 0.94480  0.05000  0.94920  Biso   1.000  C
  H129     1.0000 0.94680  0.00600  0.94650  Biso   1.000  H
  C262     1.0000 0.94340  0.17900  0.95450  Biso   1.000  C
  H130     1.0000 0.94110  0.22300  0.95730  Biso   1.000  H
  O131     1.0000 0.02630  0.15540  0.04680  Biso   1.000  O
  C263     1.0000 0.68970  0.95420  0.94830  Biso   1.000  C
  H131     1.0000 0.68640  0.99800  0.94480  Biso   1.000  H
  C264     1.0000 0.68740  0.83150  0.95250  Biso   1.000  C
  H132     1.0000 0.68690  0.78730  0.95120  Biso   1.000  H
  O132     1.0000 0.80740  0.23240  0.00980  Biso   1.000  O
  Cd12     1.0000 0.82052  0.49849  0.31894  Biso   1.000  Cd
  Na12     1.0000 0.78267  0.62583  0.38453  Biso   1.000  Na
  O133     1.0000 0.93690  0.47690  0.62590  Biso   1.000  O
  O134     1.0000 0.75140  0.52770  0.39400  Biso   1.000  O
  O135     1.0000 0.96450  0.57060  0.65420  Biso   1.000  O
  O136     1.0000 0.88630  0.48770  0.38190  Biso   1.000  O
  O137     1.0000 0.62480  0.26170  0.50660  Biso   1.000  O
  O138     1.0000 0.85270  0.58070  0.36270  Biso   1.000  O
  O139     1.0000 0.01280  0.74670  0.51000  Biso   1.000  O
  O140     1.0000 0.77860  0.44210  0.36960  Biso   1.000  O
  C265     1.0000 0.90180  0.63700  0.59970  Biso   1.000  C
  H133     1.0000 0.92010  0.65890  0.62180  Biso   1.000  H
  C266     1.0000 0.75340  0.46750  0.39260  Biso   1.000  C
  C267     1.0000 0.93650  0.53470  0.62670  Biso   1.000  C
  C268     1.0000 0.87650  0.53730  0.56280  Biso   1.000  C
  H134     1.0000 0.87750  0.49320  0.56080  Biso   1.000  H
  C269     1.0000 0.65990  0.36130  0.48320  Biso   1.000  C
  O141     1.0000 0.78950  0.64260  0.47070  Biso   1.000  O
  C270     1.0000 0.90490  0.57190  0.59650  Biso   1.000  C
  O142     1.0000 0.60040  0.34900  0.53750  Biso   1.000  O
  C271     1.0000 0.87150  0.67050  0.57000  Biso   1.000  C
  H135     1.0000 0.86890  0.71450  0.57200  Biso   1.000  H
  C272     1.0000 0.72000  0.36780  0.41920  Biso   1.000  C
  H136     1.0000 0.73880  0.34660  0.39720  Biso   1.000  H
  C273     1.0000 0.88160  0.54810  0.38710  Biso   1.000  C
  C274     1.0000 0.84520  0.63540  0.53720  Biso   1.000  C
  C275     1.0000 0.81040  0.67670  0.50580  Biso   1.000  C
  C276     1.0000 0.84680  0.57360  0.53250  Biso   1.000  C
  H137     1.0000 0.82860  0.55340  0.50940  Biso   1.000  H
  C277     1.0000 0.97390  0.65130  0.47930  Biso   1.000  C
  C278     1.0000 0.00830  0.69280  0.51380  Biso   1.000  C
  C279     1.0000 0.65910  0.42690  0.48120  Biso   1.000  C
  H138     1.0000 0.63950  0.45120  0.50040  Biso   1.000  H
  C280     1.0000 0.72050  0.43110  0.42280  Biso   1.000  C
  C281     1.0000 0.97190  0.58010  0.47990  Biso   1.000  C
  H139     1.0000 0.98980  0.55720  0.50170  Biso   1.000  H
  C282     1.0000 0.91290  0.58300  0.42050  Biso   1.000  C
  C283     1.0000 0.62490  0.32110  0.51180  Biso   1.000  C
  C284     1.0000 0.91310  0.64800  0.42340  Biso   1.000  C
  H140     1.0000 0.89290  0.67170  0.40450  Biso   1.000  H
  C285     1.0000 0.94480  0.55000  0.44920  Biso   1.000  C
  H141     1.0000 0.94680  0.50600  0.44650  Biso   1.000  H
  C286     1.0000 0.94340  0.67900  0.45450  Biso   1.000  C
  H142     1.0000 0.94110  0.72300  0.45730  Biso   1.000  H
  O143     1.0000 0.02630  0.65540  0.54680  Biso   1.000  O
  C287     1.0000 0.68970  0.45420  0.44830  Biso   1.000  C
  H143     1.0000 0.68640  0.49800  0.44480  Biso   1.000  H
  C288     1.0000 0.68740  0.33150  0.45250  Biso   1.000  C
  H144     1.0000 0.68690  0.28730  0.45120  Biso   1.000  H
  O144     1.0000 0.80740  0.73240  0.50980  Biso   1.000  O
  Cd13     1.0000 0.17948  0.50151  0.31894  Biso   1.000  Cd
  Na13     1.0000 0.21733  0.37417  0.38453  Biso   1.000  Na
  O145     1.0000 0.06310  0.52310  0.62590  Biso   1.000  O
  O146     1.0000 0.24860  0.47230  0.39400  Biso   1.000  O
  O147     1.0000 0.03550  0.42940  0.65420  Biso   1.000  O
  O148     1.0000 0.11370  0.51230  0.38190  Biso   1.000  O
  O149     1.0000 0.37520  0.73830  0.50660  Biso   1.000  O
  O150     1.0000 0.14730  0.41930  0.36270  Biso   1.000  O
  O151     1.0000 0.98720  0.25330  0.51000  Biso   1.000  O
  O152     1.0000 0.22140  0.55790  0.36960  Biso   1.000  O
  C289     1.0000 0.09820  0.36300  0.59970  Biso   1.000  C
  H145     1.0000 0.07990  0.34110  0.62180  Biso   1.000  H
  C290     1.0000 0.24660  0.53250  0.39260  Biso   1.000  C
  C291     1.0000 0.06350  0.46530  0.62670  Biso   1.000  C
  C292     1.0000 0.12350  0.46270  0.56280  Biso   1.000  C
  H146     1.0000 0.12250  0.50680  0.56080  Biso   1.000  H
  C293     1.0000 0.34010  0.63870  0.48320  Biso   1.000  C
  O153     1.0000 0.21050  0.35740  0.47070  Biso   1.000  O
  C294     1.0000 0.09510  0.42810  0.59650  Biso   1.000  C
  O154     1.0000 0.39960  0.65100  0.53750  Biso   1.000  O
  C295     1.0000 0.12850  0.32950  0.57000  Biso   1.000  C
  H147     1.0000 0.13110  0.28550  0.57200  Biso   1.000  H
  C296     1.0000 0.28000  0.63220  0.41920  Biso   1.000  C
  H148     1.0000 0.26120  0.65340  0.39720  Biso   1.000  H
  C297     1.0000 0.11840  0.45190  0.38710  Biso   1.000  C
  C298     1.0000 0.15480  0.36460  0.53720  Biso   1.000  C
  C299     1.0000 0.18960  0.32330  0.50580  Biso   1.000  C
  C300     1.0000 0.15320  0.42640  0.53250  Biso   1.000  C
  H149     1.0000 0.17140  0.44660  0.50940  Biso   1.000  H
  C301     1.0000 0.02610  0.34870  0.47930  Biso   1.000  C
  C302     1.0000 0.99170  0.30720  0.51380  Biso   1.000  C
  C303     1.0000 0.34090  0.57310  0.48120  Biso   1.000  C
  H150     1.0000 0.36050  0.54880  0.50040  Biso   1.000  H
  C304     1.0000 0.27950  0.56890  0.42280  Biso   1.000  C
  C305     1.0000 0.02810  0.41990  0.47990  Biso   1.000  C
  H151     1.0000 0.01020  0.44280  0.50170  Biso   1.000  H
  C306     1.0000 0.08710  0.41700  0.42050  Biso   1.000  C
  C307     1.0000 0.37510  0.67890  0.51180  Biso   1.000  C
  C308     1.0000 0.08690  0.35200  0.42340  Biso   1.000  C
  H152     1.0000 0.10710  0.32830  0.40450  Biso   1.000  H
  C309     1.0000 0.05520  0.45000  0.44920  Biso   1.000  C
  H153     1.0000 0.05320  0.49400  0.44650  Biso   1.000  H
  C310     1.0000 0.05660  0.32100  0.45450  Biso   1.000  C
  H154     1.0000 0.05890  0.27700  0.45730  Biso   1.000  H
  O155     1.0000 0.97370  0.34460  0.54680  Biso   1.000  O
  C311     1.0000 0.31030  0.54580  0.44830  Biso   1.000  C
  H155     1.0000 0.31360  0.50200  0.44480  Biso   1.000  H
  C312     1.0000 0.31260  0.66850  0.45250  Biso   1.000  C
  H156     1.0000 0.31310  0.71270  0.45120  Biso   1.000  H
  O156     1.0000 0.19260  0.26760  0.50980  Biso   1.000  O
  Cd14     1.0000 0.17948  0.00151  0.81894  Biso   1.000  Cd
  Na14     1.0000 0.21733  0.87417  0.88453  Biso   1.000  Na
  O157     1.0000 0.06310  0.02310  0.12590  Biso   1.000  O
  O158     1.0000 0.24860  0.97230  0.89400  Biso   1.000  O
  O159     1.0000 0.03550  0.92940  0.15420  Biso   1.000  O
  O160     1.0000 0.11370  0.01230  0.88190  Biso   1.000  O
  O161     1.0000 0.37520  0.23830  0.00660  Biso   1.000  O
  O162     1.0000 0.14730  0.91930  0.86270  Biso   1.000  O
  O163     1.0000 0.98720  0.75330  0.01000  Biso   1.000  O
  O164     1.0000 0.22140  0.05790  0.86960  Biso   1.000  O
  C313     1.0000 0.09820  0.86300  0.09970  Biso   1.000  C
  H157     1.0000 0.07990  0.84110  0.12180  Biso   1.000  H
  C314     1.0000 0.24660  0.03250  0.89260  Biso   1.000  C
  C315     1.0000 0.06350  0.96530  0.12670  Biso   1.000  C
  C316     1.0000 0.12350  0.96270  0.06280  Biso   1.000  C
  H158     1.0000 0.12250  0.00680  0.06080  Biso   1.000  H
  C317     1.0000 0.34010  0.13870  0.98320  Biso   1.000  C
  O165     1.0000 0.21050  0.85740  0.97070  Biso   1.000  O
  C318     1.0000 0.09510  0.92810  0.09650  Biso   1.000  C
  O166     1.0000 0.39960  0.15100  0.03750  Biso   1.000  O
  C319     1.0000 0.12850  0.82950  0.07000  Biso   1.000  C
  H159     1.0000 0.13110  0.78550  0.07200  Biso   1.000  H
  C320     1.0000 0.28000  0.13220  0.91920  Biso   1.000  C
  H160     1.0000 0.26120  0.15340  0.89720  Biso   1.000  H
  C321     1.0000 0.11840  0.95190  0.88710  Biso   1.000  C
  C322     1.0000 0.15480  0.86460  0.03720  Biso   1.000  C
  C323     1.0000 0.18960  0.82330  0.00580  Biso   1.000  C
  C324     1.0000 0.15320  0.92640  0.03250  Biso   1.000  C
  H161     1.0000 0.17140  0.94660  0.00940  Biso   1.000  H
  C325     1.0000 0.02610  0.84870  0.97930  Biso   1.000  C
  C326     1.0000 0.99170  0.80720  0.01380  Biso   1.000  C
  C327     1.0000 0.34090  0.07310  0.98120  Biso   1.000  C
  H162     1.0000 0.36050  0.04880  0.00040  Biso   1.000  H
  C328     1.0000 0.27950  0.06890  0.92280  Biso   1.000  C
  C329     1.0000 0.02810  0.91990  0.97990  Biso   1.000  C
  H163     1.0000 0.01020  0.94280  0.00170  Biso   1.000  H
  C330     1.0000 0.08710  0.91700  0.92050  Biso   1.000  C
  C331     1.0000 0.37510  0.17890  0.01180  Biso   1.000  C
  C332     1.0000 0.08690  0.85200  0.92340  Biso   1.000  C
  H164     1.0000 0.10710  0.82830  0.90450  Biso   1.000  H
  C333     1.0000 0.05520  0.95000  0.94920  Biso   1.000  C
  H165     1.0000 0.05320  0.99400  0.94650  Biso   1.000  H
  C334     1.0000 0.05660  0.82100  0.95450  Biso   1.000  C
  H166     1.0000 0.05890  0.77700  0.95730  Biso   1.000  H
  O167     1.0000 0.97370  0.84460  0.04680  Biso   1.000  O
  C335     1.0000 0.31030  0.04580  0.94830  Biso   1.000  C
  H167     1.0000 0.31360  0.00200  0.94480  Biso   1.000  H
  C336     1.0000 0.31260  0.16850  0.95250  Biso   1.000  C
  H168     1.0000 0.31310  0.21270  0.95120  Biso   1.000  H
  O168     1.0000 0.19260  0.76760  0.00980  Biso   1.000  O
  Cd15     1.0000 0.67948  0.50151  0.81894  Biso   1.000  Cd
  Na15     1.0000 0.71733  0.37417  0.88453  Biso   1.000  Na
  O169     1.0000 0.56310  0.52310  0.12590  Biso   1.000  O
  O170     1.0000 0.74860  0.47230  0.89400  Biso   1.000  O
  O171     1.0000 0.53550  0.42940  0.15420  Biso   1.000  O
  O172     1.0000 0.61370  0.51230  0.88190  Biso   1.000  O
  O173     1.0000 0.87520  0.73830  0.00660  Biso   1.000  O
  O174     1.0000 0.64730  0.41930  0.86270  Biso   1.000  O
  O175     1.0000 0.48720  0.25330  0.01000  Biso   1.000  O
  O176     1.0000 0.72140  0.55790  0.86960  Biso   1.000  O
  C337     1.0000 0.59820  0.36300  0.09970  Biso   1.000  C
  H169     1.0000 0.57990  0.34110  0.12180  Biso   1.000  H
  C338     1.0000 0.74660  0.53250  0.89260  Biso   1.000  C
  C339     1.0000 0.56350  0.46530  0.12670  Biso   1.000  C
  C340     1.0000 0.62350  0.46270  0.06280  Biso   1.000  C
  H170     1.0000 0.62250  0.50680  0.06080  Biso   1.000  H
  C341     1.0000 0.84010  0.63870  0.98320  Biso   1.000  C
  O177     1.0000 0.71050  0.35740  0.97070  Biso   1.000  O
  C342     1.0000 0.59510  0.42810  0.09650  Biso   1.000  C
  O178     1.0000 0.89960  0.65100  0.03750  Biso   1.000  O
  C343     1.0000 0.62850  0.32950  0.07000  Biso   1.000  C
  H171     1.0000 0.63110  0.28550  0.07200  Biso   1.000  H
  C344     1.0000 0.78000  0.63220  0.91920  Biso   1.000  C
  H172     1.0000 0.76120  0.65340  0.89720  Biso   1.000  H
  C345     1.0000 0.61840  0.45190  0.88710  Biso   1.000  C
  C346     1.0000 0.65480  0.36460  0.03720  Biso   1.000  C
  C347     1.0000 0.68960  0.32330  0.00580  Biso   1.000  C
  C348     1.0000 0.65320  0.42640  0.03250  Biso   1.000  C
  H173     1.0000 0.67140  0.44660  0.00940  Biso   1.000  H
  C349     1.0000 0.52610  0.34870  0.97930  Biso   1.000  C
  C350     1.0000 0.49170  0.30720  0.01380  Biso   1.000  C
  C351     1.0000 0.84090  0.57310  0.98120  Biso   1.000  C
  H174     1.0000 0.86050  0.54880  0.00040  Biso   1.000  H
  C352     1.0000 0.77950  0.56890  0.92280  Biso   1.000  C
  C353     1.0000 0.52810  0.41990  0.97990  Biso   1.000  C
  H175     1.0000 0.51020  0.44280  0.00170  Biso   1.000  H
  C354     1.0000 0.58710  0.41700  0.92050  Biso   1.000  C
  C355     1.0000 0.87510  0.67890  0.01180  Biso   1.000  C
  C356     1.0000 0.58690  0.35200  0.92340  Biso   1.000  C
  H176     1.0000 0.60710  0.32830  0.90450  Biso   1.000  H
  C357     1.0000 0.55520  0.45000  0.94920  Biso   1.000  C
  H177     1.0000 0.55320  0.49400  0.94650  Biso   1.000  H
  C358     1.0000 0.55660  0.32100  0.95450  Biso   1.000  C
  H178     1.0000 0.55890  0.27700  0.95730  Biso   1.000  H
  O179     1.0000 0.47370  0.34460  0.04680  Biso   1.000  O
  C359     1.0000 0.81030  0.54580  0.94830  Biso   1.000  C
  H179     1.0000 0.81360  0.50200  0.94480  Biso   1.000  H
  C360     1.0000 0.81260  0.66850  0.95250  Biso   1.000  C
  H180     1.0000 0.81310  0.71270  0.95120  Biso   1.000  H
  O180     1.0000 0.69260  0.26760  0.00980  Biso   1.000  O
  Cd16     1.0000 0.67948  0.00151  0.31894  Biso   1.000  Cd
  Na16     1.0000 0.71733  0.87417  0.38453  Biso   1.000  Na
  O181     1.0000 0.56310  0.02310  0.62590  Biso   1.000  O
  O182     1.0000 0.74860  0.97230  0.39400  Biso   1.000  O
  O183     1.0000 0.53550  0.92940  0.65420  Biso   1.000  O
  O184     1.0000 0.61370  0.01230  0.38190  Biso   1.000  O
  O185     1.0000 0.87520  0.23830  0.50660  Biso   1.000  O
  O186     1.0000 0.64730  0.91930  0.36270  Biso   1.000  O
  O187     1.0000 0.48720  0.75330  0.51000  Biso   1.000  O
  O188     1.0000 0.72140  0.05790  0.36960  Biso   1.000  O
  C361     1.0000 0.59820  0.86300  0.59970  Biso   1.000  C
  H181     1.0000 0.57990  0.84110  0.62180  Biso   1.000  H
  C362     1.0000 0.74660  0.03250  0.39260  Biso   1.000  C
  C363     1.0000 0.56350  0.96530  0.62670  Biso   1.000  C
  C364     1.0000 0.62350  0.96270  0.56280  Biso   1.000  C
  H182     1.0000 0.62250  0.00680  0.56080  Biso   1.000  H
  C365     1.0000 0.84010  0.13870  0.48320  Biso   1.000  C
  O189     1.0000 0.71050  0.85740  0.47070  Biso   1.000  O
  C366     1.0000 0.59510  0.92810  0.59650  Biso   1.000  C
  O190     1.0000 0.89960  0.15100  0.53750  Biso   1.000  O
  C367     1.0000 0.62850  0.82950  0.57000  Biso   1.000  C
  H183     1.0000 0.63110  0.78550  0.57200  Biso   1.000  H
  C368     1.0000 0.78000  0.13220  0.41920  Biso   1.000  C
  H184     1.0000 0.76120  0.15340  0.39720  Biso   1.000  H
  C369     1.0000 0.61840  0.95190  0.38710  Biso   1.000  C
  C370     1.0000 0.65480  0.86460  0.53720  Biso   1.000  C
  C371     1.0000 0.68960  0.82330  0.50580  Biso   1.000  C
  C372     1.0000 0.65320  0.92640  0.53250  Biso   1.000  C
  H185     1.0000 0.67140  0.94660  0.50940  Biso   1.000  H
  C373     1.0000 0.52610  0.84870  0.47930  Biso   1.000  C
  C374     1.0000 0.49170  0.80720  0.51380  Biso   1.000  C
  C375     1.0000 0.84090  0.07310  0.48120  Biso   1.000  C
  H186     1.0000 0.86050  0.04880  0.50040  Biso   1.000  H
  C376     1.0000 0.77950  0.06890  0.42280  Biso   1.000  C
  C377     1.0000 0.52810  0.91990  0.47990  Biso   1.000  C
  H187     1.0000 0.51020  0.94280  0.50170  Biso   1.000  H
  C378     1.0000 0.58710  0.91700  0.42050  Biso   1.000  C
  C379     1.0000 0.87510  0.17890  0.51180  Biso   1.000  C
  C380     1.0000 0.58690  0.85200  0.42340  Biso   1.000  C
  H188     1.0000 0.60710  0.82830  0.40450  Biso   1.000  H
  C381     1.0000 0.55520  0.95000  0.44920  Biso   1.000  C
  H189     1.0000 0.55320  0.99400  0.44650  Biso   1.000  H
  C382     1.0000 0.55660  0.82100  0.45450  Biso   1.000  C
  H190     1.0000 0.55890  0.77700  0.45730  Biso   1.000  H
  O191     1.0000 0.47370  0.84460  0.54680  Biso   1.000  O
  C383     1.0000 0.81030  0.04580  0.44830  Biso   1.000  C
  H191     1.0000 0.81360  0.00200  0.44480  Biso   1.000  H
  C384     1.0000 0.81260  0.16850  0.45250  Biso   1.000  C
  H192     1.0000 0.81310  0.21270  0.45120  Biso   1.000  H
  O192     1.0000 0.69260  0.76760  0.50980  Biso   1.000  O
  Cd17     1.0000 0.00000  0.00000  0.20471  Biso   1.000  Cd
  Cd18     1.0000 0.00000  0.50000  0.70471  Biso   1.000  Cd
  Cd19     1.0000 0.50000  0.00000  0.70471  Biso   1.000  Cd
  Cd20     1.0000 0.50000  0.50000  0.20471  Biso   1.000  Cd
  Cd21     1.0000 0.25000  0.25000  0.45471  Biso   1.000  Cd
  Cd22     1.0000 0.25000  0.75000  0.95471  Biso   1.000  Cd
  Cd23     1.0000 0.75000  0.25000  0.95471  Biso   1.000  Cd
  Cd24     1.0000 0.75000  0.75000  0.45471  Biso   1.000  Cd
