data_image0
_cell_length_a       22.627
_cell_length_b       32.868
_cell_length_c       32.868
_cell_angle_alpha    90
_cell_angle_beta     90
_cell_angle_gamma    90

_symmetry_space_group_name_H-M    P 1
_symmetry_int_tables_number       1

loop_
  _symmetry_equiv_pos_as_xyz
  'x, y, z'

loop_
  _atom_site_label
  _atom_site_occupancy
  _atom_site_fract_x
  _atom_site_fract_y
  _atom_site_fract_z
  _atom_site_thermal_displace_type
  _atom_site_B_iso_or_equiv
  _atom_site_type_symbol
  Cu1      1.0000 0.75019  0.82986  0.00000  Biso   1.000  Cu
  Cu2      1.0000 0.83095  0.77270  0.00000  Biso   1.000  Cu
  Cu3      1.0000 0.75019  0.17014  0.00000  Biso   1.000  Cu
  Cu4      1.0000 0.83095  0.22730  0.00000  Biso   1.000  Cu
  Cu5      1.0000 0.75019  0.00000  0.82986  Biso   1.000  Cu
  Cu6      1.0000 0.83095  0.00000  0.77270  Biso   1.000  Cu
  Cu7      1.0000 0.75019  0.00000  0.17014  Biso   1.000  Cu
  Cu8      1.0000 0.83095  0.00000  0.22730  Biso   1.000  Cu
  Cu9      1.0000 0.24981  0.17014  0.00000  Biso   1.000  Cu
  Cu10     1.0000 0.16905  0.22730  0.00000  Biso   1.000  Cu
  Cu11     1.0000 0.24981  0.82986  0.00000  Biso   1.000  Cu
  Cu12     1.0000 0.16905  0.77270  0.00000  Biso   1.000  Cu
  Cu13     1.0000 0.24981  0.00000  0.82986  Biso   1.000  Cu
  Cu14     1.0000 0.16905  0.00000  0.77270  Biso   1.000  Cu
  Cu15     1.0000 0.24981  0.00000  0.17014  Biso   1.000  Cu
  Cu16     1.0000 0.16905  0.00000  0.22730  Biso   1.000  Cu
  Cu17     1.0000 0.50000  0.77022  0.77022  Biso   1.000  Cu
  Cu18     1.0000 0.50000  0.82680  0.82680  Biso   1.000  Cu
  Cu19     1.0000 0.50000  0.22978  0.22978  Biso   1.000  Cu
  Cu20     1.0000 0.50000  0.17320  0.17320  Biso   1.000  Cu
  Cu21     1.0000 0.50000  0.22978  0.77022  Biso   1.000  Cu
  Cu22     1.0000 0.50000  0.17320  0.82680  Biso   1.000  Cu
  Cu23     1.0000 0.50000  0.77022  0.22978  Biso   1.000  Cu
  Cu24     1.0000 0.50000  0.82680  0.17320  Biso   1.000  Cu
  Cu25     1.0000 0.83192  0.66151  0.66151  Biso   1.000  Cu
  Cu26     1.0000 0.75205  0.62071  0.62071  Biso   1.000  Cu
  Cu27     1.0000 0.83192  0.33849  0.33849  Biso   1.000  Cu
  Cu28     1.0000 0.75205  0.37929  0.37929  Biso   1.000  Cu
  Cu29     1.0000 0.83192  0.33849  0.66151  Biso   1.000  Cu
  Cu30     1.0000 0.75205  0.37929  0.62071  Biso   1.000  Cu
  Cu31     1.0000 0.83192  0.66151  0.33849  Biso   1.000  Cu
  Cu32     1.0000 0.75205  0.62071  0.37929  Biso   1.000  Cu
  Cu33     1.0000 0.16808  0.33849  0.66151  Biso   1.000  Cu
  Cu34     1.0000 0.24795  0.37929  0.62071  Biso   1.000  Cu
  Cu35     1.0000 0.16808  0.66151  0.33849  Biso   1.000  Cu
  Cu36     1.0000 0.24795  0.62071  0.37929  Biso   1.000  Cu
  Cu37     1.0000 0.16808  0.66151  0.66151  Biso   1.000  Cu
  Cu38     1.0000 0.24795  0.62071  0.62071  Biso   1.000  Cu
  Cu39     1.0000 0.16808  0.33849  0.33849  Biso   1.000  Cu
  Cu40     1.0000 0.24795  0.37929  0.37929  Biso   1.000  Cu
  Cu41     1.0000 0.50000  0.50000  0.74069  Biso   1.000  Cu
  Cu42     1.0000 0.50000  0.50000  0.82048  Biso   1.000  Cu
  Cu43     1.0000 0.50000  0.50000  0.25931  Biso   1.000  Cu
  Cu44     1.0000 0.50000  0.50000  0.17952  Biso   1.000  Cu
  Cu45     1.0000 0.50000  0.25931  0.50000  Biso   1.000  Cu
  Cu46     1.0000 0.50000  0.17952  0.50000  Biso   1.000  Cu
  Cu47     1.0000 0.50000  0.74069  0.50000  Biso   1.000  Cu
  Cu48     1.0000 0.50000  0.82048  0.50000  Biso   1.000  Cu
  H1       1.0000 0.64160  0.78690  0.90200  Biso   1.000  H
  H2       1.0000 0.63210  0.68800  0.82770  Biso   1.000  H
  H3       1.0000 0.75450  0.69300  0.91450  Biso   1.000  H
  H4       1.0000 0.64130  0.58300  0.71990  Biso   1.000  H
  H5       1.0000 0.62900  0.59080  0.84200  Biso   1.000  H
  H6       1.0000 0.75510  0.65270  0.78100  Biso   1.000  H
  H7       1.0000 0.70430  0.62220  0.88070  Biso   1.000  H
  H8       1.0000 0.76130  0.63950  0.86010  Biso   1.000  H
  H9       1.0000 0.94100  0.81390  0.09860  Biso   1.000  H
  H10      1.0000 0.93470  0.56190  0.70850  Biso   1.000  H
  H11      1.0000 0.64160  0.21310  0.09800  Biso   1.000  H
  H12      1.0000 0.63210  0.31200  0.17230  Biso   1.000  H
  H13      1.0000 0.75450  0.30700  0.08550  Biso   1.000  H
  H14      1.0000 0.64130  0.41700  0.28010  Biso   1.000  H
  H15      1.0000 0.62900  0.40920  0.15800  Biso   1.000  H
  H16      1.0000 0.75510  0.34730  0.21900  Biso   1.000  H
  H17      1.0000 0.70430  0.37780  0.11930  Biso   1.000  H
  H18      1.0000 0.76130  0.36050  0.13990  Biso   1.000  H
  H19      1.0000 0.94100  0.18610  0.90140  Biso   1.000  H
  H20      1.0000 0.93470  0.43810  0.29150  Biso   1.000  H
  H21      1.0000 0.64160  0.09800  0.78690  Biso   1.000  H
  H22      1.0000 0.63210  0.17230  0.68800  Biso   1.000  H
  H23      1.0000 0.75450  0.08550  0.69300  Biso   1.000  H
  H24      1.0000 0.64130  0.28010  0.58300  Biso   1.000  H
  H25      1.0000 0.62900  0.15800  0.59080  Biso   1.000  H
  H26      1.0000 0.75510  0.21900  0.65270  Biso   1.000  H
  H27      1.0000 0.70430  0.11930  0.62220  Biso   1.000  H
  H28      1.0000 0.76130  0.13990  0.63950  Biso   1.000  H
  H29      1.0000 0.94100  0.90140  0.81390  Biso   1.000  H
  H30      1.0000 0.93470  0.29150  0.56190  Biso   1.000  H
  H31      1.0000 0.64160  0.90200  0.21310  Biso   1.000  H
  H32      1.0000 0.63210  0.82770  0.31200  Biso   1.000  H
  H33      1.0000 0.75450  0.91450  0.30700  Biso   1.000  H
  H34      1.0000 0.64130  0.71990  0.41700  Biso   1.000  H
  H35      1.0000 0.62900  0.84200  0.40920  Biso   1.000  H
  H36      1.0000 0.75510  0.78100  0.34730  Biso   1.000  H
  H37      1.0000 0.70430  0.88070  0.37780  Biso   1.000  H
  H38      1.0000 0.76130  0.86010  0.36050  Biso   1.000  H
  H39      1.0000 0.94100  0.09860  0.18610  Biso   1.000  H
  H40      1.0000 0.93470  0.70850  0.43810  Biso   1.000  H
  H41      1.0000 0.35840  0.21310  0.90200  Biso   1.000  H
  H42      1.0000 0.36790  0.31200  0.82770  Biso   1.000  H
  H43      1.0000 0.24550  0.30700  0.91450  Biso   1.000  H
  H44      1.0000 0.35870  0.41700  0.71990  Biso   1.000  H
  H45      1.0000 0.37100  0.40920  0.84200  Biso   1.000  H
  H46      1.0000 0.24490  0.34730  0.78100  Biso   1.000  H
  H47      1.0000 0.29570  0.37780  0.88070  Biso   1.000  H
  H48      1.0000 0.23870  0.36050  0.86010  Biso   1.000  H
  H49      1.0000 0.05900  0.18610  0.09860  Biso   1.000  H
  H50      1.0000 0.06530  0.43810  0.70850  Biso   1.000  H
  H51      1.0000 0.35840  0.78690  0.09800  Biso   1.000  H
  H52      1.0000 0.36790  0.68800  0.17230  Biso   1.000  H
  H53      1.0000 0.24550  0.69300  0.08550  Biso   1.000  H
  H54      1.0000 0.35870  0.58300  0.28010  Biso   1.000  H
  H55      1.0000 0.37100  0.59080  0.15800  Biso   1.000  H
  H56      1.0000 0.24490  0.65270  0.21900  Biso   1.000  H
  H57      1.0000 0.29570  0.62220  0.11930  Biso   1.000  H
  H58      1.0000 0.23870  0.63950  0.13990  Biso   1.000  H
  H59      1.0000 0.05900  0.81390  0.90140  Biso   1.000  H
  H60      1.0000 0.06530  0.56190  0.29150  Biso   1.000  H
  H61      1.0000 0.35840  0.90200  0.78690  Biso   1.000  H
  H62      1.0000 0.36790  0.82770  0.68800  Biso   1.000  H
  H63      1.0000 0.24550  0.91450  0.69300  Biso   1.000  H
  H64      1.0000 0.35870  0.71990  0.58300  Biso   1.000  H
  H65      1.0000 0.37100  0.84200  0.59080  Biso   1.000  H
  H66      1.0000 0.24490  0.78100  0.65270  Biso   1.000  H
  H67      1.0000 0.29570  0.88070  0.62220  Biso   1.000  H
  H68      1.0000 0.23870  0.86010  0.63950  Biso   1.000  H
  H69      1.0000 0.05900  0.09860  0.81390  Biso   1.000  H
  H70      1.0000 0.06530  0.70850  0.56190  Biso   1.000  H
  H71      1.0000 0.35840  0.09800  0.21310  Biso   1.000  H
  H72      1.0000 0.36790  0.17230  0.31200  Biso   1.000  H
  H73      1.0000 0.24550  0.08550  0.30700  Biso   1.000  H
  H74      1.0000 0.35870  0.28010  0.41700  Biso   1.000  H
  H75      1.0000 0.37100  0.15800  0.40920  Biso   1.000  H
  H76      1.0000 0.24490  0.21900  0.34730  Biso   1.000  H
  H77      1.0000 0.29570  0.11930  0.37780  Biso   1.000  H
  H78      1.0000 0.23870  0.13990  0.36050  Biso   1.000  H
  H79      1.0000 0.05900  0.90140  0.18610  Biso   1.000  H
  H80      1.0000 0.06530  0.29150  0.43810  Biso   1.000  H
  H81      1.0000 0.35840  0.21310  0.09800  Biso   1.000  H
  H82      1.0000 0.36790  0.31200  0.17230  Biso   1.000  H
  H83      1.0000 0.24550  0.30700  0.08550  Biso   1.000  H
  H84      1.0000 0.35870  0.41700  0.28010  Biso   1.000  H
  H85      1.0000 0.37100  0.40920  0.15800  Biso   1.000  H
  H86      1.0000 0.24490  0.34730  0.21900  Biso   1.000  H
  H87      1.0000 0.29570  0.37780  0.11930  Biso   1.000  H
  H88      1.0000 0.23870  0.36050  0.13990  Biso   1.000  H
  H89      1.0000 0.05900  0.18610  0.90140  Biso   1.000  H
  H90      1.0000 0.06530  0.43810  0.29150  Biso   1.000  H
  H91      1.0000 0.35840  0.78690  0.90200  Biso   1.000  H
  H92      1.0000 0.36790  0.68800  0.82770  Biso   1.000  H
  H93      1.0000 0.24550  0.69300  0.91450  Biso   1.000  H
  H94      1.0000 0.35870  0.58300  0.71990  Biso   1.000  H
  H95      1.0000 0.37100  0.59080  0.84200  Biso   1.000  H
  H96      1.0000 0.24490  0.65270  0.78100  Biso   1.000  H
  H97      1.0000 0.29570  0.62220  0.88070  Biso   1.000  H
  H98      1.0000 0.23870  0.63950  0.86010  Biso   1.000  H
  H99      1.0000 0.05900  0.81390  0.09860  Biso   1.000  H
  H100     1.0000 0.06530  0.56190  0.70850  Biso   1.000  H
  H101     1.0000 0.35840  0.90200  0.21310  Biso   1.000  H
  H102     1.0000 0.36790  0.82770  0.31200  Biso   1.000  H
  H103     1.0000 0.24550  0.91450  0.30700  Biso   1.000  H
  H104     1.0000 0.35870  0.71990  0.41700  Biso   1.000  H
  H105     1.0000 0.37100  0.84200  0.40920  Biso   1.000  H
  H106     1.0000 0.24490  0.78100  0.34730  Biso   1.000  H
  H107     1.0000 0.29570  0.88070  0.37780  Biso   1.000  H
  H108     1.0000 0.23870  0.86010  0.36050  Biso   1.000  H
  H109     1.0000 0.05900  0.09860  0.18610  Biso   1.000  H
  H110     1.0000 0.06530  0.70850  0.43810  Biso   1.000  H
  H111     1.0000 0.35840  0.09800  0.78690  Biso   1.000  H
  H112     1.0000 0.36790  0.17230  0.68800  Biso   1.000  H
  H113     1.0000 0.24550  0.08550  0.69300  Biso   1.000  H
  H114     1.0000 0.35870  0.28010  0.58300  Biso   1.000  H
  H115     1.0000 0.37100  0.15800  0.59080  Biso   1.000  H
  H116     1.0000 0.24490  0.21900  0.65270  Biso   1.000  H
  H117     1.0000 0.29570  0.11930  0.62220  Biso   1.000  H
  H118     1.0000 0.23870  0.13990  0.63950  Biso   1.000  H
  H119     1.0000 0.05900  0.90140  0.81390  Biso   1.000  H
  H120     1.0000 0.06530  0.29150  0.56190  Biso   1.000  H
  H121     1.0000 0.64160  0.78690  0.09800  Biso   1.000  H
  H122     1.0000 0.63210  0.68800  0.17230  Biso   1.000  H
  H123     1.0000 0.75450  0.69300  0.08550  Biso   1.000  H
  H124     1.0000 0.64130  0.58300  0.28010  Biso   1.000  H
  H125     1.0000 0.62900  0.59080  0.15800  Biso   1.000  H
  H126     1.0000 0.75510  0.65270  0.21900  Biso   1.000  H
  H127     1.0000 0.70430  0.62220  0.11930  Biso   1.000  H
  H128     1.0000 0.76130  0.63950  0.13990  Biso   1.000  H
  H129     1.0000 0.94100  0.81390  0.90140  Biso   1.000  H
  H130     1.0000 0.93470  0.56190  0.29150  Biso   1.000  H
  H131     1.0000 0.64160  0.21310  0.90200  Biso   1.000  H
  H132     1.0000 0.63210  0.31200  0.82770  Biso   1.000  H
  H133     1.0000 0.75450  0.30700  0.91450  Biso   1.000  H
  H134     1.0000 0.64130  0.41700  0.71990  Biso   1.000  H
  H135     1.0000 0.62900  0.40920  0.84200  Biso   1.000  H
  H136     1.0000 0.75510  0.34730  0.78100  Biso   1.000  H
  H137     1.0000 0.70430  0.37780  0.88070  Biso   1.000  H
  H138     1.0000 0.76130  0.36050  0.86010  Biso   1.000  H
  H139     1.0000 0.94100  0.18610  0.09860  Biso   1.000  H
  H140     1.0000 0.93470  0.43810  0.70850  Biso   1.000  H
  H141     1.0000 0.64160  0.09800  0.21310  Biso   1.000  H
  H142     1.0000 0.63210  0.17230  0.31200  Biso   1.000  H
  H143     1.0000 0.75450  0.08550  0.30700  Biso   1.000  H
  H144     1.0000 0.64130  0.28010  0.41700  Biso   1.000  H
  H145     1.0000 0.62900  0.15800  0.40920  Biso   1.000  H
  H146     1.0000 0.75510  0.21900  0.34730  Biso   1.000  H
  H147     1.0000 0.70430  0.11930  0.37780  Biso   1.000  H
  H148     1.0000 0.76130  0.13990  0.36050  Biso   1.000  H
  H149     1.0000 0.94100  0.90140  0.18610  Biso   1.000  H
  H150     1.0000 0.93470  0.29150  0.43810  Biso   1.000  H
  H151     1.0000 0.64160  0.90200  0.78690  Biso   1.000  H
  H152     1.0000 0.63210  0.82770  0.68800  Biso   1.000  H
  H153     1.0000 0.75450  0.91450  0.69300  Biso   1.000  H
  H154     1.0000 0.64130  0.71990  0.58300  Biso   1.000  H
  H155     1.0000 0.62900  0.84200  0.59080  Biso   1.000  H
  H156     1.0000 0.75510  0.78100  0.65270  Biso   1.000  H
  H157     1.0000 0.70430  0.88070  0.62220  Biso   1.000  H
  H158     1.0000 0.76130  0.86010  0.63950  Biso   1.000  H
  H159     1.0000 0.94100  0.09860  0.81390  Biso   1.000  H
  H160     1.0000 0.93470  0.70850  0.56190  Biso   1.000  H
  H161     1.0000 0.81760  0.90480  0.09520  Biso   1.000  H
  H162     1.0000 0.81760  0.09520  0.90480  Biso   1.000  H
  H163     1.0000 0.81760  0.90480  0.90480  Biso   1.000  H
  H164     1.0000 0.81760  0.09520  0.09520  Biso   1.000  H
  H165     1.0000 0.18240  0.09520  0.09520  Biso   1.000  H
  H166     1.0000 0.18240  0.90480  0.90480  Biso   1.000  H
  H167     1.0000 0.18240  0.09520  0.90480  Biso   1.000  H
  H168     1.0000 0.18240  0.90480  0.09520  Biso   1.000  H
  H169     1.0000 0.00000  0.83860  0.19520  Biso   1.000  H
  H170     1.0000 0.00000  0.52390  0.75360  Biso   1.000  H
  H171     1.0000 0.00000  0.16140  0.80480  Biso   1.000  H
  H172     1.0000 0.00000  0.47610  0.24640  Biso   1.000  H
  H173     1.0000 0.00000  0.80480  0.83860  Biso   1.000  H
  H174     1.0000 0.00000  0.24640  0.52390  Biso   1.000  H
  H175     1.0000 0.00000  0.19520  0.16140  Biso   1.000  H
  H176     1.0000 0.00000  0.75360  0.47610  Biso   1.000  H
  H177     1.0000 0.00000  0.16140  0.19520  Biso   1.000  H
  H178     1.0000 0.00000  0.47610  0.75360  Biso   1.000  H
  H179     1.0000 0.00000  0.83860  0.80480  Biso   1.000  H
  H180     1.0000 0.00000  0.52390  0.24640  Biso   1.000  H
  H181     1.0000 0.00000  0.19520  0.83860  Biso   1.000  H
  H182     1.0000 0.00000  0.75360  0.52390  Biso   1.000  H
  H183     1.0000 0.00000  0.80480  0.16140  Biso   1.000  H
  H184     1.0000 0.00000  0.24640  0.47610  Biso   1.000  H
  H185     1.0000 0.81560  0.50000  0.63610  Biso   1.000  H
  H186     1.0000 0.81560  0.50000  0.36390  Biso   1.000  H
  H187     1.0000 0.81560  0.36390  0.50000  Biso   1.000  H
  H188     1.0000 0.81560  0.63610  0.50000  Biso   1.000  H
  H189     1.0000 0.18440  0.50000  0.63610  Biso   1.000  H
  H190     1.0000 0.18440  0.50000  0.36390  Biso   1.000  H
  H191     1.0000 0.18440  0.63610  0.50000  Biso   1.000  H
  H192     1.0000 0.18440  0.36390  0.50000  Biso   1.000  H
  C1       1.0000 0.70410  0.74290  0.91220  Biso   1.000  C
  C2       1.0000 0.65590  0.76190  0.89320  Biso   1.000  C
  C3       1.0000 0.62950  0.74070  0.85940  Biso   1.000  C
  C4       1.0000 0.65060  0.70190  0.84880  Biso   1.000  C
  C5       1.0000 0.69750  0.68340  0.86810  Biso   1.000  C
  C6       1.0000 0.72330  0.70490  0.90050  Biso   1.000  C
  C7       1.0000 0.70320  0.61780  0.74400  Biso   1.000  C
  C8       1.0000 0.65680  0.59310  0.74410  Biso   1.000  C
  C9       1.0000 0.63170  0.58250  0.78150  Biso   1.000  C
  C10      1.0000 0.64950  0.59720  0.81840  Biso   1.000  C
  C11      1.0000 0.69970  0.62240  0.81970  Biso   1.000  C
  C12      1.0000 0.72430  0.63400  0.78140  Biso   1.000  C
  C13      1.0000 0.71850  0.63980  0.85910  Biso   1.000  C
  C14      1.0000 0.73340  0.76570  0.94620  Biso   1.000  C
  C15      1.0000 0.58070  0.76170  0.83610  Biso   1.000  C
  C16      1.0000 0.73850  0.62790  0.70640  Biso   1.000  C
  C17      1.0000 0.57860  0.55250  0.78120  Biso   1.000  C
  C18      1.0000 0.84290  0.83710  0.05520  Biso   1.000  C
  C19      1.0000 0.87220  0.85550  0.09430  Biso   1.000  C
  C20      1.0000 0.92330  0.83620  0.11110  Biso   1.000  C
  C21      1.0000 0.84290  0.57640  0.65530  Biso   1.000  C
  C22      1.0000 0.87390  0.53680  0.66930  Biso   1.000  C
  C23      1.0000 0.92080  0.53750  0.69780  Biso   1.000  C
  C24      1.0000 0.70410  0.25710  0.08780  Biso   1.000  C
  C25      1.0000 0.65590  0.23810  0.10680  Biso   1.000  C
  C26      1.0000 0.62950  0.25930  0.14060  Biso   1.000  C
  C27      1.0000 0.65060  0.29810  0.15120  Biso   1.000  C
  C28      1.0000 0.69750  0.31660  0.13190  Biso   1.000  C
  C29      1.0000 0.72330  0.29510  0.09950  Biso   1.000  C
  C30      1.0000 0.70320  0.38220  0.25600  Biso   1.000  C
  C31      1.0000 0.65680  0.40690  0.25590  Biso   1.000  C
  C32      1.0000 0.63170  0.41750  0.21850  Biso   1.000  C
  C33      1.0000 0.64950  0.40280  0.18160  Biso   1.000  C
  C34      1.0000 0.69970  0.37760  0.18030  Biso   1.000  C
  C35      1.0000 0.72430  0.36600  0.21860  Biso   1.000  C
  C36      1.0000 0.71850  0.36020  0.14090  Biso   1.000  C
  C37      1.0000 0.73340  0.23430  0.05380  Biso   1.000  C
  C38      1.0000 0.58070  0.23830  0.16390  Biso   1.000  C
  C39      1.0000 0.73850  0.37210  0.29360  Biso   1.000  C
  C40      1.0000 0.57860  0.44750  0.21880  Biso   1.000  C
  C41      1.0000 0.84290  0.16290  0.94480  Biso   1.000  C
  C42      1.0000 0.87220  0.14450  0.90570  Biso   1.000  C
  C43      1.0000 0.92330  0.16380  0.88890  Biso   1.000  C
  C44      1.0000 0.84290  0.42360  0.34470  Biso   1.000  C
  C45      1.0000 0.87390  0.46320  0.33070  Biso   1.000  C
  C46      1.0000 0.92080  0.46250  0.30220  Biso   1.000  C
  C47      1.0000 0.70410  0.08780  0.74290  Biso   1.000  C
  C48      1.0000 0.65590  0.10680  0.76190  Biso   1.000  C
  C49      1.0000 0.62950  0.14060  0.74070  Biso   1.000  C
  C50      1.0000 0.65060  0.15120  0.70190  Biso   1.000  C
  C51      1.0000 0.69750  0.13190  0.68340  Biso   1.000  C
  C52      1.0000 0.72330  0.09950  0.70490  Biso   1.000  C
  C53      1.0000 0.70320  0.25600  0.61780  Biso   1.000  C
  C54      1.0000 0.65680  0.25590  0.59310  Biso   1.000  C
  C55      1.0000 0.63170  0.21850  0.58250  Biso   1.000  C
  C56      1.0000 0.64950  0.18160  0.59720  Biso   1.000  C
  C57      1.0000 0.69970  0.18030  0.62240  Biso   1.000  C
  C58      1.0000 0.72430  0.21860  0.63400  Biso   1.000  C
  C59      1.0000 0.71850  0.14090  0.63980  Biso   1.000  C
  C60      1.0000 0.73340  0.05380  0.76570  Biso   1.000  C
  C61      1.0000 0.58070  0.16390  0.76170  Biso   1.000  C
  C62      1.0000 0.73850  0.29360  0.62790  Biso   1.000  C
  C63      1.0000 0.57860  0.21880  0.55250  Biso   1.000  C
  C64      1.0000 0.84290  0.94480  0.83710  Biso   1.000  C
  C65      1.0000 0.87220  0.90570  0.85550  Biso   1.000  C
  C66      1.0000 0.92330  0.88890  0.83620  Biso   1.000  C
  C67      1.0000 0.84290  0.34470  0.57640  Biso   1.000  C
  C68      1.0000 0.87390  0.33070  0.53680  Biso   1.000  C
  C69      1.0000 0.92080  0.30220  0.53750  Biso   1.000  C
  C70      1.0000 0.70410  0.91220  0.25710  Biso   1.000  C
  C71      1.0000 0.65590  0.89320  0.23810  Biso   1.000  C
  C72      1.0000 0.62950  0.85940  0.25930  Biso   1.000  C
  C73      1.0000 0.65060  0.84880  0.29810  Biso   1.000  C
  C74      1.0000 0.69750  0.86810  0.31660  Biso   1.000  C
  C75      1.0000 0.72330  0.90050  0.29510  Biso   1.000  C
  C76      1.0000 0.70320  0.74400  0.38220  Biso   1.000  C
  C77      1.0000 0.65680  0.74410  0.40690  Biso   1.000  C
  C78      1.0000 0.63170  0.78150  0.41750  Biso   1.000  C
  C79      1.0000 0.64950  0.81840  0.40280  Biso   1.000  C
  C80      1.0000 0.69970  0.81970  0.37760  Biso   1.000  C
  C81      1.0000 0.72430  0.78140  0.36600  Biso   1.000  C
  C82      1.0000 0.71850  0.85910  0.36020  Biso   1.000  C
  C83      1.0000 0.73340  0.94620  0.23430  Biso   1.000  C
  C84      1.0000 0.58070  0.83610  0.23830  Biso   1.000  C
  C85      1.0000 0.73850  0.70640  0.37210  Biso   1.000  C
  C86      1.0000 0.57860  0.78120  0.44750  Biso   1.000  C
  C87      1.0000 0.84290  0.05520  0.16290  Biso   1.000  C
  C88      1.0000 0.87220  0.09430  0.14450  Biso   1.000  C
  C89      1.0000 0.92330  0.11110  0.16380  Biso   1.000  C
  C90      1.0000 0.84290  0.65530  0.42360  Biso   1.000  C
  C91      1.0000 0.87390  0.66930  0.46320  Biso   1.000  C
  C92      1.0000 0.92080  0.69780  0.46250  Biso   1.000  C
  C93      1.0000 0.29590  0.25710  0.91220  Biso   1.000  C
  C94      1.0000 0.34410  0.23810  0.89320  Biso   1.000  C
  C95      1.0000 0.37050  0.25930  0.85940  Biso   1.000  C
  C96      1.0000 0.34940  0.29810  0.84880  Biso   1.000  C
  C97      1.0000 0.30250  0.31660  0.86810  Biso   1.000  C
  C98      1.0000 0.27670  0.29510  0.90050  Biso   1.000  C
  C99      1.0000 0.29680  0.38220  0.74400  Biso   1.000  C
  C100     1.0000 0.34320  0.40690  0.74410  Biso   1.000  C
  C101     1.0000 0.36830  0.41750  0.78150  Biso   1.000  C
  C102     1.0000 0.35050  0.40280  0.81840  Biso   1.000  C
  C103     1.0000 0.30030  0.37760  0.81970  Biso   1.000  C
  C104     1.0000 0.27570  0.36600  0.78140  Biso   1.000  C
  C105     1.0000 0.28150  0.36020  0.85910  Biso   1.000  C
  C106     1.0000 0.26660  0.23430  0.94620  Biso   1.000  C
  C107     1.0000 0.41930  0.23830  0.83610  Biso   1.000  C
  C108     1.0000 0.26150  0.37210  0.70640  Biso   1.000  C
  C109     1.0000 0.42140  0.44750  0.78120  Biso   1.000  C
  C110     1.0000 0.15710  0.16290  0.05520  Biso   1.000  C
  C111     1.0000 0.12780  0.14450  0.09430  Biso   1.000  C
  C112     1.0000 0.07670  0.16380  0.11110  Biso   1.000  C
  C113     1.0000 0.15710  0.42360  0.65530  Biso   1.000  C
  C114     1.0000 0.12610  0.46320  0.66930  Biso   1.000  C
  C115     1.0000 0.07920  0.46250  0.69780  Biso   1.000  C
  C116     1.0000 0.29590  0.74290  0.08780  Biso   1.000  C
  C117     1.0000 0.34410  0.76190  0.10680  Biso   1.000  C
  C118     1.0000 0.37050  0.74070  0.14060  Biso   1.000  C
  C119     1.0000 0.34940  0.70190  0.15120  Biso   1.000  C
  C120     1.0000 0.30250  0.68340  0.13190  Biso   1.000  C
  C121     1.0000 0.27670  0.70490  0.09950  Biso   1.000  C
  C122     1.0000 0.29680  0.61780  0.25600  Biso   1.000  C
  C123     1.0000 0.34320  0.59310  0.25590  Biso   1.000  C
  C124     1.0000 0.36830  0.58250  0.21850  Biso   1.000  C
  C125     1.0000 0.35050  0.59720  0.18160  Biso   1.000  C
  C126     1.0000 0.30030  0.62240  0.18030  Biso   1.000  C
  C127     1.0000 0.27570  0.63400  0.21860  Biso   1.000  C
  C128     1.0000 0.28150  0.63980  0.14090  Biso   1.000  C
  C129     1.0000 0.26660  0.76570  0.05380  Biso   1.000  C
  C130     1.0000 0.41930  0.76170  0.16390  Biso   1.000  C
  C131     1.0000 0.26150  0.62790  0.29360  Biso   1.000  C
  C132     1.0000 0.42140  0.55250  0.21880  Biso   1.000  C
  C133     1.0000 0.15710  0.83710  0.94480  Biso   1.000  C
  C134     1.0000 0.12780  0.85550  0.90570  Biso   1.000  C
  C135     1.0000 0.07670  0.83620  0.88890  Biso   1.000  C
  C136     1.0000 0.15710  0.57640  0.34470  Biso   1.000  C
  C137     1.0000 0.12610  0.53680  0.33070  Biso   1.000  C
  C138     1.0000 0.07920  0.53750  0.30220  Biso   1.000  C
  C139     1.0000 0.29590  0.91220  0.74290  Biso   1.000  C
  C140     1.0000 0.34410  0.89320  0.76190  Biso   1.000  C
  C141     1.0000 0.37050  0.85940  0.74070  Biso   1.000  C
  C142     1.0000 0.34940  0.84880  0.70190  Biso   1.000  C
  C143     1.0000 0.30250  0.86810  0.68340  Biso   1.000  C
  C144     1.0000 0.27670  0.90050  0.70490  Biso   1.000  C
  C145     1.0000 0.29680  0.74400  0.61780  Biso   1.000  C
  C146     1.0000 0.34320  0.74410  0.59310  Biso   1.000  C
  C147     1.0000 0.36830  0.78150  0.58250  Biso   1.000  C
  C148     1.0000 0.35050  0.81840  0.59720  Biso   1.000  C
  C149     1.0000 0.30030  0.81970  0.62240  Biso   1.000  C
  C150     1.0000 0.27570  0.78140  0.63400  Biso   1.000  C
  C151     1.0000 0.28150  0.85910  0.63980  Biso   1.000  C
  C152     1.0000 0.26660  0.94620  0.76570  Biso   1.000  C
  C153     1.0000 0.41930  0.83610  0.76170  Biso   1.000  C
  C154     1.0000 0.26150  0.70640  0.62790  Biso   1.000  C
  C155     1.0000 0.42140  0.78120  0.55250  Biso   1.000  C
  C156     1.0000 0.15710  0.05520  0.83710  Biso   1.000  C
  C157     1.0000 0.12780  0.09430  0.85550  Biso   1.000  C
  C158     1.0000 0.07670  0.11110  0.83620  Biso   1.000  C
  C159     1.0000 0.15710  0.65530  0.57640  Biso   1.000  C
  C160     1.0000 0.12610  0.66930  0.53680  Biso   1.000  C
  C161     1.0000 0.07920  0.69780  0.53750  Biso   1.000  C
  C162     1.0000 0.29590  0.08780  0.25710  Biso   1.000  C
  C163     1.0000 0.34410  0.10680  0.23810  Biso   1.000  C
  C164     1.0000 0.37050  0.14060  0.25930  Biso   1.000  C
  C165     1.0000 0.34940  0.15120  0.29810  Biso   1.000  C
  C166     1.0000 0.30250  0.13190  0.31660  Biso   1.000  C
  C167     1.0000 0.27670  0.09950  0.29510  Biso   1.000  C
  C168     1.0000 0.29680  0.25600  0.38220  Biso   1.000  C
  C169     1.0000 0.34320  0.25590  0.40690  Biso   1.000  C
  C170     1.0000 0.36830  0.21850  0.41750  Biso   1.000  C
  C171     1.0000 0.35050  0.18160  0.40280  Biso   1.000  C
  C172     1.0000 0.30030  0.18030  0.37760  Biso   1.000  C
  C173     1.0000 0.27570  0.21860  0.36600  Biso   1.000  C
  C174     1.0000 0.28150  0.14090  0.36020  Biso   1.000  C
  C175     1.0000 0.26660  0.05380  0.23430  Biso   1.000  C
  C176     1.0000 0.41930  0.16390  0.23830  Biso   1.000  C
  C177     1.0000 0.26150  0.29360  0.37210  Biso   1.000  C
  C178     1.0000 0.42140  0.21880  0.44750  Biso   1.000  C
  C179     1.0000 0.15710  0.94480  0.16290  Biso   1.000  C
  C180     1.0000 0.12780  0.90570  0.14450  Biso   1.000  C
  C181     1.0000 0.07670  0.88890  0.16380  Biso   1.000  C
  C182     1.0000 0.15710  0.34470  0.42360  Biso   1.000  C
  C183     1.0000 0.12610  0.33070  0.46320  Biso   1.000  C
  C184     1.0000 0.07920  0.30220  0.46250  Biso   1.000  C
  C185     1.0000 0.29590  0.25710  0.08780  Biso   1.000  C
  C186     1.0000 0.34410  0.23810  0.10680  Biso   1.000  C
  C187     1.0000 0.37050  0.25930  0.14060  Biso   1.000  C
  C188     1.0000 0.34940  0.29810  0.15120  Biso   1.000  C
  C189     1.0000 0.30250  0.31660  0.13190  Biso   1.000  C
  C190     1.0000 0.27670  0.29510  0.09950  Biso   1.000  C
  C191     1.0000 0.29680  0.38220  0.25600  Biso   1.000  C
  C192     1.0000 0.34320  0.40690  0.25590  Biso   1.000  C
  C193     1.0000 0.36830  0.41750  0.21850  Biso   1.000  C
  C194     1.0000 0.35050  0.40280  0.18160  Biso   1.000  C
  C195     1.0000 0.30030  0.37760  0.18030  Biso   1.000  C
  C196     1.0000 0.27570  0.36600  0.21860  Biso   1.000  C
  C197     1.0000 0.28150  0.36020  0.14090  Biso   1.000  C
  C198     1.0000 0.26660  0.23430  0.05380  Biso   1.000  C
  C199     1.0000 0.41930  0.23830  0.16390  Biso   1.000  C
  C200     1.0000 0.26150  0.37210  0.29360  Biso   1.000  C
  C201     1.0000 0.42140  0.44750  0.21880  Biso   1.000  C
  C202     1.0000 0.15710  0.16290  0.94480  Biso   1.000  C
  C203     1.0000 0.12780  0.14450  0.90570  Biso   1.000  C
  C204     1.0000 0.07670  0.16380  0.88890  Biso   1.000  C
  C205     1.0000 0.15710  0.42360  0.34470  Biso   1.000  C
  C206     1.0000 0.12610  0.46320  0.33070  Biso   1.000  C
  C207     1.0000 0.07920  0.46250  0.30220  Biso   1.000  C
  C208     1.0000 0.29590  0.74290  0.91220  Biso   1.000  C
  C209     1.0000 0.34410  0.76190  0.89320  Biso   1.000  C
  C210     1.0000 0.37050  0.74070  0.85940  Biso   1.000  C
  C211     1.0000 0.34940  0.70190  0.84880  Biso   1.000  C
  C212     1.0000 0.30250  0.68340  0.86810  Biso   1.000  C
  C213     1.0000 0.27670  0.70490  0.90050  Biso   1.000  C
  C214     1.0000 0.29680  0.61780  0.74400  Biso   1.000  C
  C215     1.0000 0.34320  0.59310  0.74410  Biso   1.000  C
  C216     1.0000 0.36830  0.58250  0.78150  Biso   1.000  C
  C217     1.0000 0.35050  0.59720  0.81840  Biso   1.000  C
  C218     1.0000 0.30030  0.62240  0.81970  Biso   1.000  C
  C219     1.0000 0.27570  0.63400  0.78140  Biso   1.000  C
  C220     1.0000 0.28150  0.63980  0.85910  Biso   1.000  C
  C221     1.0000 0.26660  0.76570  0.94620  Biso   1.000  C
  C222     1.0000 0.41930  0.76170  0.83610  Biso   1.000  C
  C223     1.0000 0.26150  0.62790  0.70640  Biso   1.000  C
  C224     1.0000 0.42140  0.55250  0.78120  Biso   1.000  C
  C225     1.0000 0.15710  0.83710  0.05520  Biso   1.000  C
  C226     1.0000 0.12780  0.85550  0.09430  Biso   1.000  C
  C227     1.0000 0.07670  0.83620  0.11110  Biso   1.000  C
  C228     1.0000 0.15710  0.57640  0.65530  Biso   1.000  C
  C229     1.0000 0.12610  0.53680  0.66930  Biso   1.000  C
  C230     1.0000 0.07920  0.53750  0.69780  Biso   1.000  C
  C231     1.0000 0.29590  0.91220  0.25710  Biso   1.000  C
  C232     1.0000 0.34410  0.89320  0.23810  Biso   1.000  C
  C233     1.0000 0.37050  0.85940  0.25930  Biso   1.000  C
  C234     1.0000 0.34940  0.84880  0.29810  Biso   1.000  C
  C235     1.0000 0.30250  0.86810  0.31660  Biso   1.000  C
  C236     1.0000 0.27670  0.90050  0.29510  Biso   1.000  C
  C237     1.0000 0.29680  0.74400  0.38220  Biso   1.000  C
  C238     1.0000 0.34320  0.74410  0.40690  Biso   1.000  C
  C239     1.0000 0.36830  0.78150  0.41750  Biso   1.000  C
  C240     1.0000 0.35050  0.81840  0.40280  Biso   1.000  C
  C241     1.0000 0.30030  0.81970  0.37760  Biso   1.000  C
  C242     1.0000 0.27570  0.78140  0.36600  Biso   1.000  C
  C243     1.0000 0.28150  0.85910  0.36020  Biso   1.000  C
  C244     1.0000 0.26660  0.94620  0.23430  Biso   1.000  C
  C245     1.0000 0.41930  0.83610  0.23830  Biso   1.000  C
  C246     1.0000 0.26150  0.70640  0.37210  Biso   1.000  C
  C247     1.0000 0.42140  0.78120  0.44750  Biso   1.000  C
  C248     1.0000 0.15710  0.05520  0.16290  Biso   1.000  C
  C249     1.0000 0.12780  0.09430  0.14450  Biso   1.000  C
  C250     1.0000 0.07670  0.11110  0.16380  Biso   1.000  C
  C251     1.0000 0.15710  0.65530  0.42360  Biso   1.000  C
  C252     1.0000 0.12610  0.66930  0.46320  Biso   1.000  C
  C253     1.0000 0.07920  0.69780  0.46250  Biso   1.000  C
  C254     1.0000 0.29590  0.08780  0.74290  Biso   1.000  C
  C255     1.0000 0.34410  0.10680  0.76190  Biso   1.000  C
  C256     1.0000 0.37050  0.14060  0.74070  Biso   1.000  C
  C257     1.0000 0.34940  0.15120  0.70190  Biso   1.000  C
  C258     1.0000 0.30250  0.13190  0.68340  Biso   1.000  C
  C259     1.0000 0.27670  0.09950  0.70490  Biso   1.000  C
  C260     1.0000 0.29680  0.25600  0.61780  Biso   1.000  C
  C261     1.0000 0.34320  0.25590  0.59310  Biso   1.000  C
  C262     1.0000 0.36830  0.21850  0.58250  Biso   1.000  C
  C263     1.0000 0.35050  0.18160  0.59720  Biso   1.000  C
  C264     1.0000 0.30030  0.18030  0.62240  Biso   1.000  C
  C265     1.0000 0.27570  0.21860  0.63400  Biso   1.000  C
  C266     1.0000 0.28150  0.14090  0.63980  Biso   1.000  C
  C267     1.0000 0.26660  0.05380  0.76570  Biso   1.000  C
  C268     1.0000 0.41930  0.16390  0.76170  Biso   1.000  C
  C269     1.0000 0.26150  0.29360  0.62790  Biso   1.000  C
  C270     1.0000 0.42140  0.21880  0.55250  Biso   1.000  C
  C271     1.0000 0.15710  0.94480  0.83710  Biso   1.000  C
  C272     1.0000 0.12780  0.90570  0.85550  Biso   1.000  C
  C273     1.0000 0.07670  0.88890  0.83620  Biso   1.000  C
  C274     1.0000 0.15710  0.34470  0.57640  Biso   1.000  C
  C275     1.0000 0.12610  0.33070  0.53680  Biso   1.000  C
  C276     1.0000 0.07920  0.30220  0.53750  Biso   1.000  C
  C277     1.0000 0.70410  0.74290  0.08780  Biso   1.000  C
  C278     1.0000 0.65590  0.76190  0.10680  Biso   1.000  C
  C279     1.0000 0.62950  0.74070  0.14060  Biso   1.000  C
  C280     1.0000 0.65060  0.70190  0.15120  Biso   1.000  C
  C281     1.0000 0.69750  0.68340  0.13190  Biso   1.000  C
  C282     1.0000 0.72330  0.70490  0.09950  Biso   1.000  C
  C283     1.0000 0.70320  0.61780  0.25600  Biso   1.000  C
  C284     1.0000 0.65680  0.59310  0.25590  Biso   1.000  C
  C285     1.0000 0.63170  0.58250  0.21850  Biso   1.000  C
  C286     1.0000 0.64950  0.59720  0.18160  Biso   1.000  C
  C287     1.0000 0.69970  0.62240  0.18030  Biso   1.000  C
  C288     1.0000 0.72430  0.63400  0.21860  Biso   1.000  C
  C289     1.0000 0.71850  0.63980  0.14090  Biso   1.000  C
  C290     1.0000 0.73340  0.76570  0.05380  Biso   1.000  C
  C291     1.0000 0.58070  0.76170  0.16390  Biso   1.000  C
  C292     1.0000 0.73850  0.62790  0.29360  Biso   1.000  C
  C293     1.0000 0.57860  0.55250  0.21880  Biso   1.000  C
  C294     1.0000 0.84290  0.83710  0.94480  Biso   1.000  C
  C295     1.0000 0.87220  0.85550  0.90570  Biso   1.000  C
  C296     1.0000 0.92330  0.83620  0.88890  Biso   1.000  C
  C297     1.0000 0.84290  0.57640  0.34470  Biso   1.000  C
  C298     1.0000 0.87390  0.53680  0.33070  Biso   1.000  C
  C299     1.0000 0.92080  0.53750  0.30220  Biso   1.000  C
  C300     1.0000 0.70410  0.25710  0.91220  Biso   1.000  C
  C301     1.0000 0.65590  0.23810  0.89320  Biso   1.000  C
  C302     1.0000 0.62950  0.25930  0.85940  Biso   1.000  C
  C303     1.0000 0.65060  0.29810  0.84880  Biso   1.000  C
  C304     1.0000 0.69750  0.31660  0.86810  Biso   1.000  C
  C305     1.0000 0.72330  0.29510  0.90050  Biso   1.000  C
  C306     1.0000 0.70320  0.38220  0.74400  Biso   1.000  C
  C307     1.0000 0.65680  0.40690  0.74410  Biso   1.000  C
  C308     1.0000 0.63170  0.41750  0.78150  Biso   1.000  C
  C309     1.0000 0.64950  0.40280  0.81840  Biso   1.000  C
  C310     1.0000 0.69970  0.37760  0.81970  Biso   1.000  C
  C311     1.0000 0.72430  0.36600  0.78140  Biso   1.000  C
  C312     1.0000 0.71850  0.36020  0.85910  Biso   1.000  C
  C313     1.0000 0.73340  0.23430  0.94620  Biso   1.000  C
  C314     1.0000 0.58070  0.23830  0.83610  Biso   1.000  C
  C315     1.0000 0.73850  0.37210  0.70640  Biso   1.000  C
  C316     1.0000 0.57860  0.44750  0.78120  Biso   1.000  C
  C317     1.0000 0.84290  0.16290  0.05520  Biso   1.000  C
  C318     1.0000 0.87220  0.14450  0.09430  Biso   1.000  C
  C319     1.0000 0.92330  0.16380  0.11110  Biso   1.000  C
  C320     1.0000 0.84290  0.42360  0.65530  Biso   1.000  C
  C321     1.0000 0.87390  0.46320  0.66930  Biso   1.000  C
  C322     1.0000 0.92080  0.46250  0.69780  Biso   1.000  C
  C323     1.0000 0.70410  0.08780  0.25710  Biso   1.000  C
  C324     1.0000 0.65590  0.10680  0.23810  Biso   1.000  C
  C325     1.0000 0.62950  0.14060  0.25930  Biso   1.000  C
  C326     1.0000 0.65060  0.15120  0.29810  Biso   1.000  C
  C327     1.0000 0.69750  0.13190  0.31660  Biso   1.000  C
  C328     1.0000 0.72330  0.09950  0.29510  Biso   1.000  C
  C329     1.0000 0.70320  0.25600  0.38220  Biso   1.000  C
  C330     1.0000 0.65680  0.25590  0.40690  Biso   1.000  C
  C331     1.0000 0.63170  0.21850  0.41750  Biso   1.000  C
  C332     1.0000 0.64950  0.18160  0.40280  Biso   1.000  C
  C333     1.0000 0.69970  0.18030  0.37760  Biso   1.000  C
  C334     1.0000 0.72430  0.21860  0.36600  Biso   1.000  C
  C335     1.0000 0.71850  0.14090  0.36020  Biso   1.000  C
  C336     1.0000 0.73340  0.05380  0.23430  Biso   1.000  C
  C337     1.0000 0.58070  0.16390  0.23830  Biso   1.000  C
  C338     1.0000 0.73850  0.29360  0.37210  Biso   1.000  C
  C339     1.0000 0.57860  0.21880  0.44750  Biso   1.000  C
  C340     1.0000 0.84290  0.94480  0.16290  Biso   1.000  C
  C341     1.0000 0.87220  0.90570  0.14450  Biso   1.000  C
  C342     1.0000 0.92330  0.88890  0.16380  Biso   1.000  C
  C343     1.0000 0.84290  0.34470  0.42360  Biso   1.000  C
  C344     1.0000 0.87390  0.33070  0.46320  Biso   1.000  C
  C345     1.0000 0.92080  0.30220  0.46250  Biso   1.000  C
  C346     1.0000 0.70410  0.91220  0.74290  Biso   1.000  C
  C347     1.0000 0.65590  0.89320  0.76190  Biso   1.000  C
  C348     1.0000 0.62950  0.85940  0.74070  Biso   1.000  C
  C349     1.0000 0.65060  0.84880  0.70190  Biso   1.000  C
  C350     1.0000 0.69750  0.86810  0.68340  Biso   1.000  C
  C351     1.0000 0.72330  0.90050  0.70490  Biso   1.000  C
  C352     1.0000 0.70320  0.74400  0.61780  Biso   1.000  C
  C353     1.0000 0.65680  0.74410  0.59310  Biso   1.000  C
  C354     1.0000 0.63170  0.78150  0.58250  Biso   1.000  C
  C355     1.0000 0.64950  0.81840  0.59720  Biso   1.000  C
  C356     1.0000 0.69970  0.81970  0.62240  Biso   1.000  C
  C357     1.0000 0.72430  0.78140  0.63400  Biso   1.000  C
  C358     1.0000 0.71850  0.85910  0.63980  Biso   1.000  C
  C359     1.0000 0.73340  0.94620  0.76570  Biso   1.000  C
  C360     1.0000 0.58070  0.83610  0.76170  Biso   1.000  C
  C361     1.0000 0.73850  0.70640  0.62790  Biso   1.000  C
  C362     1.0000 0.57860  0.78120  0.55250  Biso   1.000  C
  C363     1.0000 0.84290  0.05520  0.83710  Biso   1.000  C
  C364     1.0000 0.87220  0.09430  0.85550  Biso   1.000  C
  C365     1.0000 0.92330  0.11110  0.83620  Biso   1.000  C
  C366     1.0000 0.84290  0.65530  0.57640  Biso   1.000  C
  C367     1.0000 0.87390  0.66930  0.53680  Biso   1.000  C
  C368     1.0000 0.92080  0.69780  0.53750  Biso   1.000  C
  C369     1.0000 0.84800  0.89130  0.10870  Biso   1.000  C
  C370     1.0000 0.94500  0.85280  0.14720  Biso   1.000  C
  C371     1.0000 0.84800  0.10870  0.89130  Biso   1.000  C
  C372     1.0000 0.94500  0.14720  0.85280  Biso   1.000  C
  C373     1.0000 0.84800  0.89130  0.89130  Biso   1.000  C
  C374     1.0000 0.94500  0.85280  0.85280  Biso   1.000  C
  C375     1.0000 0.84800  0.10870  0.10870  Biso   1.000  C
  C376     1.0000 0.94500  0.14720  0.14720  Biso   1.000  C
  C377     1.0000 0.15200  0.10870  0.10870  Biso   1.000  C
  C378     1.0000 0.05500  0.14720  0.14720  Biso   1.000  C
  C379     1.0000 0.15200  0.89130  0.89130  Biso   1.000  C
  C380     1.0000 0.05500  0.85280  0.85280  Biso   1.000  C
  C381     1.0000 0.15200  0.10870  0.89130  Biso   1.000  C
  C382     1.0000 0.05500  0.14720  0.85280  Biso   1.000  C
  C383     1.0000 0.15200  0.89130  0.10870  Biso   1.000  C
  C384     1.0000 0.05500  0.85280  0.14720  Biso   1.000  C
  C385     1.0000 0.00000  0.83390  0.16610  Biso   1.000  C
  C386     1.0000 0.00000  0.16610  0.83390  Biso   1.000  C
  C387     1.0000 0.00000  0.83390  0.83390  Biso   1.000  C
  C388     1.0000 0.00000  0.16610  0.16610  Biso   1.000  C
  C389     1.0000 0.84730  0.50000  0.65410  Biso   1.000  C
  C390     1.0000 0.94580  0.50000  0.70960  Biso   1.000  C
  C391     1.0000 0.84730  0.50000  0.34590  Biso   1.000  C
  C392     1.0000 0.94580  0.50000  0.29040  Biso   1.000  C
  C393     1.0000 0.84730  0.34590  0.50000  Biso   1.000  C
  C394     1.0000 0.94580  0.29040  0.50000  Biso   1.000  C
  C395     1.0000 0.84730  0.65410  0.50000  Biso   1.000  C
  C396     1.0000 0.94580  0.70960  0.50000  Biso   1.000  C
  C397     1.0000 0.15270  0.50000  0.65410  Biso   1.000  C
  C398     1.0000 0.05420  0.50000  0.70960  Biso   1.000  C
  C399     1.0000 0.15270  0.50000  0.34590  Biso   1.000  C
  C400     1.0000 0.05420  0.50000  0.29040  Biso   1.000  C
  C401     1.0000 0.15270  0.65410  0.50000  Biso   1.000  C
  C402     1.0000 0.05420  0.70960  0.50000  Biso   1.000  C
  C403     1.0000 0.15270  0.34590  0.50000  Biso   1.000  C
  C404     1.0000 0.05420  0.29040  0.50000  Biso   1.000  C
  C405     1.0000 0.00000  0.50000  0.73630  Biso   1.000  C
  C406     1.0000 0.00000  0.50000  0.26370  Biso   1.000  C
  C407     1.0000 0.00000  0.26370  0.50000  Biso   1.000  C
  C408     1.0000 0.00000  0.73630  0.50000  Biso   1.000  C
  O1       1.0000 0.71060  0.79730  0.95760  Biso   1.000  O
  O2       1.0000 0.77940  0.74800  0.95810  Biso   1.000  O
  O3       1.0000 0.56210  0.74410  0.80480  Biso   1.000  O
  O4       1.0000 0.55990  0.79380  0.85260  Biso   1.000  O
  O5       1.0000 0.78350  0.64910  0.70900  Biso   1.000  O
  O6       1.0000 0.71470  0.61470  0.67450  Biso   1.000  O
  O7       1.0000 0.56060  0.54100  0.81600  Biso   1.000  O
  O8       1.0000 0.56130  0.54190  0.74620  Biso   1.000  O
  O9       1.0000 0.79960  0.85410  0.04260  Biso   1.000  O
  O10      1.0000 0.86960  0.80480  0.04280  Biso   1.000  O
  O11      1.0000 0.87000  0.60830  0.66880  Biso   1.000  O
  O12      1.0000 0.80140  0.57440  0.63170  Biso   1.000  O
  O13      1.0000 0.71060  0.20270  0.04240  Biso   1.000  O
  O14      1.0000 0.77940  0.25200  0.04190  Biso   1.000  O
  O15      1.0000 0.56210  0.25590  0.19520  Biso   1.000  O
  O16      1.0000 0.55990  0.20620  0.14740  Biso   1.000  O
  O17      1.0000 0.78350  0.35090  0.29100  Biso   1.000  O
  O18      1.0000 0.71470  0.38530  0.32550  Biso   1.000  O
  O19      1.0000 0.56060  0.45900  0.18400  Biso   1.000  O
  O20      1.0000 0.56130  0.45810  0.25380  Biso   1.000  O
  O21      1.0000 0.79960  0.14590  0.95740  Biso   1.000  O
  O22      1.0000 0.86960  0.19520  0.95720  Biso   1.000  O
  O23      1.0000 0.87000  0.39170  0.33120  Biso   1.000  O
  O24      1.0000 0.80140  0.42560  0.36830  Biso   1.000  O
  O25      1.0000 0.71060  0.04240  0.79730  Biso   1.000  O
  O26      1.0000 0.77940  0.04190  0.74800  Biso   1.000  O
  O27      1.0000 0.56210  0.19520  0.74410  Biso   1.000  O
  O28      1.0000 0.55990  0.14740  0.79380  Biso   1.000  O
  O29      1.0000 0.78350  0.29100  0.64910  Biso   1.000  O
  O30      1.0000 0.71470  0.32550  0.61470  Biso   1.000  O
  O31      1.0000 0.56060  0.18400  0.54100  Biso   1.000  O
  O32      1.0000 0.56130  0.25380  0.54190  Biso   1.000  O
  O33      1.0000 0.79960  0.95740  0.85410  Biso   1.000  O
  O34      1.0000 0.86960  0.95720  0.80480  Biso   1.000  O
  O35      1.0000 0.87000  0.33120  0.60830  Biso   1.000  O
  O36      1.0000 0.80140  0.36830  0.57440  Biso   1.000  O
  O37      1.0000 0.71060  0.95760  0.20270  Biso   1.000  O
  O38      1.0000 0.77940  0.95810  0.25200  Biso   1.000  O
  O39      1.0000 0.56210  0.80480  0.25590  Biso   1.000  O
  O40      1.0000 0.55990  0.85260  0.20620  Biso   1.000  O
  O41      1.0000 0.78350  0.70900  0.35090  Biso   1.000  O
  O42      1.0000 0.71470  0.67450  0.38530  Biso   1.000  O
  O43      1.0000 0.56060  0.81600  0.45900  Biso   1.000  O
  O44      1.0000 0.56130  0.74620  0.45810  Biso   1.000  O
  O45      1.0000 0.79960  0.04260  0.14590  Biso   1.000  O
  O46      1.0000 0.86960  0.04280  0.19520  Biso   1.000  O
  O47      1.0000 0.87000  0.66880  0.39170  Biso   1.000  O
  O48      1.0000 0.80140  0.63170  0.42560  Biso   1.000  O
  O49      1.0000 0.28940  0.20270  0.95760  Biso   1.000  O
  O50      1.0000 0.22060  0.25200  0.95810  Biso   1.000  O
  O51      1.0000 0.43790  0.25590  0.80480  Biso   1.000  O
  O52      1.0000 0.44010  0.20620  0.85260  Biso   1.000  O
  O53      1.0000 0.21650  0.35090  0.70900  Biso   1.000  O
  O54      1.0000 0.28530  0.38530  0.67450  Biso   1.000  O
  O55      1.0000 0.43940  0.45900  0.81600  Biso   1.000  O
  O56      1.0000 0.43870  0.45810  0.74620  Biso   1.000  O
  O57      1.0000 0.20040  0.14590  0.04260  Biso   1.000  O
  O58      1.0000 0.13040  0.19520  0.04280  Biso   1.000  O
  O59      1.0000 0.13000  0.39170  0.66880  Biso   1.000  O
  O60      1.0000 0.19860  0.42560  0.63170  Biso   1.000  O
  O61      1.0000 0.28940  0.79730  0.04240  Biso   1.000  O
  O62      1.0000 0.22060  0.74800  0.04190  Biso   1.000  O
  O63      1.0000 0.43790  0.74410  0.19520  Biso   1.000  O
  O64      1.0000 0.44010  0.79380  0.14740  Biso   1.000  O
  O65      1.0000 0.21650  0.64910  0.29100  Biso   1.000  O
  O66      1.0000 0.28530  0.61470  0.32550  Biso   1.000  O
  O67      1.0000 0.43940  0.54100  0.18400  Biso   1.000  O
  O68      1.0000 0.43870  0.54190  0.25380  Biso   1.000  O
  O69      1.0000 0.20040  0.85410  0.95740  Biso   1.000  O
  O70      1.0000 0.13040  0.80480  0.95720  Biso   1.000  O
  O71      1.0000 0.13000  0.60830  0.33120  Biso   1.000  O
  O72      1.0000 0.19860  0.57440  0.36830  Biso   1.000  O
  O73      1.0000 0.28940  0.95760  0.79730  Biso   1.000  O
  O74      1.0000 0.22060  0.95810  0.74800  Biso   1.000  O
  O75      1.0000 0.43790  0.80480  0.74410  Biso   1.000  O
  O76      1.0000 0.44010  0.85260  0.79380  Biso   1.000  O
  O77      1.0000 0.21650  0.70900  0.64910  Biso   1.000  O
  O78      1.0000 0.28530  0.67450  0.61470  Biso   1.000  O
  O79      1.0000 0.43940  0.81600  0.54100  Biso   1.000  O
  O80      1.0000 0.43870  0.74620  0.54190  Biso   1.000  O
  O81      1.0000 0.20040  0.04260  0.85410  Biso   1.000  O
  O82      1.0000 0.13040  0.04280  0.80480  Biso   1.000  O
  O83      1.0000 0.13000  0.66880  0.60830  Biso   1.000  O
  O84      1.0000 0.19860  0.63170  0.57440  Biso   1.000  O
  O85      1.0000 0.28940  0.04240  0.20270  Biso   1.000  O
  O86      1.0000 0.22060  0.04190  0.25200  Biso   1.000  O
  O87      1.0000 0.43790  0.19520  0.25590  Biso   1.000  O
  O88      1.0000 0.44010  0.14740  0.20620  Biso   1.000  O
  O89      1.0000 0.21650  0.29100  0.35090  Biso   1.000  O
  O90      1.0000 0.28530  0.32550  0.38530  Biso   1.000  O
  O91      1.0000 0.43940  0.18400  0.45900  Biso   1.000  O
  O92      1.0000 0.43870  0.25380  0.45810  Biso   1.000  O
  O93      1.0000 0.20040  0.95740  0.14590  Biso   1.000  O
  O94      1.0000 0.13040  0.95720  0.19520  Biso   1.000  O
  O95      1.0000 0.13000  0.33120  0.39170  Biso   1.000  O
  O96      1.0000 0.19860  0.36830  0.42560  Biso   1.000  O
  O97      1.0000 0.28940  0.20270  0.04240  Biso   1.000  O
  O98      1.0000 0.22060  0.25200  0.04190  Biso   1.000  O
  O99      1.0000 0.43790  0.25590  0.19520  Biso   1.000  O
  O100     1.0000 0.44010  0.20620  0.14740  Biso   1.000  O
  O101     1.0000 0.21650  0.35090  0.29100  Biso   1.000  O
  O102     1.0000 0.28530  0.38530  0.32550  Biso   1.000  O
  O103     1.0000 0.43940  0.45900  0.18400  Biso   1.000  O
  O104     1.0000 0.43870  0.45810  0.25380  Biso   1.000  O
  O105     1.0000 0.20040  0.14590  0.95740  Biso   1.000  O
  O106     1.0000 0.13040  0.19520  0.95720  Biso   1.000  O
  O107     1.0000 0.13000  0.39170  0.33120  Biso   1.000  O
  O108     1.0000 0.19860  0.42560  0.36830  Biso   1.000  O
  O109     1.0000 0.28940  0.79730  0.95760  Biso   1.000  O
  O110     1.0000 0.22060  0.74800  0.95810  Biso   1.000  O
  O111     1.0000 0.43790  0.74410  0.80480  Biso   1.000  O
  O112     1.0000 0.44010  0.79380  0.85260  Biso   1.000  O
  O113     1.0000 0.21650  0.64910  0.70900  Biso   1.000  O
  O114     1.0000 0.28530  0.61470  0.67450  Biso   1.000  O
  O115     1.0000 0.43940  0.54100  0.81600  Biso   1.000  O
  O116     1.0000 0.43870  0.54190  0.74620  Biso   1.000  O
  O117     1.0000 0.20040  0.85410  0.04260  Biso   1.000  O
  O118     1.0000 0.13040  0.80480  0.04280  Biso   1.000  O
  O119     1.0000 0.13000  0.60830  0.66880  Biso   1.000  O
  O120     1.0000 0.19860  0.57440  0.63170  Biso   1.000  O
  O121     1.0000 0.28940  0.95760  0.20270  Biso   1.000  O
  O122     1.0000 0.22060  0.95810  0.25200  Biso   1.000  O
  O123     1.0000 0.43790  0.80480  0.25590  Biso   1.000  O
  O124     1.0000 0.44010  0.85260  0.20620  Biso   1.000  O
  O125     1.0000 0.21650  0.70900  0.35090  Biso   1.000  O
  O126     1.0000 0.28530  0.67450  0.38530  Biso   1.000  O
  O127     1.0000 0.43940  0.81600  0.45900  Biso   1.000  O
  O128     1.0000 0.43870  0.74620  0.45810  Biso   1.000  O
  O129     1.0000 0.20040  0.04260  0.14590  Biso   1.000  O
  O130     1.0000 0.13040  0.04280  0.19520  Biso   1.000  O
  O131     1.0000 0.13000  0.66880  0.39170  Biso   1.000  O
  O132     1.0000 0.19860  0.63170  0.42560  Biso   1.000  O
  O133     1.0000 0.28940  0.04240  0.79730  Biso   1.000  O
  O134     1.0000 0.22060  0.04190  0.74800  Biso   1.000  O
  O135     1.0000 0.43790  0.19520  0.74410  Biso   1.000  O
  O136     1.0000 0.44010  0.14740  0.79380  Biso   1.000  O
  O137     1.0000 0.21650  0.29100  0.64910  Biso   1.000  O
  O138     1.0000 0.28530  0.32550  0.61470  Biso   1.000  O
  O139     1.0000 0.43940  0.18400  0.54100  Biso   1.000  O
  O140     1.0000 0.43870  0.25380  0.54190  Biso   1.000  O
  O141     1.0000 0.20040  0.95740  0.85410  Biso   1.000  O
  O142     1.0000 0.13040  0.95720  0.80480  Biso   1.000  O
  O143     1.0000 0.13000  0.33120  0.60830  Biso   1.000  O
  O144     1.0000 0.19860  0.36830  0.57440  Biso   1.000  O
  O145     1.0000 0.71060  0.79730  0.04240  Biso   1.000  O
  O146     1.0000 0.77940  0.74800  0.04190  Biso   1.000  O
  O147     1.0000 0.56210  0.74410  0.19520  Biso   1.000  O
  O148     1.0000 0.55990  0.79380  0.14740  Biso   1.000  O
  O149     1.0000 0.78350  0.64910  0.29100  Biso   1.000  O
  O150     1.0000 0.71470  0.61470  0.32550  Biso   1.000  O
  O151     1.0000 0.56060  0.54100  0.18400  Biso   1.000  O
  O152     1.0000 0.56130  0.54190  0.25380  Biso   1.000  O
  O153     1.0000 0.79960  0.85410  0.95740  Biso   1.000  O
  O154     1.0000 0.86960  0.80480  0.95720  Biso   1.000  O
  O155     1.0000 0.87000  0.60830  0.33120  Biso   1.000  O
  O156     1.0000 0.80140  0.57440  0.36830  Biso   1.000  O
  O157     1.0000 0.71060  0.20270  0.95760  Biso   1.000  O
  O158     1.0000 0.77940  0.25200  0.95810  Biso   1.000  O
  O159     1.0000 0.56210  0.25590  0.80480  Biso   1.000  O
  O160     1.0000 0.55990  0.20620  0.85260  Biso   1.000  O
  O161     1.0000 0.78350  0.35090  0.70900  Biso   1.000  O
  O162     1.0000 0.71470  0.38530  0.67450  Biso   1.000  O
  O163     1.0000 0.56060  0.45900  0.81600  Biso   1.000  O
  O164     1.0000 0.56130  0.45810  0.74620  Biso   1.000  O
  O165     1.0000 0.79960  0.14590  0.04260  Biso   1.000  O
  O166     1.0000 0.86960  0.19520  0.04280  Biso   1.000  O
  O167     1.0000 0.87000  0.39170  0.66880  Biso   1.000  O
  O168     1.0000 0.80140  0.42560  0.63170  Biso   1.000  O
  O169     1.0000 0.71060  0.04240  0.20270  Biso   1.000  O
  O170     1.0000 0.77940  0.04190  0.25200  Biso   1.000  O
  O171     1.0000 0.56210  0.19520  0.25590  Biso   1.000  O
  O172     1.0000 0.55990  0.14740  0.20620  Biso   1.000  O
  O173     1.0000 0.78350  0.29100  0.35090  Biso   1.000  O
  O174     1.0000 0.71470  0.32550  0.38530  Biso   1.000  O
  O175     1.0000 0.56060  0.18400  0.45900  Biso   1.000  O
  O176     1.0000 0.56130  0.25380  0.45810  Biso   1.000  O
  O177     1.0000 0.79960  0.95740  0.14590  Biso   1.000  O
  O178     1.0000 0.86960  0.95720  0.19520  Biso   1.000  O
  O179     1.0000 0.87000  0.33120  0.39170  Biso   1.000  O
  O180     1.0000 0.80140  0.36830  0.42560  Biso   1.000  O
  O181     1.0000 0.71060  0.95760  0.79730  Biso   1.000  O
  O182     1.0000 0.77940  0.95810  0.74800  Biso   1.000  O
  O183     1.0000 0.56210  0.80480  0.74410  Biso   1.000  O
  O184     1.0000 0.55990  0.85260  0.79380  Biso   1.000  O
  O185     1.0000 0.78350  0.70900  0.64910  Biso   1.000  O
  O186     1.0000 0.71470  0.67450  0.61470  Biso   1.000  O
  O187     1.0000 0.56060  0.81600  0.54100  Biso   1.000  O
  O188     1.0000 0.56130  0.74620  0.54190  Biso   1.000  O
  O189     1.0000 0.79960  0.04260  0.85410  Biso   1.000  O
  O190     1.0000 0.86960  0.04280  0.80480  Biso   1.000  O
  O191     1.0000 0.87000  0.66880  0.60830  Biso   1.000  O
  O192     1.0000 0.80140  0.63170  0.57440  Biso   1.000  O
  O193     1.0000 0.68480  0.88050  0.00000  Biso   1.000  O
  O194     1.0000 0.89890  0.72370  0.00000  Biso   1.000  O
  O195     1.0000 0.68480  0.11950  0.00000  Biso   1.000  O
  O196     1.0000 0.89890  0.27630  0.00000  Biso   1.000  O
  O197     1.0000 0.68480  0.00000  0.88050  Biso   1.000  O
  O198     1.0000 0.89890  0.00000  0.72370  Biso   1.000  O
  O199     1.0000 0.68480  0.00000  0.11950  Biso   1.000  O
  O200     1.0000 0.89890  0.00000  0.27630  Biso   1.000  O
  O201     1.0000 0.31520  0.11950  0.00000  Biso   1.000  O
  O202     1.0000 0.10110  0.27630  0.00000  Biso   1.000  O
  O203     1.0000 0.31520  0.88050  0.00000  Biso   1.000  O
  O204     1.0000 0.10110  0.72370  0.00000  Biso   1.000  O
  O205     1.0000 0.31520  0.00000  0.88050  Biso   1.000  O
  O206     1.0000 0.10110  0.00000  0.72370  Biso   1.000  O
  O207     1.0000 0.31520  0.00000  0.11950  Biso   1.000  O
  O208     1.0000 0.10110  0.00000  0.27630  Biso   1.000  O
  O209     1.0000 0.50000  0.72350  0.72350  Biso   1.000  O
  O210     1.0000 0.50000  0.87530  0.87530  Biso   1.000  O
  O211     1.0000 0.50000  0.27650  0.27650  Biso   1.000  O
  O212     1.0000 0.50000  0.12470  0.12470  Biso   1.000  O
  O213     1.0000 0.50000  0.27650  0.72350  Biso   1.000  O
  O214     1.0000 0.50000  0.12470  0.87530  Biso   1.000  O
  O215     1.0000 0.50000  0.72350  0.27650  Biso   1.000  O
  O216     1.0000 0.50000  0.87530  0.12470  Biso   1.000  O
  O217     1.0000 0.68530  0.58620  0.58620  Biso   1.000  O
  O218     1.0000 0.68530  0.41380  0.41380  Biso   1.000  O
  O219     1.0000 0.68530  0.41380  0.58620  Biso   1.000  O
  O220     1.0000 0.68530  0.58620  0.41380  Biso   1.000  O
  O221     1.0000 0.31470  0.41380  0.58620  Biso   1.000  O
  O222     1.0000 0.31470  0.58620  0.41380  Biso   1.000  O
  O223     1.0000 0.31470  0.58620  0.58620  Biso   1.000  O
  O224     1.0000 0.31470  0.41380  0.41380  Biso   1.000  O
  O225     1.0000 0.50000  0.50000  0.67560  Biso   1.000  O
  O226     1.0000 0.50000  0.50000  0.32440  Biso   1.000  O
  O227     1.0000 0.50000  0.32440  0.50000  Biso   1.000  O
  O228     1.0000 0.50000  0.67560  0.50000  Biso   1.000  O
