data_image0
_cell_length_a       20.2644
_cell_length_b       19.1216
_cell_length_c       26.8248
_cell_angle_alpha    90
_cell_angle_beta     101.184
_cell_angle_gamma    90

_symmetry_space_group_name_H-M    "P 1"
_symmetry_int_tables_number       1

loop_
  _symmetry_equiv_pos_as_xyz
  'x, y, z'

loop_
  _atom_site_label
  _atom_site_occupancy
  _atom_site_fract_x
  _atom_site_fract_y
  _atom_site_fract_z
  _atom_site_thermal_displace_type
  _atom_site_B_iso_or_equiv
  _atom_site_type_symbol
  Zn1      1.0000 0.51337  0.51578  0.05510  Biso   1.000  Zn
  Zn2      1.0000 0.63651  0.40722  0.24283  Biso   1.000  Zn
  Zn3      1.0000 0.78723  0.34237  0.26384  Biso   1.000  Zn
  C1       1.0000 0.65720  0.80420  0.95700  Biso   1.000  C
  C2       1.0000 0.62140  0.76600  0.91590  Biso   1.000  C
  H1       1.0000 0.62010  0.78070  0.88270  Biso   1.000  H
  C3       1.0000 0.58830  0.70670  0.92570  Biso   1.000  C
  H2       1.0000 0.56420  0.68080  0.89890  Biso   1.000  H
  C4       1.0000 0.59050  0.68430  0.97640  Biso   1.000  C
  C5       1.0000 0.62520  0.72130  0.01580  Biso   1.000  C
  H3       1.0000 0.62560  0.70660  0.04890  Biso   1.000  H
  C6       1.0000 0.66090  0.78210  0.00720  Biso   1.000  C
  C7       1.0000 0.70570  0.82790  0.03930  Biso   1.000  C
  C8       1.0000 0.72990  0.83430  0.09150  Biso   1.000  C
  H4       1.0000 0.71560  0.80320  0.11390  Biso   1.000  H
  C9       1.0000 0.77500  0.88650  0.10990  Biso   1.000  C
  C10      1.0000 0.79580  0.93460  0.07700  Biso   1.000  C
  H5       1.0000 0.82620  0.96960  0.09000  Biso   1.000  H
  C11      1.0000 0.77170  0.93060  0.02530  Biso   1.000  C
  H6       1.0000 0.78440  0.96350  0.00350  Biso   1.000  H
  C12      1.0000 0.72820  0.87670  0.00650  Biso   1.000  C
  C13      1.0000 0.70500  0.90220  0.91340  Biso   1.000  C
  C14      1.0000 0.76700  0.90700  0.89960  Biso   1.000  C
  H7       1.0000 0.80360  0.88270  0.91790  Biso   1.000  H
  C15      1.0000 0.77450  0.94730  0.85940  Biso   1.000  C
  H8       1.0000 0.81640  0.95010  0.85010  Biso   1.000  H
  C16      1.0000 0.72070  0.98430  0.83200  Biso   1.000  C
  C17      1.0000 0.65930  0.97800  0.84600  Biso   1.000  C
  H9       1.0000 0.62240  0.00210  0.82800  Biso   1.000  H
  C18      1.0000 0.65180  0.93690  0.88590  Biso   1.000  C
  H10      1.0000 0.60960  0.93260  0.89440  Biso   1.000  H
  C19      1.0000 0.55670  0.61630  0.98500  Biso   1.000  C
  C20      1.0000 0.80240  0.89220  0.16550  Biso   1.000  C
  C21      1.0000 0.73350  0.03240  0.79050  Biso   1.000  C
  C22      1.0000 0.63760  0.22040  0.02750  Biso   1.000  C
  C23      1.0000 0.59020  0.25810  0.04740  Biso   1.000  C
  H11      1.0000 0.54750  0.26680  0.02840  Biso   1.000  H
  C24      1.0000 0.60930  0.28200  0.09670  Biso   1.000  C
  H12      1.0000 0.57910  0.30830  0.11100  Biso   1.000  H
  C25      1.0000 0.67390  0.26720  0.12600  Biso   1.000  C
  C26      1.0000 0.71940  0.22870  0.10580  Biso   1.000  C
  H13      1.0000 0.76170  0.21900  0.12500  Biso   1.000  H
  C27      1.0000 0.70150  0.20430  0.05620  Biso   1.000  C
  C28      1.0000 0.73610  0.16400  0.02300  Biso   1.000  C
  C29      1.0000 0.69280  0.16000  0.97580  Biso   1.000  C
  C30      1.0000 0.71060  0.12560  0.93460  Biso   1.000  C
  H14      1.0000 0.68080  0.12200  0.90370  Biso   1.000  H
  C31      1.0000 0.77490  0.09670  0.94160  Biso   1.000  C
  H15      1.0000 0.78880  0.07540  0.91420  Biso   1.000  H
  C32      1.0000 0.81960  0.09890  0.98910  Biso   1.000  C
  C33      1.0000 0.79980  0.13400  0.02990  Biso   1.000  C
  H16      1.0000 0.82910  0.13710  0.06120  Biso   1.000  H
  C34      1.0000 0.57260  0.19580  0.94060  Biso   1.000  C
  C35      1.0000 0.54120  0.25810  0.92590  Biso   1.000  C
  H17      1.0000 0.55870  0.29990  0.94050  Biso   1.000  H
  C36      1.0000 0.48220  0.25770  0.88850  Biso   1.000  C
  H18      1.0000 0.46220  0.30060  0.87870  Biso   1.000  H
  C37      1.0000 0.45290  0.20100  0.86610  Biso   1.000  C
  C38      1.0000 0.48640  0.13700  0.88280  Biso   1.000  C
  H19      1.0000 0.46780  0.09560  0.86820  Biso   1.000  H
  C39      1.0000 0.54550  0.13270  0.91970  Biso   1.000  C
  H20      1.0000 0.56560  0.09000  0.92980  Biso   1.000  H
  C40      1.0000 0.69180  0.29990  0.17740  Biso   1.000  C
  C41      1.0000 0.88630  0.06520  0.99500  Biso   1.000  C
  C42      1.0000 0.39060  0.20610  0.82540  Biso   1.000  C
  C43      1.0000 0.56000  0.48130  0.15730  Biso   1.000  C
  H21      1.0000 0.56450  0.43840  0.14190  Biso   1.000  H
  N1       1.0000 0.69850  0.86170  0.95680  Biso   1.000  N
  N2       1.0000 0.63210  0.19250  0.97940  Biso   1.000  N
  O1       1.0000 0.55660  0.60130  0.03070  Biso   1.000  O
  O2       1.0000 0.53120  0.58020  0.94710  Biso   1.000  O
  O3       1.0000 0.78600  0.84640  0.19630  Biso   1.000  O
  O4       1.0000 0.84370  0.93940  0.18230  Biso   1.000  O
  O5       1.0000 0.78290  0.02600  0.77110  Biso   1.000  O
  O6       1.0000 0.69090  0.07900  0.77790  Biso   1.000  O
  O7       1.0000 0.65220  0.34380  0.18850  Biso   1.000  O
  O8       1.0000 0.74720  0.28240  0.20620  Biso   1.000  O
  O9       1.0000 0.92230  0.06360  0.03880  Biso   1.000  O
  O10      1.0000 0.90070  0.03810  0.95570  Biso   1.000  O
  O11      1.0000 0.36980  0.14680  0.81550  Biso   1.000  O
  O12      1.0000 0.36420  0.26170  0.81120  Biso   1.000  O
  O13      1.0000 0.55490  0.34780  0.25000  Biso   1.000  O
  O14      1.0000 0.57820  0.48520  0.20550  Biso   1.000  O
  O15      1.0000 0.53720  0.53010  0.13000  Biso   1.000  O
  Zn4      1.0000 0.01337  0.01578  0.05510  Biso   1.000  Zn
  Zn5      1.0000 0.13651  0.90722  0.24283  Biso   1.000  Zn
  Zn6      1.0000 0.28723  0.84237  0.26384  Biso   1.000  Zn
  C44      1.0000 0.15720  0.30420  0.95700  Biso   1.000  C
  C45      1.0000 0.12140  0.26600  0.91590  Biso   1.000  C
  H22      1.0000 0.12010  0.28070  0.88270  Biso   1.000  H
  C46      1.0000 0.08830  0.20670  0.92570  Biso   1.000  C
  H23      1.0000 0.06420  0.18080  0.89890  Biso   1.000  H
  C47      1.0000 0.09050  0.18430  0.97640  Biso   1.000  C
  C48      1.0000 0.12520  0.22130  0.01580  Biso   1.000  C
  H24      1.0000 0.12560  0.20660  0.04890  Biso   1.000  H
  C49      1.0000 0.16090  0.28210  0.00720  Biso   1.000  C
  C50      1.0000 0.20570  0.32790  0.03930  Biso   1.000  C
  C51      1.0000 0.22990  0.33430  0.09150  Biso   1.000  C
  H25      1.0000 0.21560  0.30320  0.11390  Biso   1.000  H
  C52      1.0000 0.27500  0.38650  0.10990  Biso   1.000  C
  C53      1.0000 0.29580  0.43460  0.07700  Biso   1.000  C
  H26      1.0000 0.32620  0.46960  0.09000  Biso   1.000  H
  C54      1.0000 0.27170  0.43060  0.02530  Biso   1.000  C
  H27      1.0000 0.28440  0.46350  0.00350  Biso   1.000  H
  C55      1.0000 0.22820  0.37670  0.00650  Biso   1.000  C
  C56      1.0000 0.20500  0.40220  0.91340  Biso   1.000  C
  C57      1.0000 0.26700  0.40700  0.89960  Biso   1.000  C
  H28      1.0000 0.30360  0.38270  0.91790  Biso   1.000  H
  C58      1.0000 0.27450  0.44730  0.85940  Biso   1.000  C
  H29      1.0000 0.31640  0.45010  0.85010  Biso   1.000  H
  C59      1.0000 0.22070  0.48430  0.83200  Biso   1.000  C
  C60      1.0000 0.15930  0.47800  0.84600  Biso   1.000  C
  H30      1.0000 0.12240  0.50210  0.82800  Biso   1.000  H
  C61      1.0000 0.15180  0.43690  0.88590  Biso   1.000  C
  H31      1.0000 0.10960  0.43260  0.89440  Biso   1.000  H
  C62      1.0000 0.05670  0.11630  0.98500  Biso   1.000  C
  C63      1.0000 0.30240  0.39220  0.16550  Biso   1.000  C
  C64      1.0000 0.23350  0.53240  0.79050  Biso   1.000  C
  C65      1.0000 0.13760  0.72040  0.02750  Biso   1.000  C
  C66      1.0000 0.09020  0.75810  0.04740  Biso   1.000  C
  H32      1.0000 0.04750  0.76680  0.02840  Biso   1.000  H
  C67      1.0000 0.10930  0.78200  0.09670  Biso   1.000  C
  H33      1.0000 0.07910  0.80830  0.11100  Biso   1.000  H
  C68      1.0000 0.17390  0.76720  0.12600  Biso   1.000  C
  C69      1.0000 0.21940  0.72870  0.10580  Biso   1.000  C
  H34      1.0000 0.26170  0.71900  0.12500  Biso   1.000  H
  C70      1.0000 0.20150  0.70430  0.05620  Biso   1.000  C
  C71      1.0000 0.23610  0.66400  0.02300  Biso   1.000  C
  C72      1.0000 0.19280  0.66000  0.97580  Biso   1.000  C
  C73      1.0000 0.21060  0.62560  0.93460  Biso   1.000  C
  H35      1.0000 0.18080  0.62200  0.90370  Biso   1.000  H
  C74      1.0000 0.27490  0.59670  0.94160  Biso   1.000  C
  H36      1.0000 0.28880  0.57540  0.91420  Biso   1.000  H
  C75      1.0000 0.31960  0.59890  0.98910  Biso   1.000  C
  C76      1.0000 0.29980  0.63400  0.02990  Biso   1.000  C
  H37      1.0000 0.32910  0.63710  0.06120  Biso   1.000  H
  C77      1.0000 0.07260  0.69580  0.94060  Biso   1.000  C
  C78      1.0000 0.04120  0.75810  0.92590  Biso   1.000  C
  H38      1.0000 0.05870  0.79990  0.94050  Biso   1.000  H
  C79      1.0000 0.98220  0.75770  0.88850  Biso   1.000  C
  H39      1.0000 0.96220  0.80060  0.87870  Biso   1.000  H
  C80      1.0000 0.95290  0.70100  0.86610  Biso   1.000  C
  C81      1.0000 0.98640  0.63700  0.88280  Biso   1.000  C
  H40      1.0000 0.96780  0.59560  0.86820  Biso   1.000  H
  C82      1.0000 0.04550  0.63270  0.91970  Biso   1.000  C
  H41      1.0000 0.06560  0.59000  0.92980  Biso   1.000  H
  C83      1.0000 0.19180  0.79990  0.17740  Biso   1.000  C
  C84      1.0000 0.38630  0.56520  0.99500  Biso   1.000  C
  C85      1.0000 0.89060  0.70610  0.82540  Biso   1.000  C
  C86      1.0000 0.06000  0.98130  0.15730  Biso   1.000  C
  H42      1.0000 0.06450  0.93840  0.14190  Biso   1.000  H
  N3       1.0000 0.19850  0.36170  0.95680  Biso   1.000  N
  N4       1.0000 0.13210  0.69250  0.97940  Biso   1.000  N
  O16      1.0000 0.05660  0.10130  0.03070  Biso   1.000  O
  O17      1.0000 0.03120  0.08020  0.94710  Biso   1.000  O
  O18      1.0000 0.28600  0.34640  0.19630  Biso   1.000  O
  O19      1.0000 0.34370  0.43940  0.18230  Biso   1.000  O
  O20      1.0000 0.28290  0.52600  0.77110  Biso   1.000  O
  O21      1.0000 0.19090  0.57900  0.77790  Biso   1.000  O
  O22      1.0000 0.15220  0.84380  0.18850  Biso   1.000  O
  O23      1.0000 0.24720  0.78240  0.20620  Biso   1.000  O
  O24      1.0000 0.42230  0.56360  0.03880  Biso   1.000  O
  O25      1.0000 0.40070  0.53810  0.95570  Biso   1.000  O
  O26      1.0000 0.86980  0.64680  0.81550  Biso   1.000  O
  O27      1.0000 0.86420  0.76170  0.81120  Biso   1.000  O
  O28      1.0000 0.05490  0.84780  0.25000  Biso   1.000  O
  O29      1.0000 0.07820  0.98520  0.20550  Biso   1.000  O
  O30      1.0000 0.03720  0.03010  0.13000  Biso   1.000  O
  Zn7      1.0000 0.48663  0.51578  0.44490  Biso   1.000  Zn
  Zn8      1.0000 0.36349  0.40722  0.25717  Biso   1.000  Zn
  Zn9      1.0000 0.21277  0.34237  0.23616  Biso   1.000  Zn
  C87      1.0000 0.34280  0.80420  0.54300  Biso   1.000  C
  C88      1.0000 0.37860  0.76600  0.58410  Biso   1.000  C
  H43      1.0000 0.37990  0.78070  0.61730  Biso   1.000  H
  C89      1.0000 0.41170  0.70670  0.57430  Biso   1.000  C
  H44      1.0000 0.43580  0.68080  0.60110  Biso   1.000  H
  C90      1.0000 0.40950  0.68430  0.52360  Biso   1.000  C
  C91      1.0000 0.37480  0.72130  0.48420  Biso   1.000  C
  H45      1.0000 0.37440  0.70660  0.45110  Biso   1.000  H
  C92      1.0000 0.33910  0.78210  0.49280  Biso   1.000  C
  C93      1.0000 0.29430  0.82790  0.46070  Biso   1.000  C
  C94      1.0000 0.27010  0.83430  0.40850  Biso   1.000  C
  H46      1.0000 0.28440  0.80320  0.38610  Biso   1.000  H
  C95      1.0000 0.22500  0.88650  0.39010  Biso   1.000  C
  C96      1.0000 0.20420  0.93460  0.42300  Biso   1.000  C
  H47      1.0000 0.17380  0.96960  0.41000  Biso   1.000  H
  C97      1.0000 0.22830  0.93060  0.47470  Biso   1.000  C
  H48      1.0000 0.21560  0.96350  0.49650  Biso   1.000  H
  C98      1.0000 0.27180  0.87670  0.49350  Biso   1.000  C
  C99      1.0000 0.29500  0.90220  0.58660  Biso   1.000  C
  C100     1.0000 0.23300  0.90700  0.60040  Biso   1.000  C
  H49      1.0000 0.19640  0.88270  0.58210  Biso   1.000  H
  C101     1.0000 0.22550  0.94730  0.64060  Biso   1.000  C
  H50      1.0000 0.18360  0.95010  0.64990  Biso   1.000  H
  C102     1.0000 0.27930  0.98430  0.66800  Biso   1.000  C
  C103     1.0000 0.34070  0.97800  0.65400  Biso   1.000  C
  H51      1.0000 0.37760  0.00210  0.67200  Biso   1.000  H
  C104     1.0000 0.34820  0.93690  0.61410  Biso   1.000  C
  H52      1.0000 0.39040  0.93260  0.60560  Biso   1.000  H
  C105     1.0000 0.44330  0.61630  0.51500  Biso   1.000  C
  C106     1.0000 0.19760  0.89220  0.33450  Biso   1.000  C
  C107     1.0000 0.26650  0.03240  0.70950  Biso   1.000  C
  C108     1.0000 0.36240  0.22040  0.47250  Biso   1.000  C
  C109     1.0000 0.40980  0.25810  0.45260  Biso   1.000  C
  H53      1.0000 0.45250  0.26680  0.47160  Biso   1.000  H
  C110     1.0000 0.39070  0.28200  0.40330  Biso   1.000  C
  H54      1.0000 0.42090  0.30830  0.38900  Biso   1.000  H
  C111     1.0000 0.32610  0.26720  0.37400  Biso   1.000  C
  C112     1.0000 0.28060  0.22870  0.39420  Biso   1.000  C
  H55      1.0000 0.23830  0.21900  0.37500  Biso   1.000  H
  C113     1.0000 0.29850  0.20430  0.44380  Biso   1.000  C
  C114     1.0000 0.26390  0.16400  0.47700  Biso   1.000  C
  C115     1.0000 0.30720  0.16000  0.52420  Biso   1.000  C
  C116     1.0000 0.28940  0.12560  0.56540  Biso   1.000  C
  H56      1.0000 0.31920  0.12200  0.59630  Biso   1.000  H
  C117     1.0000 0.22510  0.09670  0.55840  Biso   1.000  C
  H57      1.0000 0.21120  0.07540  0.58580  Biso   1.000  H
  C118     1.0000 0.18040  0.09890  0.51090  Biso   1.000  C
  C119     1.0000 0.20020  0.13400  0.47010  Biso   1.000  C
  H58      1.0000 0.17090  0.13710  0.43880  Biso   1.000  H
  C120     1.0000 0.42740  0.19580  0.55940  Biso   1.000  C
  C121     1.0000 0.45880  0.25810  0.57410  Biso   1.000  C
  H59      1.0000 0.44130  0.29990  0.55950  Biso   1.000  H
  C122     1.0000 0.51780  0.25770  0.61150  Biso   1.000  C
  H60      1.0000 0.53780  0.30060  0.62130  Biso   1.000  H
  C123     1.0000 0.54710  0.20100  0.63390  Biso   1.000  C
  C124     1.0000 0.51360  0.13700  0.61720  Biso   1.000  C
  H61      1.0000 0.53220  0.09560  0.63180  Biso   1.000  H
  C125     1.0000 0.45450  0.13270  0.58030  Biso   1.000  C
  H62      1.0000 0.43440  0.09000  0.57020  Biso   1.000  H
  C126     1.0000 0.30820  0.29990  0.32260  Biso   1.000  C
  C127     1.0000 0.11370  0.06520  0.50500  Biso   1.000  C
  C128     1.0000 0.60940  0.20610  0.67460  Biso   1.000  C
  C129     1.0000 0.44000  0.48130  0.34270  Biso   1.000  C
  H63      1.0000 0.43550  0.43840  0.35810  Biso   1.000  H
  N5       1.0000 0.30150  0.86170  0.54320  Biso   1.000  N
  N6       1.0000 0.36790  0.19250  0.52060  Biso   1.000  N
  O31      1.0000 0.44340  0.60130  0.46930  Biso   1.000  O
  O32      1.0000 0.46880  0.58020  0.55290  Biso   1.000  O
  O33      1.0000 0.21400  0.84640  0.30370  Biso   1.000  O
  O34      1.0000 0.15630  0.93940  0.31770  Biso   1.000  O
  O35      1.0000 0.21710  0.02600  0.72890  Biso   1.000  O
  O36      1.0000 0.30910  0.07900  0.72210  Biso   1.000  O
  O37      1.0000 0.34780  0.34380  0.31150  Biso   1.000  O
  O38      1.0000 0.25280  0.28240  0.29380  Biso   1.000  O
  O39      1.0000 0.07770  0.06360  0.46120  Biso   1.000  O
  O40      1.0000 0.09930  0.03810  0.54430  Biso   1.000  O
  O41      1.0000 0.63020  0.14680  0.68450  Biso   1.000  O
  O42      1.0000 0.63580  0.26170  0.68880  Biso   1.000  O
  O43      1.0000 0.44510  0.34780  0.25000  Biso   1.000  O
  O44      1.0000 0.42180  0.48520  0.29450  Biso   1.000  O
  O45      1.0000 0.46280  0.53010  0.37000  Biso   1.000  O
  Zn10     1.0000 0.98663  0.01578  0.44490  Biso   1.000  Zn
  Zn11     1.0000 0.86349  0.90722  0.25717  Biso   1.000  Zn
  Zn12     1.0000 0.71277  0.84237  0.23616  Biso   1.000  Zn
  C130     1.0000 0.84280  0.30420  0.54300  Biso   1.000  C
  C131     1.0000 0.87860  0.26600  0.58410  Biso   1.000  C
  H64      1.0000 0.87990  0.28070  0.61730  Biso   1.000  H
  C132     1.0000 0.91170  0.20670  0.57430  Biso   1.000  C
  H65      1.0000 0.93580  0.18080  0.60110  Biso   1.000  H
  C133     1.0000 0.90950  0.18430  0.52360  Biso   1.000  C
  C134     1.0000 0.87480  0.22130  0.48420  Biso   1.000  C
  H66      1.0000 0.87440  0.20660  0.45110  Biso   1.000  H
  C135     1.0000 0.83910  0.28210  0.49280  Biso   1.000  C
  C136     1.0000 0.79430  0.32790  0.46070  Biso   1.000  C
  C137     1.0000 0.77010  0.33430  0.40850  Biso   1.000  C
  H67      1.0000 0.78440  0.30320  0.38610  Biso   1.000  H
  C138     1.0000 0.72500  0.38650  0.39010  Biso   1.000  C
  C139     1.0000 0.70420  0.43460  0.42300  Biso   1.000  C
  H68      1.0000 0.67380  0.46960  0.41000  Biso   1.000  H
  C140     1.0000 0.72830  0.43060  0.47470  Biso   1.000  C
  H69      1.0000 0.71560  0.46350  0.49650  Biso   1.000  H
  C141     1.0000 0.77180  0.37670  0.49350  Biso   1.000  C
  C142     1.0000 0.79500  0.40220  0.58660  Biso   1.000  C
  C143     1.0000 0.73300  0.40700  0.60040  Biso   1.000  C
  H70      1.0000 0.69640  0.38270  0.58210  Biso   1.000  H
  C144     1.0000 0.72550  0.44730  0.64060  Biso   1.000  C
  H71      1.0000 0.68360  0.45010  0.64990  Biso   1.000  H
  C145     1.0000 0.77930  0.48430  0.66800  Biso   1.000  C
  C146     1.0000 0.84070  0.47800  0.65400  Biso   1.000  C
  H72      1.0000 0.87760  0.50210  0.67200  Biso   1.000  H
  C147     1.0000 0.84820  0.43690  0.61410  Biso   1.000  C
  H73      1.0000 0.89040  0.43260  0.60560  Biso   1.000  H
  C148     1.0000 0.94330  0.11630  0.51500  Biso   1.000  C
  C149     1.0000 0.69760  0.39220  0.33450  Biso   1.000  C
  C150     1.0000 0.76650  0.53240  0.70950  Biso   1.000  C
  C151     1.0000 0.86240  0.72040  0.47250  Biso   1.000  C
  C152     1.0000 0.90980  0.75810  0.45260  Biso   1.000  C
  H74      1.0000 0.95250  0.76680  0.47160  Biso   1.000  H
  C153     1.0000 0.89070  0.78200  0.40330  Biso   1.000  C
  H75      1.0000 0.92090  0.80830  0.38900  Biso   1.000  H
  C154     1.0000 0.82610  0.76720  0.37400  Biso   1.000  C
  C155     1.0000 0.78060  0.72870  0.39420  Biso   1.000  C
  H76      1.0000 0.73830  0.71900  0.37500  Biso   1.000  H
  C156     1.0000 0.79850  0.70430  0.44380  Biso   1.000  C
  C157     1.0000 0.76390  0.66400  0.47700  Biso   1.000  C
  C158     1.0000 0.80720  0.66000  0.52420  Biso   1.000  C
  C159     1.0000 0.78940  0.62560  0.56540  Biso   1.000  C
  H77      1.0000 0.81920  0.62200  0.59630  Biso   1.000  H
  C160     1.0000 0.72510  0.59670  0.55840  Biso   1.000  C
  H78      1.0000 0.71120  0.57540  0.58580  Biso   1.000  H
  C161     1.0000 0.68040  0.59890  0.51090  Biso   1.000  C
  C162     1.0000 0.70020  0.63400  0.47010  Biso   1.000  C
  H79      1.0000 0.67090  0.63710  0.43880  Biso   1.000  H
  C163     1.0000 0.92740  0.69580  0.55940  Biso   1.000  C
  C164     1.0000 0.95880  0.75810  0.57410  Biso   1.000  C
  H80      1.0000 0.94130  0.79990  0.55950  Biso   1.000  H
  C165     1.0000 0.01780  0.75770  0.61150  Biso   1.000  C
  H81      1.0000 0.03780  0.80060  0.62130  Biso   1.000  H
  C166     1.0000 0.04710  0.70100  0.63390  Biso   1.000  C
  C167     1.0000 0.01360  0.63700  0.61720  Biso   1.000  C
  H82      1.0000 0.03220  0.59560  0.63180  Biso   1.000  H
  C168     1.0000 0.95450  0.63270  0.58030  Biso   1.000  C
  H83      1.0000 0.93440  0.59000  0.57020  Biso   1.000  H
  C169     1.0000 0.80820  0.79990  0.32260  Biso   1.000  C
  C170     1.0000 0.61370  0.56520  0.50500  Biso   1.000  C
  C171     1.0000 0.10940  0.70610  0.67460  Biso   1.000  C
  C172     1.0000 0.94000  0.98130  0.34270  Biso   1.000  C
  H84      1.0000 0.93550  0.93840  0.35810  Biso   1.000  H
  N7       1.0000 0.80150  0.36170  0.54320  Biso   1.000  N
  N8       1.0000 0.86790  0.69250  0.52060  Biso   1.000  N
  O46      1.0000 0.94340  0.10130  0.46930  Biso   1.000  O
  O47      1.0000 0.96880  0.08020  0.55290  Biso   1.000  O
  O48      1.0000 0.71400  0.34640  0.30370  Biso   1.000  O
  O49      1.0000 0.65630  0.43940  0.31770  Biso   1.000  O
  O50      1.0000 0.71710  0.52600  0.72890  Biso   1.000  O
  O51      1.0000 0.80910  0.57900  0.72210  Biso   1.000  O
  O52      1.0000 0.84780  0.84380  0.31150  Biso   1.000  O
  O53      1.0000 0.75280  0.78240  0.29380  Biso   1.000  O
  O54      1.0000 0.57770  0.56360  0.46120  Biso   1.000  O
  O55      1.0000 0.59930  0.53810  0.54430  Biso   1.000  O
  O56      1.0000 0.13020  0.64680  0.68450  Biso   1.000  O
  O57      1.0000 0.13580  0.76170  0.68880  Biso   1.000  O
  O58      1.0000 0.94510  0.84780  0.25000  Biso   1.000  O
  O59      1.0000 0.92180  0.98520  0.29450  Biso   1.000  O
  O60      1.0000 0.96280  0.03010  0.37000  Biso   1.000  O
  Zn13     1.0000 0.48663  0.48422  0.94490  Biso   1.000  Zn
  Zn14     1.0000 0.36349  0.59278  0.75717  Biso   1.000  Zn
  Zn15     1.0000 0.21277  0.65763  0.73616  Biso   1.000  Zn
  C173     1.0000 0.34280  0.19580  0.04300  Biso   1.000  C
  C174     1.0000 0.37860  0.23400  0.08410  Biso   1.000  C
  H85      1.0000 0.37990  0.21930  0.11730  Biso   1.000  H
  C175     1.0000 0.41170  0.29330  0.07430  Biso   1.000  C
  H86      1.0000 0.43580  0.31920  0.10110  Biso   1.000  H
  C176     1.0000 0.40950  0.31570  0.02360  Biso   1.000  C
  C177     1.0000 0.37480  0.27870  0.98420  Biso   1.000  C
  H87      1.0000 0.37440  0.29340  0.95110  Biso   1.000  H
  C178     1.0000 0.33910  0.21790  0.99280  Biso   1.000  C
  C179     1.0000 0.29430  0.17210  0.96070  Biso   1.000  C
  C180     1.0000 0.27010  0.16570  0.90850  Biso   1.000  C
  H88      1.0000 0.28440  0.19680  0.88610  Biso   1.000  H
  C181     1.0000 0.22500  0.11350  0.89010  Biso   1.000  C
  C182     1.0000 0.20420  0.06540  0.92300  Biso   1.000  C
  H89      1.0000 0.17380  0.03040  0.91000  Biso   1.000  H
  C183     1.0000 0.22830  0.06940  0.97470  Biso   1.000  C
  H90      1.0000 0.21560  0.03650  0.99650  Biso   1.000  H
  C184     1.0000 0.27180  0.12330  0.99350  Biso   1.000  C
  C185     1.0000 0.29500  0.09780  0.08660  Biso   1.000  C
  C186     1.0000 0.23300  0.09300  0.10040  Biso   1.000  C
  H91      1.0000 0.19640  0.11730  0.08210  Biso   1.000  H
  C187     1.0000 0.22550  0.05270  0.14060  Biso   1.000  C
  H92      1.0000 0.18360  0.04990  0.14990  Biso   1.000  H
  C188     1.0000 0.27930  0.01570  0.16800  Biso   1.000  C
  C189     1.0000 0.34070  0.02200  0.15400  Biso   1.000  C
  H93      1.0000 0.37760  0.99790  0.17200  Biso   1.000  H
  C190     1.0000 0.34820  0.06310  0.11410  Biso   1.000  C
  H94      1.0000 0.39040  0.06740  0.10560  Biso   1.000  H
  C191     1.0000 0.44330  0.38370  0.01500  Biso   1.000  C
  C192     1.0000 0.19760  0.10780  0.83450  Biso   1.000  C
  C193     1.0000 0.26650  0.96760  0.20950  Biso   1.000  C
  C194     1.0000 0.36240  0.77960  0.97250  Biso   1.000  C
  C195     1.0000 0.40980  0.74190  0.95260  Biso   1.000  C
  H95      1.0000 0.45250  0.73320  0.97160  Biso   1.000  H
  C196     1.0000 0.39070  0.71800  0.90330  Biso   1.000  C
  H96      1.0000 0.42090  0.69170  0.88900  Biso   1.000  H
  C197     1.0000 0.32610  0.73280  0.87400  Biso   1.000  C
  C198     1.0000 0.28060  0.77130  0.89420  Biso   1.000  C
  H97      1.0000 0.23830  0.78100  0.87500  Biso   1.000  H
  C199     1.0000 0.29850  0.79570  0.94380  Biso   1.000  C
  C200     1.0000 0.26390  0.83600  0.97700  Biso   1.000  C
  C201     1.0000 0.30720  0.84000  0.02420  Biso   1.000  C
  C202     1.0000 0.28940  0.87440  0.06540  Biso   1.000  C
  H98      1.0000 0.31920  0.87800  0.09630  Biso   1.000  H
  C203     1.0000 0.22510  0.90330  0.05840  Biso   1.000  C
  H99      1.0000 0.21120  0.92460  0.08580  Biso   1.000  H
  C204     1.0000 0.18040  0.90110  0.01090  Biso   1.000  C
  C205     1.0000 0.20020  0.86600  0.97010  Biso   1.000  C
  H100     1.0000 0.17090  0.86290  0.93880  Biso   1.000  H
  C206     1.0000 0.42740  0.80420  0.05940  Biso   1.000  C
  C207     1.0000 0.45880  0.74190  0.07410  Biso   1.000  C
  H101     1.0000 0.44130  0.70010  0.05950  Biso   1.000  H
  C208     1.0000 0.51780  0.74230  0.11150  Biso   1.000  C
  H102     1.0000 0.53780  0.69940  0.12130  Biso   1.000  H
  C209     1.0000 0.54710  0.79900  0.13390  Biso   1.000  C
  C210     1.0000 0.51360  0.86300  0.11720  Biso   1.000  C
  H103     1.0000 0.53220  0.90440  0.13180  Biso   1.000  H
  C211     1.0000 0.45450  0.86730  0.08030  Biso   1.000  C
  H104     1.0000 0.43440  0.91000  0.07020  Biso   1.000  H
  C212     1.0000 0.30820  0.70010  0.82260  Biso   1.000  C
  C213     1.0000 0.11370  0.93480  0.00500  Biso   1.000  C
  C214     1.0000 0.60940  0.79390  0.17460  Biso   1.000  C
  C215     1.0000 0.44000  0.51870  0.84270  Biso   1.000  C
  H105     1.0000 0.43550  0.56160  0.85810  Biso   1.000  H
  N9       1.0000 0.30150  0.13830  0.04320  Biso   1.000  N
  N10      1.0000 0.36790  0.80750  0.02060  Biso   1.000  N
  O61      1.0000 0.44340  0.39870  0.96930  Biso   1.000  O
  O62      1.0000 0.46880  0.41980  0.05290  Biso   1.000  O
  O63      1.0000 0.21400  0.15360  0.80370  Biso   1.000  O
  O64      1.0000 0.15630  0.06060  0.81770  Biso   1.000  O
  O65      1.0000 0.21710  0.97400  0.22890  Biso   1.000  O
  O66      1.0000 0.30910  0.92100  0.22210  Biso   1.000  O
  O67      1.0000 0.34780  0.65620  0.81150  Biso   1.000  O
  O68      1.0000 0.25280  0.71760  0.79380  Biso   1.000  O
  O69      1.0000 0.07770  0.93640  0.96120  Biso   1.000  O
  O70      1.0000 0.09930  0.96190  0.04430  Biso   1.000  O
  O71      1.0000 0.63020  0.85320  0.18450  Biso   1.000  O
  O72      1.0000 0.63580  0.73830  0.18880  Biso   1.000  O
  O73      1.0000 0.44510  0.65220  0.75000  Biso   1.000  O
  O74      1.0000 0.42180  0.51480  0.79450  Biso   1.000  O
  O75      1.0000 0.46280  0.46990  0.87000  Biso   1.000  O
  Zn16     1.0000 0.98663  0.98422  0.94490  Biso   1.000  Zn
  Zn17     1.0000 0.86349  0.09278  0.75717  Biso   1.000  Zn
  Zn18     1.0000 0.71277  0.15763  0.73616  Biso   1.000  Zn
  C216     1.0000 0.84280  0.69580  0.04300  Biso   1.000  C
  C217     1.0000 0.87860  0.73400  0.08410  Biso   1.000  C
  H106     1.0000 0.87990  0.71930  0.11730  Biso   1.000  H
  C218     1.0000 0.91170  0.79330  0.07430  Biso   1.000  C
  H107     1.0000 0.93580  0.81920  0.10110  Biso   1.000  H
  C219     1.0000 0.90950  0.81570  0.02360  Biso   1.000  C
  C220     1.0000 0.87480  0.77870  0.98420  Biso   1.000  C
  H108     1.0000 0.87440  0.79340  0.95110  Biso   1.000  H
  C221     1.0000 0.83910  0.71790  0.99280  Biso   1.000  C
  C222     1.0000 0.79430  0.67210  0.96070  Biso   1.000  C
  C223     1.0000 0.77010  0.66570  0.90850  Biso   1.000  C
  H109     1.0000 0.78440  0.69680  0.88610  Biso   1.000  H
  C224     1.0000 0.72500  0.61350  0.89010  Biso   1.000  C
  C225     1.0000 0.70420  0.56540  0.92300  Biso   1.000  C
  H110     1.0000 0.67380  0.53040  0.91000  Biso   1.000  H
  C226     1.0000 0.72830  0.56940  0.97470  Biso   1.000  C
  H111     1.0000 0.71560  0.53650  0.99650  Biso   1.000  H
  C227     1.0000 0.77180  0.62330  0.99350  Biso   1.000  C
  C228     1.0000 0.79500  0.59780  0.08660  Biso   1.000  C
  C229     1.0000 0.73300  0.59300  0.10040  Biso   1.000  C
  H112     1.0000 0.69640  0.61730  0.08210  Biso   1.000  H
  C230     1.0000 0.72550  0.55270  0.14060  Biso   1.000  C
  H113     1.0000 0.68360  0.54990  0.14990  Biso   1.000  H
  C231     1.0000 0.77930  0.51570  0.16800  Biso   1.000  C
  C232     1.0000 0.84070  0.52200  0.15400  Biso   1.000  C
  H114     1.0000 0.87760  0.49790  0.17200  Biso   1.000  H
  C233     1.0000 0.84820  0.56310  0.11410  Biso   1.000  C
  H115     1.0000 0.89040  0.56740  0.10560  Biso   1.000  H
  C234     1.0000 0.94330  0.88370  0.01500  Biso   1.000  C
  C235     1.0000 0.69760  0.60780  0.83450  Biso   1.000  C
  C236     1.0000 0.76650  0.46760  0.20950  Biso   1.000  C
  C237     1.0000 0.86240  0.27960  0.97250  Biso   1.000  C
  C238     1.0000 0.90980  0.24190  0.95260  Biso   1.000  C
  H116     1.0000 0.95250  0.23320  0.97160  Biso   1.000  H
  C239     1.0000 0.89070  0.21800  0.90330  Biso   1.000  C
  H117     1.0000 0.92090  0.19170  0.88900  Biso   1.000  H
  C240     1.0000 0.82610  0.23280  0.87400  Biso   1.000  C
  C241     1.0000 0.78060  0.27130  0.89420  Biso   1.000  C
  H118     1.0000 0.73830  0.28100  0.87500  Biso   1.000  H
  C242     1.0000 0.79850  0.29570  0.94380  Biso   1.000  C
  C243     1.0000 0.76390  0.33600  0.97700  Biso   1.000  C
  C244     1.0000 0.80720  0.34000  0.02420  Biso   1.000  C
  C245     1.0000 0.78940  0.37440  0.06540  Biso   1.000  C
  H119     1.0000 0.81920  0.37800  0.09630  Biso   1.000  H
  C246     1.0000 0.72510  0.40330  0.05840  Biso   1.000  C
  H120     1.0000 0.71120  0.42460  0.08580  Biso   1.000  H
  C247     1.0000 0.68040  0.40110  0.01090  Biso   1.000  C
  C248     1.0000 0.70020  0.36600  0.97010  Biso   1.000  C
  H121     1.0000 0.67090  0.36290  0.93880  Biso   1.000  H
  C249     1.0000 0.92740  0.30420  0.05940  Biso   1.000  C
  C250     1.0000 0.95880  0.24190  0.07410  Biso   1.000  C
  H122     1.0000 0.94130  0.20010  0.05950  Biso   1.000  H
  C251     1.0000 0.01780  0.24230  0.11150  Biso   1.000  C
  H123     1.0000 0.03780  0.19940  0.12130  Biso   1.000  H
  C252     1.0000 0.04710  0.29900  0.13390  Biso   1.000  C
  C253     1.0000 0.01360  0.36300  0.11720  Biso   1.000  C
  H124     1.0000 0.03220  0.40440  0.13180  Biso   1.000  H
  C254     1.0000 0.95450  0.36730  0.08030  Biso   1.000  C
  H125     1.0000 0.93440  0.41000  0.07020  Biso   1.000  H
  C255     1.0000 0.80820  0.20010  0.82260  Biso   1.000  C
  C256     1.0000 0.61370  0.43480  0.00500  Biso   1.000  C
  C257     1.0000 0.10940  0.29390  0.17460  Biso   1.000  C
  C258     1.0000 0.94000  0.01870  0.84270  Biso   1.000  C
  H126     1.0000 0.93550  0.06160  0.85810  Biso   1.000  H
  N11      1.0000 0.80150  0.63830  0.04320  Biso   1.000  N
  N12      1.0000 0.86790  0.30750  0.02060  Biso   1.000  N
  O76      1.0000 0.94340  0.89870  0.96930  Biso   1.000  O
  O77      1.0000 0.96880  0.91980  0.05290  Biso   1.000  O
  O78      1.0000 0.71400  0.65360  0.80370  Biso   1.000  O
  O79      1.0000 0.65630  0.56060  0.81770  Biso   1.000  O
  O80      1.0000 0.71710  0.47400  0.22890  Biso   1.000  O
  O81      1.0000 0.80910  0.42100  0.22210  Biso   1.000  O
  O82      1.0000 0.84780  0.15620  0.81150  Biso   1.000  O
  O83      1.0000 0.75280  0.21760  0.79380  Biso   1.000  O
  O84      1.0000 0.57770  0.43640  0.96120  Biso   1.000  O
  O85      1.0000 0.59930  0.46190  0.04430  Biso   1.000  O
  O86      1.0000 0.13020  0.35320  0.18450  Biso   1.000  O
  O87      1.0000 0.13580  0.23830  0.18880  Biso   1.000  O
  O88      1.0000 0.94510  0.15220  0.75000  Biso   1.000  O
  O89      1.0000 0.92180  0.01480  0.79450  Biso   1.000  O
  O90      1.0000 0.96280  0.96990  0.87000  Biso   1.000  O
  Zn19     1.0000 0.51337  0.48422  0.55510  Biso   1.000  Zn
  Zn20     1.0000 0.63651  0.59278  0.74283  Biso   1.000  Zn
  Zn21     1.0000 0.78723  0.65763  0.76384  Biso   1.000  Zn
  C259     1.0000 0.65720  0.19580  0.45700  Biso   1.000  C
  C260     1.0000 0.62140  0.23400  0.41590  Biso   1.000  C
  H127     1.0000 0.62010  0.21930  0.38270  Biso   1.000  H
  C261     1.0000 0.58830  0.29330  0.42570  Biso   1.000  C
  H128     1.0000 0.56420  0.31920  0.39890  Biso   1.000  H
  C262     1.0000 0.59050  0.31570  0.47640  Biso   1.000  C
  C263     1.0000 0.62520  0.27870  0.51580  Biso   1.000  C
  H129     1.0000 0.62560  0.29340  0.54890  Biso   1.000  H
  C264     1.0000 0.66090  0.21790  0.50720  Biso   1.000  C
  C265     1.0000 0.70570  0.17210  0.53930  Biso   1.000  C
  C266     1.0000 0.72990  0.16570  0.59150  Biso   1.000  C
  H130     1.0000 0.71560  0.19680  0.61390  Biso   1.000  H
  C267     1.0000 0.77500  0.11350  0.60990  Biso   1.000  C
  C268     1.0000 0.79580  0.06540  0.57700  Biso   1.000  C
  H131     1.0000 0.82620  0.03040  0.59000  Biso   1.000  H
  C269     1.0000 0.77170  0.06940  0.52530  Biso   1.000  C
  H132     1.0000 0.78440  0.03650  0.50350  Biso   1.000  H
  C270     1.0000 0.72820  0.12330  0.50650  Biso   1.000  C
  C271     1.0000 0.70500  0.09780  0.41340  Biso   1.000  C
  C272     1.0000 0.76700  0.09300  0.39960  Biso   1.000  C
  H133     1.0000 0.80360  0.11730  0.41790  Biso   1.000  H
  C273     1.0000 0.77450  0.05270  0.35940  Biso   1.000  C
  H134     1.0000 0.81640  0.04990  0.35010  Biso   1.000  H
  C274     1.0000 0.72070  0.01570  0.33200  Biso   1.000  C
  C275     1.0000 0.65930  0.02200  0.34600  Biso   1.000  C
  H135     1.0000 0.62240  0.99790  0.32800  Biso   1.000  H
  C276     1.0000 0.65180  0.06310  0.38590  Biso   1.000  C
  H136     1.0000 0.60960  0.06740  0.39440  Biso   1.000  H
  C277     1.0000 0.55670  0.38370  0.48500  Biso   1.000  C
  C278     1.0000 0.80240  0.10780  0.66550  Biso   1.000  C
  C279     1.0000 0.73350  0.96760  0.29050  Biso   1.000  C
  C280     1.0000 0.63760  0.77960  0.52750  Biso   1.000  C
  C281     1.0000 0.59020  0.74190  0.54740  Biso   1.000  C
  H137     1.0000 0.54750  0.73320  0.52840  Biso   1.000  H
  C282     1.0000 0.60930  0.71800  0.59670  Biso   1.000  C
  H138     1.0000 0.57910  0.69170  0.61100  Biso   1.000  H
  C283     1.0000 0.67390  0.73280  0.62600  Biso   1.000  C
  C284     1.0000 0.71940  0.77130  0.60580  Biso   1.000  C
  H139     1.0000 0.76170  0.78100  0.62500  Biso   1.000  H
  C285     1.0000 0.70150  0.79570  0.55620  Biso   1.000  C
  C286     1.0000 0.73610  0.83600  0.52300  Biso   1.000  C
  C287     1.0000 0.69280  0.84000  0.47580  Biso   1.000  C
  C288     1.0000 0.71060  0.87440  0.43460  Biso   1.000  C
  H140     1.0000 0.68080  0.87800  0.40370  Biso   1.000  H
  C289     1.0000 0.77490  0.90330  0.44160  Biso   1.000  C
  H141     1.0000 0.78880  0.92460  0.41420  Biso   1.000  H
  C290     1.0000 0.81960  0.90110  0.48910  Biso   1.000  C
  C291     1.0000 0.79980  0.86600  0.52990  Biso   1.000  C
  H142     1.0000 0.82910  0.86290  0.56120  Biso   1.000  H
  C292     1.0000 0.57260  0.80420  0.44060  Biso   1.000  C
  C293     1.0000 0.54120  0.74190  0.42590  Biso   1.000  C
  H143     1.0000 0.55870  0.70010  0.44050  Biso   1.000  H
  C294     1.0000 0.48220  0.74230  0.38850  Biso   1.000  C
  H144     1.0000 0.46220  0.69940  0.37870  Biso   1.000  H
  C295     1.0000 0.45290  0.79900  0.36610  Biso   1.000  C
  C296     1.0000 0.48640  0.86300  0.38280  Biso   1.000  C
  H145     1.0000 0.46780  0.90440  0.36820  Biso   1.000  H
  C297     1.0000 0.54550  0.86730  0.41970  Biso   1.000  C
  H146     1.0000 0.56560  0.91000  0.42980  Biso   1.000  H
  C298     1.0000 0.69180  0.70010  0.67740  Biso   1.000  C
  C299     1.0000 0.88630  0.93480  0.49500  Biso   1.000  C
  C300     1.0000 0.39060  0.79390  0.32540  Biso   1.000  C
  C301     1.0000 0.56000  0.51870  0.65730  Biso   1.000  C
  H147     1.0000 0.56450  0.56160  0.64190  Biso   1.000  H
  N13      1.0000 0.69850  0.13830  0.45680  Biso   1.000  N
  N14      1.0000 0.63210  0.80750  0.47940  Biso   1.000  N
  O91      1.0000 0.55660  0.39870  0.53070  Biso   1.000  O
  O92      1.0000 0.53120  0.41980  0.44710  Biso   1.000  O
  O93      1.0000 0.78600  0.15360  0.69630  Biso   1.000  O
  O94      1.0000 0.84370  0.06060  0.68230  Biso   1.000  O
  O95      1.0000 0.78290  0.97400  0.27110  Biso   1.000  O
  O96      1.0000 0.69090  0.92100  0.27790  Biso   1.000  O
  O97      1.0000 0.65220  0.65620  0.68850  Biso   1.000  O
  O98      1.0000 0.74720  0.71760  0.70620  Biso   1.000  O
  O99      1.0000 0.92230  0.93640  0.53880  Biso   1.000  O
  O100     1.0000 0.90070  0.96190  0.45570  Biso   1.000  O
  O101     1.0000 0.36980  0.85320  0.31550  Biso   1.000  O
  O102     1.0000 0.36420  0.73830  0.31120  Biso   1.000  O
  O103     1.0000 0.55490  0.65220  0.75000  Biso   1.000  O
  O104     1.0000 0.57820  0.51480  0.70550  Biso   1.000  O
  O105     1.0000 0.53720  0.46990  0.63000  Biso   1.000  O
  Zn22     1.0000 0.01337  0.98422  0.55510  Biso   1.000  Zn
  Zn23     1.0000 0.13651  0.09278  0.74283  Biso   1.000  Zn
  Zn24     1.0000 0.28723  0.15763  0.76384  Biso   1.000  Zn
  C302     1.0000 0.15720  0.69580  0.45700  Biso   1.000  C
  C303     1.0000 0.12140  0.73400  0.41590  Biso   1.000  C
  H148     1.0000 0.12010  0.71930  0.38270  Biso   1.000  H
  C304     1.0000 0.08830  0.79330  0.42570  Biso   1.000  C
  H149     1.0000 0.06420  0.81920  0.39890  Biso   1.000  H
  C305     1.0000 0.09050  0.81570  0.47640  Biso   1.000  C
  C306     1.0000 0.12520  0.77870  0.51580  Biso   1.000  C
  H150     1.0000 0.12560  0.79340  0.54890  Biso   1.000  H
  C307     1.0000 0.16090  0.71790  0.50720  Biso   1.000  C
  C308     1.0000 0.20570  0.67210  0.53930  Biso   1.000  C
  C309     1.0000 0.22990  0.66570  0.59150  Biso   1.000  C
  H151     1.0000 0.21560  0.69680  0.61390  Biso   1.000  H
  C310     1.0000 0.27500  0.61350  0.60990  Biso   1.000  C
  C311     1.0000 0.29580  0.56540  0.57700  Biso   1.000  C
  H152     1.0000 0.32620  0.53040  0.59000  Biso   1.000  H
  C312     1.0000 0.27170  0.56940  0.52530  Biso   1.000  C
  H153     1.0000 0.28440  0.53650  0.50350  Biso   1.000  H
  C313     1.0000 0.22820  0.62330  0.50650  Biso   1.000  C
  C314     1.0000 0.20500  0.59780  0.41340  Biso   1.000  C
  C315     1.0000 0.26700  0.59300  0.39960  Biso   1.000  C
  H154     1.0000 0.30360  0.61730  0.41790  Biso   1.000  H
  C316     1.0000 0.27450  0.55270  0.35940  Biso   1.000  C
  H155     1.0000 0.31640  0.54990  0.35010  Biso   1.000  H
  C317     1.0000 0.22070  0.51570  0.33200  Biso   1.000  C
  C318     1.0000 0.15930  0.52200  0.34600  Biso   1.000  C
  H156     1.0000 0.12240  0.49790  0.32800  Biso   1.000  H
  C319     1.0000 0.15180  0.56310  0.38590  Biso   1.000  C
  H157     1.0000 0.10960  0.56740  0.39440  Biso   1.000  H
  C320     1.0000 0.05670  0.88370  0.48500  Biso   1.000  C
  C321     1.0000 0.30240  0.60780  0.66550  Biso   1.000  C
  C322     1.0000 0.23350  0.46760  0.29050  Biso   1.000  C
  C323     1.0000 0.13760  0.27960  0.52750  Biso   1.000  C
  C324     1.0000 0.09020  0.24190  0.54740  Biso   1.000  C
  H158     1.0000 0.04750  0.23320  0.52840  Biso   1.000  H
  C325     1.0000 0.10930  0.21800  0.59670  Biso   1.000  C
  H159     1.0000 0.07910  0.19170  0.61100  Biso   1.000  H
  C326     1.0000 0.17390  0.23280  0.62600  Biso   1.000  C
  C327     1.0000 0.21940  0.27130  0.60580  Biso   1.000  C
  H160     1.0000 0.26170  0.28100  0.62500  Biso   1.000  H
  C328     1.0000 0.20150  0.29570  0.55620  Biso   1.000  C
  C329     1.0000 0.23610  0.33600  0.52300  Biso   1.000  C
  C330     1.0000 0.19280  0.34000  0.47580  Biso   1.000  C
  C331     1.0000 0.21060  0.37440  0.43460  Biso   1.000  C
  H161     1.0000 0.18080  0.37800  0.40370  Biso   1.000  H
  C332     1.0000 0.27490  0.40330  0.44160  Biso   1.000  C
  H162     1.0000 0.28880  0.42460  0.41420  Biso   1.000  H
  C333     1.0000 0.31960  0.40110  0.48910  Biso   1.000  C
  C334     1.0000 0.29980  0.36600  0.52990  Biso   1.000  C
  H163     1.0000 0.32910  0.36290  0.56120  Biso   1.000  H
  C335     1.0000 0.07260  0.30420  0.44060  Biso   1.000  C
  C336     1.0000 0.04120  0.24190  0.42590  Biso   1.000  C
  H164     1.0000 0.05870  0.20010  0.44050  Biso   1.000  H
  C337     1.0000 0.98220  0.24230  0.38850  Biso   1.000  C
  H165     1.0000 0.96220  0.19940  0.37870  Biso   1.000  H
  C338     1.0000 0.95290  0.29900  0.36610  Biso   1.000  C
  C339     1.0000 0.98640  0.36300  0.38280  Biso   1.000  C
  H166     1.0000 0.96780  0.40440  0.36820  Biso   1.000  H
  C340     1.0000 0.04550  0.36730  0.41970  Biso   1.000  C
  H167     1.0000 0.06560  0.41000  0.42980  Biso   1.000  H
  C341     1.0000 0.19180  0.20010  0.67740  Biso   1.000  C
  C342     1.0000 0.38630  0.43480  0.49500  Biso   1.000  C
  C343     1.0000 0.89060  0.29390  0.32540  Biso   1.000  C
  C344     1.0000 0.06000  0.01870  0.65730  Biso   1.000  C
  H168     1.0000 0.06450  0.06160  0.64190  Biso   1.000  H
  N15      1.0000 0.19850  0.63830  0.45680  Biso   1.000  N
  N16      1.0000 0.13210  0.30750  0.47940  Biso   1.000  N
  O106     1.0000 0.05660  0.89870  0.53070  Biso   1.000  O
  O107     1.0000 0.03120  0.91980  0.44710  Biso   1.000  O
  O108     1.0000 0.28600  0.65360  0.69630  Biso   1.000  O
  O109     1.0000 0.34370  0.56060  0.68230  Biso   1.000  O
  O110     1.0000 0.28290  0.47400  0.27110  Biso   1.000  O
  O111     1.0000 0.19090  0.42100  0.27790  Biso   1.000  O
  O112     1.0000 0.15220  0.15620  0.68850  Biso   1.000  O
  O113     1.0000 0.24720  0.21760  0.70620  Biso   1.000  O
  O114     1.0000 0.42230  0.43640  0.53880  Biso   1.000  O
  O115     1.0000 0.40070  0.46190  0.45570  Biso   1.000  O
  O116     1.0000 0.86980  0.35320  0.31550  Biso   1.000  O
  O117     1.0000 0.86420  0.23830  0.31120  Biso   1.000  O
  O118     1.0000 0.05490  0.15220  0.75000  Biso   1.000  O
  O119     1.0000 0.07820  0.01480  0.70550  Biso   1.000  O
  O120     1.0000 0.03720  0.96990  0.63000  Biso   1.000  O
  C345     1.0000 0.50000  0.37440  0.25000  Biso   1.000  C
  H169     1.0000 0.50000  0.42310  0.25000  Biso   1.000  H
  C346     1.0000 0.00000  0.87440  0.25000  Biso   1.000  C
  H170     1.0000 0.00000  0.92310  0.25000  Biso   1.000  H
  C347     1.0000 0.50000  0.62560  0.75000  Biso   1.000  C
  H171     1.0000 0.50000  0.57690  0.75000  Biso   1.000  H
  C348     1.0000 0.00000  0.12560  0.75000  Biso   1.000  C
  H172     1.0000 0.00000  0.07690  0.75000  Biso   1.000  H
