data_image0
_cell_length_a       7.0809
_cell_length_b       38.7664
_cell_length_c       39.2286
_cell_angle_alpha    90
_cell_angle_beta     90
_cell_angle_gamma    90

_symmetry_space_group_name_H-M    "P 1"
_symmetry_int_tables_number       1

loop_
  _symmetry_equiv_pos_as_xyz
  'x, y, z'

loop_
  _atom_site_label
  _atom_site_occupancy
  _atom_site_fract_x
  _atom_site_fract_y
  _atom_site_fract_z
  _atom_site_thermal_displace_type
  _atom_site_B_iso_or_equiv
  _atom_site_type_symbol
  Al1      1.0000 0.57050  0.61913  0.49959  Biso   1.000  Al
  Cl1      1.0000 0.31870  0.59295  0.47543  Biso   1.000  Cl
  Cl2      1.0000 0.82680  0.64411  0.52467  Biso   1.000  Cl
  N1       1.0000 0.45030  0.66682  0.49238  Biso   1.000  N
  C1       1.0000 0.55220  0.69430  0.48260  Biso   1.000  C
  H1       1.0000 0.68060  0.69090  0.47640  Biso   1.000  H
  C2       1.0000 0.47880  0.72690  0.48120  Biso   1.000  C
  H2       1.0000 0.55530  0.74570  0.47400  Biso   1.000  H
  C3       1.0000 0.29100  0.73250  0.49050  Biso   1.000  C
  C4       1.0000 0.18410  0.70410  0.49990  Biso   1.000  C
  H3       1.0000 0.05470  0.70670  0.50580  Biso   1.000  H
  C5       1.0000 0.26850  0.67210  0.50050  Biso   1.000  C
  H4       1.0000 0.19430  0.65280  0.50710  Biso   1.000  H
  N2       1.0000 0.69400  0.57166  0.50533  Biso   1.000  N
  C6       1.0000 0.79620  0.56370  0.53330  Biso   1.000  C
  H5       1.0000 0.78760  0.57840  0.55260  Biso   1.000  H
  C7       1.0000 0.91140  0.53550  0.53520  Biso   1.000  C
  H6       1.0000 0.97650  0.53030  0.55570  Biso   1.000  H
  C8       1.0000 0.93230  0.51440  0.50660  Biso   1.000  C
  C9       1.0000 0.81970  0.52180  0.47850  Biso   1.000  C
  H7       1.0000 0.82380  0.50720  0.45910  Biso   1.000  H
  C10      1.0000 0.70320  0.54990  0.47870  Biso   1.000  C
  H8       1.0000 0.62600  0.55420  0.45940  Biso   1.000  H
  N3       1.0000 0.69950  0.62430  0.45274  Biso   1.000  N
  C11      1.0000 0.60760  0.63550  0.42500  Biso   1.000  C
  H9       1.0000 0.47740  0.64110  0.42680  Biso   1.000  H
  C12      1.0000 0.69690  0.63910  0.39330  Biso   1.000  C
  H10      1.0000 0.63050  0.64840  0.37440  Biso   1.000  H
  C13      1.0000 0.88210  0.62890  0.39000  Biso   1.000  C
  C14      1.0000 0.97620  0.61720  0.41900  Biso   1.000  C
  H11      1.0000 0.10520  0.61060  0.41760  Biso   1.000  H
  C15      1.0000 0.88260  0.61510  0.44950  Biso   1.000  C
  H12      1.0000 0.94850  0.60690  0.46900  Biso   1.000  H
  N4       1.0000 0.19160  0.63299  0.29647  Biso   1.000  N
  C16      1.0000 0.08380  0.65960  0.30650  Biso   1.000  C
  H13      1.0000 0.07900  0.67960  0.29260  Biso   1.000  H
  C17      1.0000 0.97980  0.65920  0.33620  Biso   1.000  C
  H14      1.0000 0.90300  0.67840  0.34200  Biso   1.000  H
  C18      1.0000 0.98780  0.63040  0.35760  Biso   1.000  C
  C19      1.0000 0.10170  0.60290  0.34800  Biso   1.000  C
  H15      1.0000 0.11180  0.58300  0.36190  Biso   1.000  H
  C20      1.0000 0.20160  0.60550  0.31720  Biso   1.000  C
  H16      1.0000 0.28030  0.58670  0.31070  Biso   1.000  H
  Al2      1.0000 0.57050  0.11913  0.99959  Biso   1.000  Al
  Cl3      1.0000 0.31870  0.09295  0.97543  Biso   1.000  Cl
  Cl4      1.0000 0.82680  0.14411  0.02467  Biso   1.000  Cl
  N5       1.0000 0.45030  0.16682  0.99238  Biso   1.000  N
  C21      1.0000 0.55220  0.19430  0.98260  Biso   1.000  C
  H17      1.0000 0.68060  0.19090  0.97640  Biso   1.000  H
  C22      1.0000 0.47880  0.22690  0.98120  Biso   1.000  C
  H18      1.0000 0.55530  0.24570  0.97400  Biso   1.000  H
  C23      1.0000 0.29100  0.23250  0.99050  Biso   1.000  C
  C24      1.0000 0.18410  0.20410  0.99990  Biso   1.000  C
  H19      1.0000 0.05470  0.20670  0.00580  Biso   1.000  H
  C25      1.0000 0.26850  0.17210  0.00050  Biso   1.000  C
  H20      1.0000 0.19430  0.15280  0.00710  Biso   1.000  H
  N6       1.0000 0.69400  0.07166  0.00533  Biso   1.000  N
  C26      1.0000 0.79620  0.06370  0.03330  Biso   1.000  C
  H21      1.0000 0.78760  0.07840  0.05260  Biso   1.000  H
  C27      1.0000 0.91140  0.03550  0.03520  Biso   1.000  C
  H22      1.0000 0.97650  0.03030  0.05570  Biso   1.000  H
  C28      1.0000 0.93230  0.01440  0.00660  Biso   1.000  C
  C29      1.0000 0.81970  0.02180  0.97850  Biso   1.000  C
  H23      1.0000 0.82380  0.00720  0.95910  Biso   1.000  H
  C30      1.0000 0.70320  0.04990  0.97870  Biso   1.000  C
  H24      1.0000 0.62600  0.05420  0.95940  Biso   1.000  H
  N7       1.0000 0.69950  0.12430  0.95274  Biso   1.000  N
  C31      1.0000 0.60760  0.13550  0.92500  Biso   1.000  C
  H25      1.0000 0.47740  0.14110  0.92680  Biso   1.000  H
  C32      1.0000 0.69690  0.13910  0.89330  Biso   1.000  C
  H26      1.0000 0.63050  0.14840  0.87440  Biso   1.000  H
  C33      1.0000 0.88210  0.12890  0.89000  Biso   1.000  C
  C34      1.0000 0.97620  0.11720  0.91900  Biso   1.000  C
  H27      1.0000 0.10520  0.11060  0.91760  Biso   1.000  H
  C35      1.0000 0.88260  0.11510  0.94950  Biso   1.000  C
  H28      1.0000 0.94850  0.10690  0.96900  Biso   1.000  H
  N8       1.0000 0.19160  0.13299  0.79647  Biso   1.000  N
  C36      1.0000 0.08380  0.15960  0.80650  Biso   1.000  C
  H29      1.0000 0.07900  0.17960  0.79260  Biso   1.000  H
  C37      1.0000 0.97980  0.15920  0.83620  Biso   1.000  C
  H30      1.0000 0.90300  0.17840  0.84200  Biso   1.000  H
  C38      1.0000 0.98780  0.13040  0.85760  Biso   1.000  C
  C39      1.0000 0.10170  0.10290  0.84800  Biso   1.000  C
  H31      1.0000 0.11180  0.08300  0.86190  Biso   1.000  H
  C40      1.0000 0.20160  0.10550  0.81720  Biso   1.000  C
  H32      1.0000 0.28030  0.08670  0.81070  Biso   1.000  H
  Al3      1.0000 0.07050  0.61913  0.99959  Biso   1.000  Al
  Cl5      1.0000 0.81870  0.59295  0.97543  Biso   1.000  Cl
  Cl6      1.0000 0.32680  0.64411  0.02467  Biso   1.000  Cl
  N9       1.0000 0.95030  0.66682  0.99238  Biso   1.000  N
  C41      1.0000 0.05220  0.69430  0.98260  Biso   1.000  C
  H33      1.0000 0.18060  0.69090  0.97640  Biso   1.000  H
  C42      1.0000 0.97880  0.72690  0.98120  Biso   1.000  C
  H34      1.0000 0.05530  0.74570  0.97400  Biso   1.000  H
  C43      1.0000 0.79100  0.73250  0.99050  Biso   1.000  C
  C44      1.0000 0.68410  0.70410  0.99990  Biso   1.000  C
  H35      1.0000 0.55470  0.70670  0.00580  Biso   1.000  H
  C45      1.0000 0.76850  0.67210  0.00050  Biso   1.000  C
  H36      1.0000 0.69430  0.65280  0.00710  Biso   1.000  H
  N10      1.0000 0.19400  0.57166  0.00533  Biso   1.000  N
  C46      1.0000 0.29620  0.56370  0.03330  Biso   1.000  C
  H37      1.0000 0.28760  0.57840  0.05260  Biso   1.000  H
  C47      1.0000 0.41140  0.53550  0.03520  Biso   1.000  C
  H38      1.0000 0.47650  0.53030  0.05570  Biso   1.000  H
  C48      1.0000 0.43230  0.51440  0.00660  Biso   1.000  C
  C49      1.0000 0.31970  0.52180  0.97850  Biso   1.000  C
  H39      1.0000 0.32380  0.50720  0.95910  Biso   1.000  H
  C50      1.0000 0.20320  0.54990  0.97870  Biso   1.000  C
  H40      1.0000 0.12600  0.55420  0.95940  Biso   1.000  H
  N11      1.0000 0.19950  0.62430  0.95274  Biso   1.000  N
  C51      1.0000 0.10760  0.63550  0.92500  Biso   1.000  C
  H41      1.0000 0.97740  0.64110  0.92680  Biso   1.000  H
  C52      1.0000 0.19690  0.63910  0.89330  Biso   1.000  C
  H42      1.0000 0.13050  0.64840  0.87440  Biso   1.000  H
  C53      1.0000 0.38210  0.62890  0.89000  Biso   1.000  C
  C54      1.0000 0.47620  0.61720  0.91900  Biso   1.000  C
  H43      1.0000 0.60520  0.61060  0.91760  Biso   1.000  H
  C55      1.0000 0.38260  0.61510  0.94950  Biso   1.000  C
  H44      1.0000 0.44850  0.60690  0.96900  Biso   1.000  H
  N12      1.0000 0.69160  0.63299  0.79647  Biso   1.000  N
  C56      1.0000 0.58380  0.65960  0.80650  Biso   1.000  C
  H45      1.0000 0.57900  0.67960  0.79260  Biso   1.000  H
  C57      1.0000 0.47980  0.65920  0.83620  Biso   1.000  C
  H46      1.0000 0.40300  0.67840  0.84200  Biso   1.000  H
  C58      1.0000 0.48780  0.63040  0.85760  Biso   1.000  C
  C59      1.0000 0.60170  0.60290  0.84800  Biso   1.000  C
  H47      1.0000 0.61180  0.58300  0.86190  Biso   1.000  H
  C60      1.0000 0.70160  0.60550  0.81720  Biso   1.000  C
  H48      1.0000 0.78030  0.58670  0.81070  Biso   1.000  H
  Al4      1.0000 0.07050  0.11913  0.49959  Biso   1.000  Al
  Cl7      1.0000 0.81870  0.09295  0.47543  Biso   1.000  Cl
  Cl8      1.0000 0.32680  0.14411  0.52467  Biso   1.000  Cl
  N13      1.0000 0.95030  0.16682  0.49238  Biso   1.000  N
  C61      1.0000 0.05220  0.19430  0.48260  Biso   1.000  C
  H49      1.0000 0.18060  0.19090  0.47640  Biso   1.000  H
  C62      1.0000 0.97880  0.22690  0.48120  Biso   1.000  C
  H50      1.0000 0.05530  0.24570  0.47400  Biso   1.000  H
  C63      1.0000 0.79100  0.23250  0.49050  Biso   1.000  C
  C64      1.0000 0.68410  0.20410  0.49990  Biso   1.000  C
  H51      1.0000 0.55470  0.20670  0.50580  Biso   1.000  H
  C65      1.0000 0.76850  0.17210  0.50050  Biso   1.000  C
  H52      1.0000 0.69430  0.15280  0.50710  Biso   1.000  H
  N14      1.0000 0.19400  0.07166  0.50533  Biso   1.000  N
  C66      1.0000 0.29620  0.06370  0.53330  Biso   1.000  C
  H53      1.0000 0.28760  0.07840  0.55260  Biso   1.000  H
  C67      1.0000 0.41140  0.03550  0.53520  Biso   1.000  C
  H54      1.0000 0.47650  0.03030  0.55570  Biso   1.000  H
  C68      1.0000 0.43230  0.01440  0.50660  Biso   1.000  C
  C69      1.0000 0.31970  0.02180  0.47850  Biso   1.000  C
  H55      1.0000 0.32380  0.00720  0.45910  Biso   1.000  H
  C70      1.0000 0.20320  0.04990  0.47870  Biso   1.000  C
  H56      1.0000 0.12600  0.05420  0.45940  Biso   1.000  H
  N15      1.0000 0.19950  0.12430  0.45274  Biso   1.000  N
  C71      1.0000 0.10760  0.13550  0.42500  Biso   1.000  C
  H57      1.0000 0.97740  0.14110  0.42680  Biso   1.000  H
  C72      1.0000 0.19690  0.13910  0.39330  Biso   1.000  C
  H58      1.0000 0.13050  0.14840  0.37440  Biso   1.000  H
  C73      1.0000 0.38210  0.12890  0.39000  Biso   1.000  C
  C74      1.0000 0.47620  0.11720  0.41900  Biso   1.000  C
  H59      1.0000 0.60520  0.11060  0.41760  Biso   1.000  H
  C75      1.0000 0.38260  0.11510  0.44950  Biso   1.000  C
  H60      1.0000 0.44850  0.10690  0.46900  Biso   1.000  H
  N16      1.0000 0.69160  0.13299  0.29647  Biso   1.000  N
  C76      1.0000 0.58380  0.15960  0.30650  Biso   1.000  C
  H61      1.0000 0.57900  0.17960  0.29260  Biso   1.000  H
  C77      1.0000 0.47980  0.15920  0.33620  Biso   1.000  C
  H62      1.0000 0.40300  0.17840  0.34200  Biso   1.000  H
  C78      1.0000 0.48780  0.13040  0.35760  Biso   1.000  C
  C79      1.0000 0.60170  0.10290  0.34800  Biso   1.000  C
  H63      1.0000 0.61180  0.08300  0.36190  Biso   1.000  H
  C80      1.0000 0.70160  0.10550  0.31720  Biso   1.000  C
  H64      1.0000 0.78030  0.08670  0.31070  Biso   1.000  H
  Al5      1.0000 0.42950  0.38087  0.49959  Biso   1.000  Al
  Cl9      1.0000 0.68130  0.40705  0.47543  Biso   1.000  Cl
  Cl10     1.0000 0.17320  0.35589  0.52467  Biso   1.000  Cl
  N17      1.0000 0.54970  0.33318  0.49238  Biso   1.000  N
  C81      1.0000 0.44780  0.30570  0.48260  Biso   1.000  C
  H65      1.0000 0.31940  0.30910  0.47640  Biso   1.000  H
  C82      1.0000 0.52120  0.27310  0.48120  Biso   1.000  C
  H66      1.0000 0.44470  0.25430  0.47400  Biso   1.000  H
  C83      1.0000 0.70900  0.26750  0.49050  Biso   1.000  C
  C84      1.0000 0.81590  0.29590  0.49990  Biso   1.000  C
  H67      1.0000 0.94530  0.29330  0.50580  Biso   1.000  H
  C85      1.0000 0.73150  0.32790  0.50050  Biso   1.000  C
  H68      1.0000 0.80570  0.34720  0.50710  Biso   1.000  H
  N18      1.0000 0.30600  0.42834  0.50533  Biso   1.000  N
  C86      1.0000 0.20380  0.43630  0.53330  Biso   1.000  C
  H69      1.0000 0.21240  0.42160  0.55260  Biso   1.000  H
  C87      1.0000 0.08860  0.46450  0.53520  Biso   1.000  C
  H70      1.0000 0.02350  0.46970  0.55570  Biso   1.000  H
  C88      1.0000 0.06770  0.48560  0.50660  Biso   1.000  C
  C89      1.0000 0.18030  0.47820  0.47850  Biso   1.000  C
  H71      1.0000 0.17620  0.49280  0.45910  Biso   1.000  H
  C90      1.0000 0.29680  0.45010  0.47870  Biso   1.000  C
  H72      1.0000 0.37400  0.44580  0.45940  Biso   1.000  H
  N19      1.0000 0.30050  0.37570  0.45274  Biso   1.000  N
  C91      1.0000 0.39240  0.36450  0.42500  Biso   1.000  C
  H73      1.0000 0.52260  0.35890  0.42680  Biso   1.000  H
  C92      1.0000 0.30310  0.36090  0.39330  Biso   1.000  C
  H74      1.0000 0.36950  0.35160  0.37440  Biso   1.000  H
  C93      1.0000 0.11790  0.37110  0.39000  Biso   1.000  C
  C94      1.0000 0.02380  0.38280  0.41900  Biso   1.000  C
  H75      1.0000 0.89480  0.38940  0.41760  Biso   1.000  H
  C95      1.0000 0.11740  0.38490  0.44950  Biso   1.000  C
  H76      1.0000 0.05150  0.39310  0.46900  Biso   1.000  H
  N20      1.0000 0.80840  0.36701  0.29647  Biso   1.000  N
  C96      1.0000 0.91620  0.34040  0.30650  Biso   1.000  C
  H77      1.0000 0.92100  0.32040  0.29260  Biso   1.000  H
  C97      1.0000 0.02020  0.34080  0.33620  Biso   1.000  C
  H78      1.0000 0.09700  0.32160  0.34200  Biso   1.000  H
  C98      1.0000 0.01220  0.36960  0.35760  Biso   1.000  C
  C99      1.0000 0.89830  0.39710  0.34800  Biso   1.000  C
  H79      1.0000 0.88820  0.41700  0.36190  Biso   1.000  H
  C100     1.0000 0.79840  0.39450  0.31720  Biso   1.000  C
  H80      1.0000 0.71970  0.41330  0.31070  Biso   1.000  H
  Al6      1.0000 0.42950  0.88087  0.99959  Biso   1.000  Al
  Cl11     1.0000 0.68130  0.90705  0.97543  Biso   1.000  Cl
  Cl12     1.0000 0.17320  0.85589  0.02467  Biso   1.000  Cl
  N21      1.0000 0.54970  0.83318  0.99238  Biso   1.000  N
  C101     1.0000 0.44780  0.80570  0.98260  Biso   1.000  C
  H81      1.0000 0.31940  0.80910  0.97640  Biso   1.000  H
  C102     1.0000 0.52120  0.77310  0.98120  Biso   1.000  C
  H82      1.0000 0.44470  0.75430  0.97400  Biso   1.000  H
  C103     1.0000 0.70900  0.76750  0.99050  Biso   1.000  C
  C104     1.0000 0.81590  0.79590  0.99990  Biso   1.000  C
  H83      1.0000 0.94530  0.79330  0.00580  Biso   1.000  H
  C105     1.0000 0.73150  0.82790  0.00050  Biso   1.000  C
  H84      1.0000 0.80570  0.84720  0.00710  Biso   1.000  H
  N22      1.0000 0.30600  0.92834  0.00533  Biso   1.000  N
  C106     1.0000 0.20380  0.93630  0.03330  Biso   1.000  C
  H85      1.0000 0.21240  0.92160  0.05260  Biso   1.000  H
  C107     1.0000 0.08860  0.96450  0.03520  Biso   1.000  C
  H86      1.0000 0.02350  0.96970  0.05570  Biso   1.000  H
  C108     1.0000 0.06770  0.98560  0.00660  Biso   1.000  C
  C109     1.0000 0.18030  0.97820  0.97850  Biso   1.000  C
  H87      1.0000 0.17620  0.99280  0.95910  Biso   1.000  H
  C110     1.0000 0.29680  0.95010  0.97870  Biso   1.000  C
  H88      1.0000 0.37400  0.94580  0.95940  Biso   1.000  H
  N23      1.0000 0.30050  0.87570  0.95274  Biso   1.000  N
  C111     1.0000 0.39240  0.86450  0.92500  Biso   1.000  C
  H89      1.0000 0.52260  0.85890  0.92680  Biso   1.000  H
  C112     1.0000 0.30310  0.86090  0.89330  Biso   1.000  C
  H90      1.0000 0.36950  0.85160  0.87440  Biso   1.000  H
  C113     1.0000 0.11790  0.87110  0.89000  Biso   1.000  C
  C114     1.0000 0.02380  0.88280  0.91900  Biso   1.000  C
  H91      1.0000 0.89480  0.88940  0.91760  Biso   1.000  H
  C115     1.0000 0.11740  0.88490  0.94950  Biso   1.000  C
  H92      1.0000 0.05150  0.89310  0.96900  Biso   1.000  H
  N24      1.0000 0.80840  0.86701  0.79647  Biso   1.000  N
  C116     1.0000 0.91620  0.84040  0.80650  Biso   1.000  C
  H93      1.0000 0.92100  0.82040  0.79260  Biso   1.000  H
  C117     1.0000 0.02020  0.84080  0.83620  Biso   1.000  C
  H94      1.0000 0.09700  0.82160  0.84200  Biso   1.000  H
  C118     1.0000 0.01220  0.86960  0.85760  Biso   1.000  C
  C119     1.0000 0.89830  0.89710  0.84800  Biso   1.000  C
  H95      1.0000 0.88820  0.91700  0.86190  Biso   1.000  H
  C120     1.0000 0.79840  0.89450  0.81720  Biso   1.000  C
  H96      1.0000 0.71970  0.91330  0.81070  Biso   1.000  H
  Al7      1.0000 0.92950  0.38087  0.99959  Biso   1.000  Al
  Cl13     1.0000 0.18130  0.40705  0.97543  Biso   1.000  Cl
  Cl14     1.0000 0.67320  0.35589  0.02467  Biso   1.000  Cl
  N25      1.0000 0.04970  0.33318  0.99238  Biso   1.000  N
  C121     1.0000 0.94780  0.30570  0.98260  Biso   1.000  C
  H97      1.0000 0.81940  0.30910  0.97640  Biso   1.000  H
  C122     1.0000 0.02120  0.27310  0.98120  Biso   1.000  C
  H98      1.0000 0.94470  0.25430  0.97400  Biso   1.000  H
  C123     1.0000 0.20900  0.26750  0.99050  Biso   1.000  C
  C124     1.0000 0.31590  0.29590  0.99990  Biso   1.000  C
  H99      1.0000 0.44530  0.29330  0.00580  Biso   1.000  H
  C125     1.0000 0.23150  0.32790  0.00050  Biso   1.000  C
  H100     1.0000 0.30570  0.34720  0.00710  Biso   1.000  H
  N26      1.0000 0.80600  0.42834  0.00533  Biso   1.000  N
  C126     1.0000 0.70380  0.43630  0.03330  Biso   1.000  C
  H101     1.0000 0.71240  0.42160  0.05260  Biso   1.000  H
  C127     1.0000 0.58860  0.46450  0.03520  Biso   1.000  C
  H102     1.0000 0.52350  0.46970  0.05570  Biso   1.000  H
  C128     1.0000 0.56770  0.48560  0.00660  Biso   1.000  C
  C129     1.0000 0.68030  0.47820  0.97850  Biso   1.000  C
  H103     1.0000 0.67620  0.49280  0.95910  Biso   1.000  H
  C130     1.0000 0.79680  0.45010  0.97870  Biso   1.000  C
  H104     1.0000 0.87400  0.44580  0.95940  Biso   1.000  H
  N27      1.0000 0.80050  0.37570  0.95274  Biso   1.000  N
  C131     1.0000 0.89240  0.36450  0.92500  Biso   1.000  C
  H105     1.0000 0.02260  0.35890  0.92680  Biso   1.000  H
  C132     1.0000 0.80310  0.36090  0.89330  Biso   1.000  C
  H106     1.0000 0.86950  0.35160  0.87440  Biso   1.000  H
  C133     1.0000 0.61790  0.37110  0.89000  Biso   1.000  C
  C134     1.0000 0.52380  0.38280  0.91900  Biso   1.000  C
  H107     1.0000 0.39480  0.38940  0.91760  Biso   1.000  H
  C135     1.0000 0.61740  0.38490  0.94950  Biso   1.000  C
  H108     1.0000 0.55150  0.39310  0.96900  Biso   1.000  H
  N28      1.0000 0.30840  0.36701  0.79647  Biso   1.000  N
  C136     1.0000 0.41620  0.34040  0.80650  Biso   1.000  C
  H109     1.0000 0.42100  0.32040  0.79260  Biso   1.000  H
  C137     1.0000 0.52020  0.34080  0.83620  Biso   1.000  C
  H110     1.0000 0.59700  0.32160  0.84200  Biso   1.000  H
  C138     1.0000 0.51220  0.36960  0.85760  Biso   1.000  C
  C139     1.0000 0.39830  0.39710  0.84800  Biso   1.000  C
  H111     1.0000 0.38820  0.41700  0.86190  Biso   1.000  H
  C140     1.0000 0.29840  0.39450  0.81720  Biso   1.000  C
  H112     1.0000 0.21970  0.41330  0.81070  Biso   1.000  H
  Al8      1.0000 0.92950  0.88087  0.49959  Biso   1.000  Al
  Cl15     1.0000 0.18130  0.90705  0.47543  Biso   1.000  Cl
  Cl16     1.0000 0.67320  0.85589  0.52467  Biso   1.000  Cl
  N29      1.0000 0.04970  0.83318  0.49238  Biso   1.000  N
  C141     1.0000 0.94780  0.80570  0.48260  Biso   1.000  C
  H113     1.0000 0.81940  0.80910  0.47640  Biso   1.000  H
  C142     1.0000 0.02120  0.77310  0.48120  Biso   1.000  C
  H114     1.0000 0.94470  0.75430  0.47400  Biso   1.000  H
  C143     1.0000 0.20900  0.76750  0.49050  Biso   1.000  C
  C144     1.0000 0.31590  0.79590  0.49990  Biso   1.000  C
  H115     1.0000 0.44530  0.79330  0.50580  Biso   1.000  H
  C145     1.0000 0.23150  0.82790  0.50050  Biso   1.000  C
  H116     1.0000 0.30570  0.84720  0.50710  Biso   1.000  H
  N30      1.0000 0.80600  0.92834  0.50533  Biso   1.000  N
  C146     1.0000 0.70380  0.93630  0.53330  Biso   1.000  C
  H117     1.0000 0.71240  0.92160  0.55260  Biso   1.000  H
  C147     1.0000 0.58860  0.96450  0.53520  Biso   1.000  C
  H118     1.0000 0.52350  0.96970  0.55570  Biso   1.000  H
  C148     1.0000 0.56770  0.98560  0.50660  Biso   1.000  C
  C149     1.0000 0.68030  0.97820  0.47850  Biso   1.000  C
  H119     1.0000 0.67620  0.99280  0.45910  Biso   1.000  H
  C150     1.0000 0.79680  0.95010  0.47870  Biso   1.000  C
  H120     1.0000 0.87400  0.94580  0.45940  Biso   1.000  H
  N31      1.0000 0.80050  0.87570  0.45274  Biso   1.000  N
  C151     1.0000 0.89240  0.86450  0.42500  Biso   1.000  C
  H121     1.0000 0.02260  0.85890  0.42680  Biso   1.000  H
  C152     1.0000 0.80310  0.86090  0.39330  Biso   1.000  C
  H122     1.0000 0.86950  0.85160  0.37440  Biso   1.000  H
  C153     1.0000 0.61790  0.87110  0.39000  Biso   1.000  C
  C154     1.0000 0.52380  0.88280  0.41900  Biso   1.000  C
  H123     1.0000 0.39480  0.88940  0.41760  Biso   1.000  H
  C155     1.0000 0.61740  0.88490  0.44950  Biso   1.000  C
  H124     1.0000 0.55150  0.89310  0.46900  Biso   1.000  H
  N32      1.0000 0.30840  0.86701  0.29647  Biso   1.000  N
  C156     1.0000 0.41620  0.84040  0.30650  Biso   1.000  C
  H125     1.0000 0.42100  0.82040  0.29260  Biso   1.000  H
  C157     1.0000 0.52020  0.84080  0.33620  Biso   1.000  C
  H126     1.0000 0.59700  0.82160  0.34200  Biso   1.000  H
  C158     1.0000 0.51220  0.86960  0.35760  Biso   1.000  C
  C159     1.0000 0.39830  0.89710  0.34800  Biso   1.000  C
  H127     1.0000 0.38820  0.91700  0.36190  Biso   1.000  H
  C160     1.0000 0.29840  0.89450  0.31720  Biso   1.000  C
  H128     1.0000 0.21970  0.91330  0.31070  Biso   1.000  H
  Al9      1.0000 0.82050  0.63087  0.74959  Biso   1.000  Al
  Cl17     1.0000 0.56870  0.65705  0.72543  Biso   1.000  Cl
  Cl18     1.0000 0.07680  0.60589  0.77467  Biso   1.000  Cl
  N33      1.0000 0.70030  0.58318  0.74238  Biso   1.000  N
  C161     1.0000 0.80220  0.55570  0.73260  Biso   1.000  C
  H129     1.0000 0.93060  0.55910  0.72640  Biso   1.000  H
  C162     1.0000 0.72880  0.52310  0.73120  Biso   1.000  C
  H130     1.0000 0.80530  0.50430  0.72400  Biso   1.000  H
  C163     1.0000 0.54100  0.51750  0.74050  Biso   1.000  C
  C164     1.0000 0.43410  0.54590  0.74990  Biso   1.000  C
  H131     1.0000 0.30470  0.54330  0.75580  Biso   1.000  H
  C165     1.0000 0.51850  0.57790  0.75050  Biso   1.000  C
  H132     1.0000 0.44430  0.59720  0.75710  Biso   1.000  H
  N34      1.0000 0.94400  0.67834  0.75533  Biso   1.000  N
  C166     1.0000 0.04620  0.68630  0.78330  Biso   1.000  C
  H133     1.0000 0.03760  0.67160  0.80260  Biso   1.000  H
  C167     1.0000 0.16140  0.71450  0.78520  Biso   1.000  C
  H134     1.0000 0.22650  0.71970  0.80570  Biso   1.000  H
  C168     1.0000 0.18230  0.73560  0.75660  Biso   1.000  C
  C169     1.0000 0.06970  0.72820  0.72850  Biso   1.000  C
  H135     1.0000 0.07380  0.74280  0.70910  Biso   1.000  H
  C170     1.0000 0.95320  0.70010  0.72870  Biso   1.000  C
  H136     1.0000 0.87600  0.69580  0.70940  Biso   1.000  H
  N35      1.0000 0.94950  0.62570  0.70274  Biso   1.000  N
  C171     1.0000 0.85760  0.61450  0.67500  Biso   1.000  C
  H137     1.0000 0.72740  0.60890  0.67680  Biso   1.000  H
  C172     1.0000 0.94690  0.61090  0.64330  Biso   1.000  C
  H138     1.0000 0.88050  0.60160  0.62440  Biso   1.000  H
  C173     1.0000 0.13210  0.62110  0.64000  Biso   1.000  C
  C174     1.0000 0.22620  0.63280  0.66900  Biso   1.000  C
  H139     1.0000 0.35520  0.63940  0.66760  Biso   1.000  H
  C175     1.0000 0.13260  0.63490  0.69950  Biso   1.000  C
  H140     1.0000 0.19850  0.64310  0.71900  Biso   1.000  H
  N36      1.0000 0.44160  0.61701  0.54647  Biso   1.000  N
  C176     1.0000 0.33380  0.59040  0.55650  Biso   1.000  C
  H141     1.0000 0.32900  0.57040  0.54260  Biso   1.000  H
  C177     1.0000 0.22980  0.59080  0.58620  Biso   1.000  C
  H142     1.0000 0.15300  0.57160  0.59200  Biso   1.000  H
  C178     1.0000 0.23780  0.61960  0.60760  Biso   1.000  C
  C179     1.0000 0.35170  0.64710  0.59800  Biso   1.000  C
  H143     1.0000 0.36180  0.66700  0.61190  Biso   1.000  H
  C180     1.0000 0.45160  0.64450  0.56720  Biso   1.000  C
  H144     1.0000 0.53030  0.66330  0.56070  Biso   1.000  H
  Al10     1.0000 0.82050  0.13087  0.24959  Biso   1.000  Al
  Cl19     1.0000 0.56870  0.15705  0.22543  Biso   1.000  Cl
  Cl20     1.0000 0.07680  0.10589  0.27467  Biso   1.000  Cl
  N37      1.0000 0.70030  0.08318  0.24238  Biso   1.000  N
  C181     1.0000 0.80220  0.05570  0.23260  Biso   1.000  C
  H145     1.0000 0.93060  0.05910  0.22640  Biso   1.000  H
  C182     1.0000 0.72880  0.02310  0.23120  Biso   1.000  C
  H146     1.0000 0.80530  0.00430  0.22400  Biso   1.000  H
  C183     1.0000 0.54100  0.01750  0.24050  Biso   1.000  C
  C184     1.0000 0.43410  0.04590  0.24990  Biso   1.000  C
  H147     1.0000 0.30470  0.04330  0.25580  Biso   1.000  H
  C185     1.0000 0.51850  0.07790  0.25050  Biso   1.000  C
  H148     1.0000 0.44430  0.09720  0.25710  Biso   1.000  H
  N38      1.0000 0.94400  0.17834  0.25533  Biso   1.000  N
  C186     1.0000 0.04620  0.18630  0.28330  Biso   1.000  C
  H149     1.0000 0.03760  0.17160  0.30260  Biso   1.000  H
  C187     1.0000 0.16140  0.21450  0.28520  Biso   1.000  C
  H150     1.0000 0.22650  0.21970  0.30570  Biso   1.000  H
  C188     1.0000 0.18230  0.23560  0.25660  Biso   1.000  C
  C189     1.0000 0.06970  0.22820  0.22850  Biso   1.000  C
  H151     1.0000 0.07380  0.24280  0.20910  Biso   1.000  H
  C190     1.0000 0.95320  0.20010  0.22870  Biso   1.000  C
  H152     1.0000 0.87600  0.19580  0.20940  Biso   1.000  H
  N39      1.0000 0.94950  0.12570  0.20274  Biso   1.000  N
  C191     1.0000 0.85760  0.11450  0.17500  Biso   1.000  C
  H153     1.0000 0.72740  0.10890  0.17680  Biso   1.000  H
  C192     1.0000 0.94690  0.11090  0.14330  Biso   1.000  C
  H154     1.0000 0.88050  0.10160  0.12440  Biso   1.000  H
  C193     1.0000 0.13210  0.12110  0.14000  Biso   1.000  C
  C194     1.0000 0.22620  0.13280  0.16900  Biso   1.000  C
  H155     1.0000 0.35520  0.13940  0.16760  Biso   1.000  H
  C195     1.0000 0.13260  0.13490  0.19950  Biso   1.000  C
  H156     1.0000 0.19850  0.14310  0.21900  Biso   1.000  H
  N40      1.0000 0.44160  0.11701  0.04647  Biso   1.000  N
  C196     1.0000 0.33380  0.09040  0.05650  Biso   1.000  C
  H157     1.0000 0.32900  0.07040  0.04260  Biso   1.000  H
  C197     1.0000 0.22980  0.09080  0.08620  Biso   1.000  C
  H158     1.0000 0.15300  0.07160  0.09200  Biso   1.000  H
  C198     1.0000 0.23780  0.11960  0.10760  Biso   1.000  C
  C199     1.0000 0.35170  0.14710  0.09800  Biso   1.000  C
  H159     1.0000 0.36180  0.16700  0.11190  Biso   1.000  H
  C200     1.0000 0.45160  0.14450  0.06720  Biso   1.000  C
  H160     1.0000 0.53030  0.16330  0.06070  Biso   1.000  H
  Al11     1.0000 0.32050  0.63087  0.24959  Biso   1.000  Al
  Cl21     1.0000 0.06870  0.65705  0.22543  Biso   1.000  Cl
  Cl22     1.0000 0.57680  0.60589  0.27467  Biso   1.000  Cl
  N41      1.0000 0.20030  0.58318  0.24238  Biso   1.000  N
  C201     1.0000 0.30220  0.55570  0.23260  Biso   1.000  C
  H161     1.0000 0.43060  0.55910  0.22640  Biso   1.000  H
  C202     1.0000 0.22880  0.52310  0.23120  Biso   1.000  C
  H162     1.0000 0.30530  0.50430  0.22400  Biso   1.000  H
  C203     1.0000 0.04100  0.51750  0.24050  Biso   1.000  C
  C204     1.0000 0.93410  0.54590  0.24990  Biso   1.000  C
  H163     1.0000 0.80470  0.54330  0.25580  Biso   1.000  H
  C205     1.0000 0.01850  0.57790  0.25050  Biso   1.000  C
  H164     1.0000 0.94430  0.59720  0.25710  Biso   1.000  H
  N42      1.0000 0.44400  0.67834  0.25533  Biso   1.000  N
  C206     1.0000 0.54620  0.68630  0.28330  Biso   1.000  C
  H165     1.0000 0.53760  0.67160  0.30260  Biso   1.000  H
  C207     1.0000 0.66140  0.71450  0.28520  Biso   1.000  C
  H166     1.0000 0.72650  0.71970  0.30570  Biso   1.000  H
  C208     1.0000 0.68230  0.73560  0.25660  Biso   1.000  C
  C209     1.0000 0.56970  0.72820  0.22850  Biso   1.000  C
  H167     1.0000 0.57380  0.74280  0.20910  Biso   1.000  H
  C210     1.0000 0.45320  0.70010  0.22870  Biso   1.000  C
  H168     1.0000 0.37600  0.69580  0.20940  Biso   1.000  H
  N43      1.0000 0.44950  0.62570  0.20274  Biso   1.000  N
  C211     1.0000 0.35760  0.61450  0.17500  Biso   1.000  C
  H169     1.0000 0.22740  0.60890  0.17680  Biso   1.000  H
  C212     1.0000 0.44690  0.61090  0.14330  Biso   1.000  C
  H170     1.0000 0.38050  0.60160  0.12440  Biso   1.000  H
  C213     1.0000 0.63210  0.62110  0.14000  Biso   1.000  C
  C214     1.0000 0.72620  0.63280  0.16900  Biso   1.000  C
  H171     1.0000 0.85520  0.63940  0.16760  Biso   1.000  H
  C215     1.0000 0.63260  0.63490  0.19950  Biso   1.000  C
  H172     1.0000 0.69850  0.64310  0.21900  Biso   1.000  H
  N44      1.0000 0.94160  0.61701  0.04647  Biso   1.000  N
  C216     1.0000 0.83380  0.59040  0.05650  Biso   1.000  C
  H173     1.0000 0.82900  0.57040  0.04260  Biso   1.000  H
  C217     1.0000 0.72980  0.59080  0.08620  Biso   1.000  C
  H174     1.0000 0.65300  0.57160  0.09200  Biso   1.000  H
  C218     1.0000 0.73780  0.61960  0.10760  Biso   1.000  C
  C219     1.0000 0.85170  0.64710  0.09800  Biso   1.000  C
  H175     1.0000 0.86180  0.66700  0.11190  Biso   1.000  H
  C220     1.0000 0.95160  0.64450  0.06720  Biso   1.000  C
  H176     1.0000 0.03030  0.66330  0.06070  Biso   1.000  H
  Al12     1.0000 0.32050  0.13087  0.74959  Biso   1.000  Al
  Cl23     1.0000 0.06870  0.15705  0.72543  Biso   1.000  Cl
  Cl24     1.0000 0.57680  0.10589  0.77467  Biso   1.000  Cl
  N45      1.0000 0.20030  0.08318  0.74238  Biso   1.000  N
  C221     1.0000 0.30220  0.05570  0.73260  Biso   1.000  C
  H177     1.0000 0.43060  0.05910  0.72640  Biso   1.000  H
  C222     1.0000 0.22880  0.02310  0.73120  Biso   1.000  C
  H178     1.0000 0.30530  0.00430  0.72400  Biso   1.000  H
  C223     1.0000 0.04100  0.01750  0.74050  Biso   1.000  C
  C224     1.0000 0.93410  0.04590  0.74990  Biso   1.000  C
  H179     1.0000 0.80470  0.04330  0.75580  Biso   1.000  H
  C225     1.0000 0.01850  0.07790  0.75050  Biso   1.000  C
  H180     1.0000 0.94430  0.09720  0.75710  Biso   1.000  H
  N46      1.0000 0.44400  0.17834  0.75533  Biso   1.000  N
  C226     1.0000 0.54620  0.18630  0.78330  Biso   1.000  C
  H181     1.0000 0.53760  0.17160  0.80260  Biso   1.000  H
  C227     1.0000 0.66140  0.21450  0.78520  Biso   1.000  C
  H182     1.0000 0.72650  0.21970  0.80570  Biso   1.000  H
  C228     1.0000 0.68230  0.23560  0.75660  Biso   1.000  C
  C229     1.0000 0.56970  0.22820  0.72850  Biso   1.000  C
  H183     1.0000 0.57380  0.24280  0.70910  Biso   1.000  H
  C230     1.0000 0.45320  0.20010  0.72870  Biso   1.000  C
  H184     1.0000 0.37600  0.19580  0.70940  Biso   1.000  H
  N47      1.0000 0.44950  0.12570  0.70274  Biso   1.000  N
  C231     1.0000 0.35760  0.11450  0.67500  Biso   1.000  C
  H185     1.0000 0.22740  0.10890  0.67680  Biso   1.000  H
  C232     1.0000 0.44690  0.11090  0.64330  Biso   1.000  C
  H186     1.0000 0.38050  0.10160  0.62440  Biso   1.000  H
  C233     1.0000 0.63210  0.12110  0.64000  Biso   1.000  C
  C234     1.0000 0.72620  0.13280  0.66900  Biso   1.000  C
  H187     1.0000 0.85520  0.13940  0.66760  Biso   1.000  H
  C235     1.0000 0.63260  0.13490  0.69950  Biso   1.000  C
  H188     1.0000 0.69850  0.14310  0.71900  Biso   1.000  H
  N48      1.0000 0.94160  0.11701  0.54647  Biso   1.000  N
  C236     1.0000 0.83380  0.09040  0.55650  Biso   1.000  C
  H189     1.0000 0.82900  0.07040  0.54260  Biso   1.000  H
  C237     1.0000 0.72980  0.09080  0.58620  Biso   1.000  C
  H190     1.0000 0.65300  0.07160  0.59200  Biso   1.000  H
  C238     1.0000 0.73780  0.11960  0.60760  Biso   1.000  C
  C239     1.0000 0.85170  0.14710  0.59800  Biso   1.000  C
  H191     1.0000 0.86180  0.16700  0.61190  Biso   1.000  H
  C240     1.0000 0.95160  0.14450  0.56720  Biso   1.000  C
  H192     1.0000 0.03030  0.16330  0.56070  Biso   1.000  H
  Al13     1.0000 0.67950  0.86913  0.74959  Biso   1.000  Al
  Cl25     1.0000 0.93130  0.84295  0.72543  Biso   1.000  Cl
  Cl26     1.0000 0.42320  0.89411  0.77467  Biso   1.000  Cl
  N49      1.0000 0.79970  0.91682  0.74238  Biso   1.000  N
  C241     1.0000 0.69780  0.94430  0.73260  Biso   1.000  C
  H193     1.0000 0.56940  0.94090  0.72640  Biso   1.000  H
  C242     1.0000 0.77120  0.97690  0.73120  Biso   1.000  C
  H194     1.0000 0.69470  0.99570  0.72400  Biso   1.000  H
  C243     1.0000 0.95900  0.98250  0.74050  Biso   1.000  C
  C244     1.0000 0.06590  0.95410  0.74990  Biso   1.000  C
  H195     1.0000 0.19530  0.95670  0.75580  Biso   1.000  H
  C245     1.0000 0.98150  0.92210  0.75050  Biso   1.000  C
  H196     1.0000 0.05570  0.90280  0.75710  Biso   1.000  H
  N50      1.0000 0.55600  0.82166  0.75533  Biso   1.000  N
  C246     1.0000 0.45380  0.81370  0.78330  Biso   1.000  C
  H197     1.0000 0.46240  0.82840  0.80260  Biso   1.000  H
  C247     1.0000 0.33860  0.78550  0.78520  Biso   1.000  C
  H198     1.0000 0.27350  0.78030  0.80570  Biso   1.000  H
  C248     1.0000 0.31770  0.76440  0.75660  Biso   1.000  C
  C249     1.0000 0.43030  0.77180  0.72850  Biso   1.000  C
  H199     1.0000 0.42620  0.75720  0.70910  Biso   1.000  H
  C250     1.0000 0.54680  0.79990  0.72870  Biso   1.000  C
  H200     1.0000 0.62400  0.80420  0.70940  Biso   1.000  H
  N51      1.0000 0.55050  0.87430  0.70274  Biso   1.000  N
  C251     1.0000 0.64240  0.88550  0.67500  Biso   1.000  C
  H201     1.0000 0.77260  0.89110  0.67680  Biso   1.000  H
  C252     1.0000 0.55310  0.88910  0.64330  Biso   1.000  C
  H202     1.0000 0.61950  0.89840  0.62440  Biso   1.000  H
  C253     1.0000 0.36790  0.87890  0.64000  Biso   1.000  C
  C254     1.0000 0.27380  0.86720  0.66900  Biso   1.000  C
  H203     1.0000 0.14480  0.86060  0.66760  Biso   1.000  H
  C255     1.0000 0.36740  0.86510  0.69950  Biso   1.000  C
  H204     1.0000 0.30150  0.85690  0.71900  Biso   1.000  H
  N52      1.0000 0.05840  0.88299  0.54647  Biso   1.000  N
  C256     1.0000 0.16620  0.90960  0.55650  Biso   1.000  C
  H205     1.0000 0.17100  0.92960  0.54260  Biso   1.000  H
  C257     1.0000 0.27020  0.90920  0.58620  Biso   1.000  C
  H206     1.0000 0.34700  0.92840  0.59200  Biso   1.000  H
  C258     1.0000 0.26220  0.88040  0.60760  Biso   1.000  C
  C259     1.0000 0.14830  0.85290  0.59800  Biso   1.000  C
  H207     1.0000 0.13820  0.83300  0.61190  Biso   1.000  H
  C260     1.0000 0.04840  0.85550  0.56720  Biso   1.000  C
  H208     1.0000 0.96970  0.83670  0.56070  Biso   1.000  H
  Al14     1.0000 0.67950  0.36913  0.24959  Biso   1.000  Al
  Cl27     1.0000 0.93130  0.34295  0.22543  Biso   1.000  Cl
  Cl28     1.0000 0.42320  0.39411  0.27467  Biso   1.000  Cl
  N53      1.0000 0.79970  0.41682  0.24238  Biso   1.000  N
  C261     1.0000 0.69780  0.44430  0.23260  Biso   1.000  C
  H209     1.0000 0.56940  0.44090  0.22640  Biso   1.000  H
  C262     1.0000 0.77120  0.47690  0.23120  Biso   1.000  C
  H210     1.0000 0.69470  0.49570  0.22400  Biso   1.000  H
  C263     1.0000 0.95900  0.48250  0.24050  Biso   1.000  C
  C264     1.0000 0.06590  0.45410  0.24990  Biso   1.000  C
  H211     1.0000 0.19530  0.45670  0.25580  Biso   1.000  H
  C265     1.0000 0.98150  0.42210  0.25050  Biso   1.000  C
  H212     1.0000 0.05570  0.40280  0.25710  Biso   1.000  H
  N54      1.0000 0.55600  0.32166  0.25533  Biso   1.000  N
  C266     1.0000 0.45380  0.31370  0.28330  Biso   1.000  C
  H213     1.0000 0.46240  0.32840  0.30260  Biso   1.000  H
  C267     1.0000 0.33860  0.28550  0.28520  Biso   1.000  C
  H214     1.0000 0.27350  0.28030  0.30570  Biso   1.000  H
  C268     1.0000 0.31770  0.26440  0.25660  Biso   1.000  C
  C269     1.0000 0.43030  0.27180  0.22850  Biso   1.000  C
  H215     1.0000 0.42620  0.25720  0.20910  Biso   1.000  H
  C270     1.0000 0.54680  0.29990  0.22870  Biso   1.000  C
  H216     1.0000 0.62400  0.30420  0.20940  Biso   1.000  H
  N55      1.0000 0.55050  0.37430  0.20274  Biso   1.000  N
  C271     1.0000 0.64240  0.38550  0.17500  Biso   1.000  C
  H217     1.0000 0.77260  0.39110  0.17680  Biso   1.000  H
  C272     1.0000 0.55310  0.38910  0.14330  Biso   1.000  C
  H218     1.0000 0.61950  0.39840  0.12440  Biso   1.000  H
  C273     1.0000 0.36790  0.37890  0.14000  Biso   1.000  C
  C274     1.0000 0.27380  0.36720  0.16900  Biso   1.000  C
  H219     1.0000 0.14480  0.36060  0.16760  Biso   1.000  H
  C275     1.0000 0.36740  0.36510  0.19950  Biso   1.000  C
  H220     1.0000 0.30150  0.35690  0.21900  Biso   1.000  H
  N56      1.0000 0.05840  0.38299  0.04647  Biso   1.000  N
  C276     1.0000 0.16620  0.40960  0.05650  Biso   1.000  C
  H221     1.0000 0.17100  0.42960  0.04260  Biso   1.000  H
  C277     1.0000 0.27020  0.40920  0.08620  Biso   1.000  C
  H222     1.0000 0.34700  0.42840  0.09200  Biso   1.000  H
  C278     1.0000 0.26220  0.38040  0.10760  Biso   1.000  C
  C279     1.0000 0.14830  0.35290  0.09800  Biso   1.000  C
  H223     1.0000 0.13820  0.33300  0.11190  Biso   1.000  H
  C280     1.0000 0.04840  0.35550  0.06720  Biso   1.000  C
  H224     1.0000 0.96970  0.33670  0.06070  Biso   1.000  H
  Al15     1.0000 0.17950  0.86913  0.24959  Biso   1.000  Al
  Cl29     1.0000 0.43130  0.84295  0.22543  Biso   1.000  Cl
  Cl30     1.0000 0.92320  0.89411  0.27467  Biso   1.000  Cl
  N57      1.0000 0.29970  0.91682  0.24238  Biso   1.000  N
  C281     1.0000 0.19780  0.94430  0.23260  Biso   1.000  C
  H225     1.0000 0.06940  0.94090  0.22640  Biso   1.000  H
  C282     1.0000 0.27120  0.97690  0.23120  Biso   1.000  C
  H226     1.0000 0.19470  0.99570  0.22400  Biso   1.000  H
  C283     1.0000 0.45900  0.98250  0.24050  Biso   1.000  C
  C284     1.0000 0.56590  0.95410  0.24990  Biso   1.000  C
  H227     1.0000 0.69530  0.95670  0.25580  Biso   1.000  H
  C285     1.0000 0.48150  0.92210  0.25050  Biso   1.000  C
  H228     1.0000 0.55570  0.90280  0.25710  Biso   1.000  H
  N58      1.0000 0.05600  0.82166  0.25533  Biso   1.000  N
  C286     1.0000 0.95380  0.81370  0.28330  Biso   1.000  C
  H229     1.0000 0.96240  0.82840  0.30260  Biso   1.000  H
  C287     1.0000 0.83860  0.78550  0.28520  Biso   1.000  C
  H230     1.0000 0.77350  0.78030  0.30570  Biso   1.000  H
  C288     1.0000 0.81770  0.76440  0.25660  Biso   1.000  C
  C289     1.0000 0.93030  0.77180  0.22850  Biso   1.000  C
  H231     1.0000 0.92620  0.75720  0.20910  Biso   1.000  H
  C290     1.0000 0.04680  0.79990  0.22870  Biso   1.000  C
  H232     1.0000 0.12400  0.80420  0.20940  Biso   1.000  H
  N59      1.0000 0.05050  0.87430  0.20274  Biso   1.000  N
  C291     1.0000 0.14240  0.88550  0.17500  Biso   1.000  C
  H233     1.0000 0.27260  0.89110  0.17680  Biso   1.000  H
  C292     1.0000 0.05310  0.88910  0.14330  Biso   1.000  C
  H234     1.0000 0.11950  0.89840  0.12440  Biso   1.000  H
  C293     1.0000 0.86790  0.87890  0.14000  Biso   1.000  C
  C294     1.0000 0.77380  0.86720  0.16900  Biso   1.000  C
  H235     1.0000 0.64480  0.86060  0.16760  Biso   1.000  H
  C295     1.0000 0.86740  0.86510  0.19950  Biso   1.000  C
  H236     1.0000 0.80150  0.85690  0.21900  Biso   1.000  H
  N60      1.0000 0.55840  0.88299  0.04647  Biso   1.000  N
  C296     1.0000 0.66620  0.90960  0.05650  Biso   1.000  C
  H237     1.0000 0.67100  0.92960  0.04260  Biso   1.000  H
  C297     1.0000 0.77020  0.90920  0.08620  Biso   1.000  C
  H238     1.0000 0.84700  0.92840  0.09200  Biso   1.000  H
  C298     1.0000 0.76220  0.88040  0.10760  Biso   1.000  C
  C299     1.0000 0.64830  0.85290  0.09800  Biso   1.000  C
  H239     1.0000 0.63820  0.83300  0.11190  Biso   1.000  H
  C300     1.0000 0.54840  0.85550  0.06720  Biso   1.000  C
  H240     1.0000 0.46970  0.83670  0.06070  Biso   1.000  H
  Al16     1.0000 0.17950  0.36913  0.74959  Biso   1.000  Al
  Cl31     1.0000 0.43130  0.34295  0.72543  Biso   1.000  Cl
  Cl32     1.0000 0.92320  0.39411  0.77467  Biso   1.000  Cl
  N61      1.0000 0.29970  0.41682  0.74238  Biso   1.000  N
  C301     1.0000 0.19780  0.44430  0.73260  Biso   1.000  C
  H241     1.0000 0.06940  0.44090  0.72640  Biso   1.000  H
  C302     1.0000 0.27120  0.47690  0.73120  Biso   1.000  C
  H242     1.0000 0.19470  0.49570  0.72400  Biso   1.000  H
  C303     1.0000 0.45900  0.48250  0.74050  Biso   1.000  C
  C304     1.0000 0.56590  0.45410  0.74990  Biso   1.000  C
  H243     1.0000 0.69530  0.45670  0.75580  Biso   1.000  H
  C305     1.0000 0.48150  0.42210  0.75050  Biso   1.000  C
  H244     1.0000 0.55570  0.40280  0.75710  Biso   1.000  H
  N62      1.0000 0.05600  0.32166  0.75533  Biso   1.000  N
  C306     1.0000 0.95380  0.31370  0.78330  Biso   1.000  C
  H245     1.0000 0.96240  0.32840  0.80260  Biso   1.000  H
  C307     1.0000 0.83860  0.28550  0.78520  Biso   1.000  C
  H246     1.0000 0.77350  0.28030  0.80570  Biso   1.000  H
  C308     1.0000 0.81770  0.26440  0.75660  Biso   1.000  C
  C309     1.0000 0.93030  0.27180  0.72850  Biso   1.000  C
  H247     1.0000 0.92620  0.25720  0.70910  Biso   1.000  H
  C310     1.0000 0.04680  0.29990  0.72870  Biso   1.000  C
  H248     1.0000 0.12400  0.30420  0.70940  Biso   1.000  H
  N63      1.0000 0.05050  0.37430  0.70274  Biso   1.000  N
  C311     1.0000 0.14240  0.38550  0.67500  Biso   1.000  C
  H249     1.0000 0.27260  0.39110  0.67680  Biso   1.000  H
  C312     1.0000 0.05310  0.38910  0.64330  Biso   1.000  C
  H250     1.0000 0.11950  0.39840  0.62440  Biso   1.000  H
  C313     1.0000 0.86790  0.37890  0.64000  Biso   1.000  C
  C314     1.0000 0.77380  0.36720  0.66900  Biso   1.000  C
  H251     1.0000 0.64480  0.36060  0.66760  Biso   1.000  H
  C315     1.0000 0.86740  0.36510  0.69950  Biso   1.000  C
  H252     1.0000 0.80150  0.35690  0.71900  Biso   1.000  H
  N64      1.0000 0.55840  0.38299  0.54647  Biso   1.000  N
  C316     1.0000 0.66620  0.40960  0.55650  Biso   1.000  C
  H253     1.0000 0.67100  0.42960  0.54260  Biso   1.000  H
  C317     1.0000 0.77020  0.40920  0.58620  Biso   1.000  C
  H254     1.0000 0.84700  0.42840  0.59200  Biso   1.000  H
  C318     1.0000 0.76220  0.38040  0.60760  Biso   1.000  C
  C319     1.0000 0.64830  0.35290  0.59800  Biso   1.000  C
  H255     1.0000 0.63820  0.33300  0.61190  Biso   1.000  H
  C320     1.0000 0.54840  0.35550  0.56720  Biso   1.000  C
  H256     1.0000 0.46970  0.33670  0.56070  Biso   1.000  H
