data_IBIYOI_ion_b
_audit_creation_date              2014-07-02
_audit_creation_method            'Materials Studio'
_symmetry_space_group_name_H-M    'P1'
_symmetry_Int_Tables_number       1
_symmetry_cell_setting            triclinic
loop_
_symmetry_equiv_pos_as_xyz
  x,y,z
_cell_length_a                    22.4940
_cell_length_b                    22.4940
_cell_length_c                    22.4940
_cell_angle_alpha                 113.0842
_cell_angle_beta                  113.0842
_cell_angle_gamma                 102.4644
loop_
_atom_site_label
_atom_site_type_symbol
_atom_site_fract_x
_atom_site_fract_y
_atom_site_fract_z
_atom_site_U_iso_or_equiv
_atom_site_adp_type
_atom_site_occupancy
I1     I     0.18770   0.47188   0.49583   0.00000  Uiso   1.00
Cu2    Cu    0.32417   0.54475   0.60657   0.00000  Uiso   1.00
S3     S     0.91102   0.72957   0.31347   0.00000  Uiso   1.00
S4     S     0.35554   0.48916   0.66810   0.00000  Uiso   1.00
N5     N     0.05518   0.74876   0.45937   0.00000  Uiso   1.00
N6     N     0.77932   0.74149   0.18389   0.00000  Uiso   1.00
N7     N     0.38638   0.54079   0.56510   0.00000  Uiso   1.00
C8     C     0.09057   0.75749   0.52930   0.00000  Uiso   1.00
C9     C     0.16595   0.78892   0.57328   0.00000  Uiso   1.00
C10    C     0.20660   0.81083   0.54540   0.00000  Uiso   1.00
C11    C     0.16900   0.80254   0.47369   0.00000  Uiso   1.00
C12    C     0.09318   0.77152   0.43155   0.00000  Uiso   1.00
C13    C     0.83544   0.79491   0.19855   0.00000  Uiso   1.00
C14    C     0.82430   0.82903   0.15717   0.00000  Uiso   1.00
C15    C     0.75455   0.80742   0.09831   0.00000  Uiso   1.00
C16    C     0.69775   0.75139   0.08398   0.00000  Uiso   1.00
C17    C     0.71118   0.72028   0.12821   0.00000  Uiso   1.00
C18    C     0.45875   0.57642   0.61254   0.00000  Uiso   1.00
C19    C     0.50298   0.56177   0.58488   0.00000  Uiso   1.00
C20    C     0.47250   0.51275   0.50704   0.00000  Uiso   1.00
C21    C     0.39780   0.48165   0.45826   0.00000  Uiso   1.00
C22    C     0.35547   0.49601   0.48870   0.00000  Uiso   1.00
H23    H     0.06008   0.73980   0.55116   0.00000  Uiso   1.00
H24    H     0.19227   0.79664   0.62914   0.00000  Uiso   1.00
H25    H     0.19804   0.81866   0.44985   0.00000  Uiso   1.00
H26    H     0.06500   0.76431   0.37592   0.00000  Uiso   1.00
H27    H     0.88902   0.81144   0.24251   0.00000  Uiso   1.00
H28    H     0.87020   0.87229   0.17186   0.00000  Uiso   1.00
H29    H     0.64312   0.73096   0.03853   0.00000  Uiso   1.00
H30    H     0.66680   0.67862   0.11774   0.00000  Uiso   1.00
I31    I     0.47645   0.69201   0.00390   0.00000  Uiso   1.00
Cu32   Cu    0.43801   0.71749   0.89298   0.00000  Uiso   1.00
S33    S     0.91622   0.59750   0.18663   0.00000  Uiso   1.00
S34    S     0.32079   0.68688   0.83157   0.00000  Uiso   1.00
N35    N     0.78933   0.59553   0.04059   0.00000  Uiso   1.00
N36    N     0.05778   0.59546   0.31629   0.00000  Uiso   1.00
N37    N     0.47522   0.82116   0.93426   0.00000  Uiso   1.00
C38    C     0.72815   0.56081   0.97060   0.00000  Uiso   1.00
C39    C     0.71552   0.59209   0.92649   0.00000  Uiso   1.00
C40    C     0.76519   0.66064   0.95430   0.00000  Uiso   1.00
C41    C     0.82856   0.69494   0.02609   0.00000  Uiso   1.00
C42    C     0.83977   0.66139   0.06835   0.00000  Uiso   1.00
C43    C     0.09655   0.63693   0.30165   0.00000  Uiso   1.00
C44    C     0.17205   0.66722   0.34309   0.00000  Uiso   1.00
C45    C     0.20930   0.65639   0.40201   0.00000  Uiso   1.00
C46    C     0.16758   0.61390   0.41631   0.00000  Uiso   1.00
C47    C     0.09224   0.58304   0.37202   0.00000  Uiso   1.00
C48    C     0.46343   0.84603   0.88676   0.00000  Uiso   1.00
C49    C     0.47633   0.91789   0.91433   0.00000  Uiso   1.00
C50    C     0.50504   0.96529   0.99214   0.00000  Uiso   1.00
C51    C     0.52266   0.93941   0.04097   0.00000  Uiso   1.00
C52    C     0.50669   0.86667   0.01062   0.00000  Uiso   1.00
H53    H     0.68870   0.50843   0.94879   0.00000  Uiso   1.00
H54    H     0.66740   0.56244   0.87060   0.00000  Uiso   1.00
H55    H     0.86842   0.74787   0.04986   0.00000  Uiso   1.00
H56    H     0.88816   0.68897   0.12403   0.00000  Uiso   1.00
H57    H     0.06912   0.64653   0.25768   0.00000  Uiso   1.00
H58    H     0.20063   0.69843   0.32841   0.00000  Uiso   1.00
H59    H     0.19258   0.60475   0.46178   0.00000  Uiso   1.00
H60    H     0.06105   0.54913   0.38248   0.00000  Uiso   1.00
I61    I     0.46689   0.47030   0.27939   0.00000  Uiso   1.00
Cu62   Cu    0.55150   0.44759   0.22767   0.00000  Uiso   1.00
S63    S     0.72895   0.91599   0.81871   0.00000  Uiso   1.00
S64    S     0.52360   0.33040   0.18077   0.00000  Uiso   1.00
N65    N     0.74869   0.78887   0.69409   0.00000  Uiso   1.00
N66    N     0.74056   0.05760   0.96200   0.00000  Uiso   1.00
N67    N     0.53841   0.47597   0.15358   0.00000  Uiso   1.00
C68    C     0.75638   0.72714   0.66643   0.00000  Uiso   1.00
C69    C     0.78831   0.71468   0.62295   0.00000  Uiso   1.00
C70    C     0.81151   0.76505   0.60513   0.00000  Uiso   1.00
C71    C     0.80321   0.82856   0.63473   0.00000  Uiso   1.00
C72    C     0.77218   0.83970   0.67950   0.00000  Uiso   1.00
C73    C     0.79418   0.09623   0.95945   0.00000  Uiso   1.00
C74    C     0.82838   0.17173   0.00464   0.00000  Uiso   1.00
C75    C     0.80674   0.20910   0.05267   0.00000  Uiso   1.00
C76    C     0.75062   0.16757   0.05345   0.00000  Uiso   1.00
C77    C     0.71924   0.09220   0.00877   0.00000  Uiso   1.00
C78    C     0.57470   0.46285   0.11773   0.00000  Uiso   1.00
C79    C     0.56166   0.47508   0.05864   0.00000  Uiso   1.00
C80    C     0.51368   0.50459   0.03914   0.00000  Uiso   1.00
C81    C     0.48067   0.52226   0.08077   0.00000  Uiso   1.00
C82    C     0.49330   0.50674   0.13767   0.00000  Uiso   1.00
H83    H     0.73763   0.68708   0.67820   0.00000  Uiso   1.00
H84    H     0.79523   0.66594   0.60396   0.00000  Uiso   1.00
H85    H     0.81921   0.86882   0.62214   0.00000  Uiso   1.00
H86    H     0.76540   0.88835   0.70084   0.00000  Uiso   1.00
H87    H     0.81080   0.06868   0.92256   0.00000  Uiso   1.00
H88    H     0.87176   0.20022   0.00209   0.00000  Uiso   1.00
H89    H     0.73038   0.19278   0.08780   0.00000  Uiso   1.00
H90    H     0.67732   0.06112   0.01127   0.00000  Uiso   1.00
I91    I     0.69033   0.18729   0.21977   0.00000  Uiso   1.00
Cu92   Cu    0.71938   0.32365   0.27169   0.00000  Uiso   1.00
S93    S     0.59763   0.91025   0.68153   0.00000  Uiso   1.00
S94    S     0.64904   0.34261   0.31851   0.00000  Uiso   1.00
N95    N     0.59494   0.05449   0.80591   0.00000  Uiso   1.00
N96    N     0.59576   0.77858   0.53815   0.00000  Uiso   1.00
N97    N     0.82184   0.38460   0.34590   0.00000  Uiso   1.00
C98    C     0.56047   0.08984   0.83278   0.00000  Uiso   1.00
C99    C     0.59154   0.16525   0.87634   0.00000  Uiso   1.00
C100   C     0.66013   0.20626   0.89500   0.00000  Uiso   1.00
C101   C     0.69441   0.16834   0.86612   0.00000  Uiso   1.00
C102   C     0.66076   0.09256   0.82129   0.00000  Uiso   1.00
C103   C     0.63756   0.83481   0.54126   0.00000  Uiso   1.00
C104   C     0.66788   0.82378   0.49610   0.00000  Uiso   1.00
C105   C     0.65664   0.75403   0.44753   0.00000  Uiso   1.00
C106   C     0.61374   0.69706   0.44621   0.00000  Uiso   1.00
C107   C     0.58304   0.71041   0.49088   0.00000  Uiso   1.00
C108   C     0.84464   0.45676   0.38186   0.00000  Uiso   1.00
C109   C     0.91595   0.50273   0.44103   0.00000  Uiso   1.00
C110   C     0.96490   0.47418   0.46052   0.00000  Uiso   1.00
C111   C     0.94088   0.39953   0.41881   0.00000  Uiso   1.00
C112   C     0.86846   0.35534   0.36182   0.00000  Uiso   1.00
H113   H     0.50832   0.05932   0.82035   0.00000  Uiso   1.00
H114   H     0.56152   0.19117   0.89477   0.00000  Uiso   1.00
H115   H     0.74754   0.19692   0.87933   0.00000  Uiso   1.00
H116   H     0.68836   0.06442   0.80055   0.00000  Uiso   1.00
H117   H     0.64741   0.88841   0.57860   0.00000  Uiso   1.00
H118   H     0.69941   0.86978   0.49909   0.00000  Uiso   1.00
H119   H     0.60414   0.64238   0.41144   0.00000  Uiso   1.00
H120   H     0.54900   0.66596   0.48797   0.00000  Uiso   1.00
I121   I     1.00038   0.01545   0.21186   0.00000  Uiso   1.00
Cu122  Cu    0.06457   0.95538   0.27967   0.00000  Uiso   1.00
S123   S     0.58658   0.73222   0.65372   0.00000  Uiso   1.00
S124   S     0.18172   1.02013   0.36045   0.00000  Uiso   1.00
N125   N     0.72141   0.75706   0.81886   0.00000  Uiso   1.00
N126   N     0.44165   0.74870   0.53497   0.00000  Uiso   1.00
N127   N     0.04017   0.96289   0.35604   0.00000  Uiso   1.00
C128   C     0.78457   0.75167   0.84610   0.00000  Uiso   1.00
C129   C     0.80034   0.72157   0.89141   0.00000  Uiso   1.00
C130   C     0.75059   0.69552   0.90848   0.00000  Uiso   1.00
C131   C     0.68591   0.70187   0.87978   0.00000  Uiso   1.00
C132   C     0.67245   0.73300   0.83531   0.00000  Uiso   1.00
C133   C     0.40170   0.68606   0.52370   0.00000  Uiso   1.00
C134   C     0.32636   0.65490   0.48010   0.00000  Uiso   1.00
C135   C     0.29042   0.68848   0.44772   0.00000  Uiso   1.00
C136   C     0.33338   0.75332   0.46035   0.00000  Uiso   1.00
C137   C     0.40881   0.78223   0.50372   0.00000  Uiso   1.00
C138   C     0.01705   0.90890   0.36648   0.00000  Uiso   1.00
C139   C     0.00364   0.92259   0.42532   0.00000  Uiso   1.00
C140   C     0.01441   0.99224   0.47329   0.00000  Uiso   1.00
C141   C     1.03725   0.04609   0.45991   0.00000  Uiso   1.00
C142   C     1.05004   1.03022   0.40117   0.00000  Uiso   1.00
H143   H     0.82266   0.77012   0.83209   0.00000  Uiso   1.00
H144   H     0.85014   0.71683   0.91126   0.00000  Uiso   1.00
H145   H     0.64630   0.68345   0.89224   0.00000  Uiso   1.00
H146   H     0.62254   0.73760   0.81359   0.00000  Uiso   1.00
H147   H     0.42835   0.65982   0.54833   0.00000  Uiso   1.00
H148   H     0.29682   0.60437   0.47142   0.00000  Uiso   1.00
H149   H     0.30927   0.78276   0.43872   0.00000  Uiso   1.00
H150   H     0.44114   0.83237   0.51368   0.00000  Uiso   1.00
I151   I     0.30376   0.78863   0.28807   0.00000  Uiso   1.00
Cu152  Cu    0.17593   0.78524   0.22056   0.00000  Uiso   1.00
S153   S     0.57863   0.93279   0.84634   0.00000  Uiso   1.00
S154   S     0.15962   0.82153   0.13969   0.00000  Uiso   1.00
N155   N     0.43847   0.90238   0.68097   0.00000  Uiso   1.00
N156   N     0.71384   0.90677   0.96532   0.00000  Uiso   1.00
N157   N     0.10709   0.68451   0.14428   0.00000  Uiso   1.00
C158   C     0.40594   0.93748   0.65211   0.00000  Uiso   1.00
C159   C     0.33055   0.90790   0.60664   0.00000  Uiso   1.00
C160   C     0.28732   0.84193   0.59110   0.00000  Uiso   1.00
C161   C     0.32229   0.80668   0.62123   0.00000  Uiso   1.00
C162   C     0.39787   0.83770   0.66584   0.00000  Uiso   1.00
C163   C     0.66253   0.87825   0.97674   0.00000  Uiso   1.00
C164   C     0.67500   0.84655   0.02039   0.00000  Uiso   1.00
C165   C     0.74093   0.84289   0.05266   0.00000  Uiso   1.00
C166   C     0.79308   0.87310   0.03991   0.00000  Uiso   1.00
C167   C     0.77860   0.90512  -0.00350   0.00000  Uiso   1.00
C168   C     0.04276   0.65093   0.13399   0.00000  Uiso   1.00
C169   C    -0.00244   0.57870   0.07510   0.00000  Uiso   1.00
C170   C     0.01909   0.54158   0.02692   0.00000  Uiso   1.00
C171   C     0.08626   0.57782   0.04018   0.00000  Uiso   1.00
C172   C     0.12919   0.64931   0.09900   0.00000  Uiso   1.00
H173   H     0.43851   0.98899   0.66502   0.00000  Uiso   1.00
H174   H     0.30605   0.93721   0.58544   0.00000  Uiso   1.00
H175   H     0.29136   0.75515   0.60980   0.00000  Uiso   1.00
H176   H     0.42412   0.81008   0.68871   0.00000  Uiso   1.00
H177   H     0.61168   0.88033   0.95218   0.00000  Uiso   1.00
H178   H     0.63321   0.82579   0.02919   0.00000  Uiso   1.00
H179   H     0.84411   0.87053   0.06144   0.00000  Uiso   1.00
H180   H     0.81872   0.92738  -0.01357   0.00000  Uiso   1.00
I181   I     0.78790   1.00002   0.48456   0.00000  Uiso   1.00
Cu182  Cu    0.78538   0.06470   0.60951   0.00000  Uiso   1.00
S183   S     0.93338   0.58644   0.35378   0.00000  Uiso   1.00
S184   S     0.82151   0.18160   0.66102   0.00000  Uiso   1.00
N185   N     0.90352   0.72124   0.46451   0.00000  Uiso   1.00
N186   N     0.90659   0.44143   0.19249   0.00000  Uiso   1.00
N187   N     0.68474   0.04027   0.57824   0.00000  Uiso   1.00
C188   C     0.92846   0.78988   0.52174   0.00000  Uiso   1.00
C189   C     0.89892   0.80574   0.56772   0.00000  Uiso   1.00
C190   C     0.84316   0.75056   0.55563   0.00000  Uiso   1.00
C191   C     0.81812   0.68051   0.49544   0.00000  Uiso   1.00
C192   C     0.84890   0.66690   0.45077   0.00000  Uiso   1.00
C193   C     0.87903   0.40164   0.21598   0.00000  Uiso   1.00
C194   C     0.84722   0.32626   0.17188   0.00000  Uiso   1.00
C195   C     0.84232   0.29020   0.10163   0.00000  Uiso   1.00
C196   C     0.87186   0.33297   0.07918   0.00000  Uiso   1.00
C197   C     0.90406   0.40840   0.12560   0.00000  Uiso   1.00
C198   C     0.65148   0.01671   0.60909   0.00000  Uiso   1.00
C199   C     0.57905   0.00252   0.58189   0.00000  Uiso   1.00
C200   C     0.54134   0.01316   0.52305   0.00000  Uiso   1.00
C201   C     0.57749   1.03700   0.49245   0.00000  Uiso   1.00
C202   C     0.64912   1.05023   0.52097   0.00000  Uiso   1.00
H203   H     0.97188   0.83231   0.53219   0.00000  Uiso   1.00
H204   H     0.92032   0.86053   0.61306   0.00000  Uiso   1.00
H205   H     0.77436   0.63650   0.48251   0.00000  Uiso   1.00
H206   H     0.82879   0.61263   0.40479   0.00000  Uiso   1.00
H207   H     0.88204   0.42840   0.26945   0.00000  Uiso   1.00
H208   H     0.82731   0.29673   0.19340   0.00000  Uiso   1.00
H209   H     0.86875   0.30867   0.02529   0.00000  Uiso   1.00
H210   H     0.92584   0.44059   0.10733   0.00000  Uiso   1.00
I211   I     0.01572   0.30457   0.01599   0.00000  Uiso   1.00
Cu212  Cu    0.95557   0.17690   0.89122   0.00000  Uiso   1.00
S213   S     0.73280   0.57954   0.14638   0.00000  Uiso   1.00
S214   S     1.02074   0.16143   0.83944   0.00000  Uiso   1.00
N215   N     0.75689   0.43888   0.03573   0.00000  Uiso   1.00
N216   N     0.74912   0.71405   0.30767   0.00000  Uiso   1.00
N217   N     0.96286   0.10786   0.92293   0.00000  Uiso   1.00
C218   C     0.76922   0.40663   0.97926   0.00000  Uiso   1.00
C219   C     0.73914   0.33112   0.93328   0.00000  Uiso   1.00
C220   C     0.69517   0.28740   0.94459   0.00000  Uiso   1.00
C221   C     0.68446   0.32251   0.00409   0.00000  Uiso   1.00
C222   C     0.71548   0.39796   0.04876   0.00000  Uiso   1.00
C223   C     0.68557   0.66320   0.28391   0.00000  Uiso   1.00
C224   C     0.65431   0.67550   0.32803   0.00000  Uiso   1.00
C225   C     0.68878   0.74062   0.39856   0.00000  Uiso   1.00
C226   C     0.75429   0.79241   0.42129   0.00000  Uiso   1.00
C227   C     0.78327   0.77819   0.37485   0.00000  Uiso   1.00
C228   C     0.90845   0.04353   0.89169   0.00000  Uiso   1.00
C229   C     0.92062  -0.00236   0.91818   0.00000  Uiso   1.00
C230   C     0.98934   0.01801   0.97731   0.00000  Uiso   1.00
C231   C     0.04649   0.08858   0.01014   0.00000  Uiso   1.00
C232   C     1.03026   0.13056  -0.01940   0.00000  Uiso   1.00
H233   H     0.80193   0.43964   0.96944   0.00000  Uiso   1.00
H234   H     0.74936   0.30721   0.88856   0.00000  Uiso   1.00
H235   H     0.65276   0.29166   0.01650   0.00000  Uiso   1.00
H236   H     0.70652   0.42380   0.09420   0.00000  Uiso   1.00
H237   H     0.65863   0.61292   0.23021   0.00000  Uiso   1.00
H238   H     0.60304   0.63424   0.30629   0.00000  Uiso   1.00
H239   H     0.78410   0.84299   0.47539   0.00000  Uiso   1.00
H240   H     0.83393   0.81807   0.39332   0.00000  Uiso   1.00
I241   I     0.80337   0.51988   0.51481   0.00000  Uiso   1.00
Cu242  Cu    0.67506   0.45670   0.39035   0.00000  Uiso   1.00
S243   S     0.07744   0.23062   0.64624   0.00000  Uiso   1.00
S244   S     0.65785   0.51977   0.33641   0.00000  Uiso   1.00
N245   N     0.93639   0.25512   0.53611   0.00000  Uiso   1.00
N246   N     0.21251   0.24696   0.80758   0.00000  Uiso   1.00
N247   N     0.60598   0.46469   0.42174   0.00000  Uiso   1.00
C248   C     0.90425   0.27242   0.48412   0.00000  Uiso   1.00
C249   C     0.82877   0.24249   0.43825   0.00000  Uiso   1.00
C250   C     0.78507   0.19380   0.44529   0.00000  Uiso   1.00
C251   C     0.82011   0.17849   0.50071   0.00000  Uiso   1.00
C252   C     0.89548   0.20925   0.54515   0.00000  Uiso   1.00
C253   C     0.15993   0.18604   0.78646   0.00000  Uiso   1.00
C254   C     0.17236   0.15443   0.83019   0.00000  Uiso   1.00
C255   C     0.23945   0.18592   0.89771   0.00000  Uiso   1.00
C256   C     0.29306   0.24869   0.91779   0.00000  Uiso   1.00
C257   C     0.27857   0.27810   0.87174   0.00000  Uiso   1.00
C258   C     0.54271   0.41042   0.39316   0.00000  Uiso   1.00
C259   C     0.49785   0.42460   0.42055   0.00000  Uiso   1.00
C260   C     0.51868   0.49509   0.47727   0.00000  Uiso   1.00
C261   C     0.58449   0.54932   0.50551   0.00000  Uiso   1.00
C262   C     0.62708   0.53288   0.47671   0.00000  Uiso   1.00
H263   H     0.93731   0.30915   0.47787   0.00000  Uiso   1.00
H264   H     0.80493   0.25671   0.39704   0.00000  Uiso   1.00
H265   H     0.78928   0.14340   0.51024   0.00000  Uiso   1.00
H266   H     0.92126   0.19659   0.58729   0.00000  Uiso   1.00
H267   H     0.10809   0.16156   0.73521   0.00000  Uiso   1.00
H268   H     0.12961   0.10520   0.81057   0.00000  Uiso   1.00
H269   H     0.34535   0.27606   0.96962   0.00000  Uiso   1.00
H270   H     0.31987   0.32670   0.88812   0.00000  Uiso   1.00
I271   I     0.50456   0.28860   0.98456   0.00000  Uiso   1.00
Cu272  Cu    0.56587   0.28463   0.10895   0.00000  Uiso   1.00
S273   S     0.08444   0.43100   0.85362   0.00000  Uiso   1.00
S274   S     0.68289   0.32133   0.16296   0.00000  Uiso   1.00
N275   N     0.21921   0.40017   0.96377   0.00000  Uiso   1.00
N276   N     0.93941   0.40485   0.69230   0.00000  Uiso   1.00
N277   N     0.54239   0.18413   0.07746   0.00000  Uiso   1.00
C278   C     0.28854   0.41943   0.01511   0.00000  Uiso   1.00
C279   C     0.30455   0.38989   0.06104   0.00000  Uiso   1.00
C280   C     0.24885   0.33985   0.05476   0.00000  Uiso   1.00
C281   C     0.17805   0.32002   0.99995   0.00000  Uiso   1.00
C282   C     0.16431   0.35085   0.95542   0.00000  Uiso   1.00
C283   C     0.89957   0.37398   0.71376   0.00000  Uiso   1.00
C284   C     0.82423   0.34273   0.67001   0.00000  Uiso   1.00
C285   C     0.78822   0.34172   0.60211   0.00000  Uiso   1.00
C286   C     0.83097   0.37470   0.58171   0.00000  Uiso   1.00
C287   C     0.90643   0.40623   0.62780   0.00000  Uiso   1.00
C288   C     0.51677   0.14946   0.10611   0.00000  Uiso   1.00
C289   C     0.50348   0.07719   0.07867   0.00000  Uiso   1.00
C290   C     0.51713   0.04125   0.02187   0.00000  Uiso   1.00
C291   C     0.54304   0.07877   0.99355   0.00000  Uiso   1.00
C292   C     0.55546   0.15019   1.02237   0.00000  Uiso   1.00
H293   H     0.33149   0.45819   0.02075   0.00000  Uiso   1.00
H294   H     0.36001   0.40675   0.10171   0.00000  Uiso   1.00
H295   H     0.13343   0.28015   0.99095   0.00000  Uiso   1.00
H296   H     0.10946   0.33492   0.91377   0.00000  Uiso   1.00
H297   H     0.92631   0.37384   0.76530   0.00000  Uiso   1.00
H298   H     0.79462   0.32011   0.68993   0.00000  Uiso   1.00
H299   H     0.80659   0.37474   0.52964   0.00000  Uiso   1.00
H300   H     0.93868   0.43073   0.61118   0.00000  Uiso   1.00
I301   I     0.54042   0.52695   0.73054   0.00000  Uiso   1.00
Cu302  Cu    0.45811   0.56398   0.78031   0.00000  Uiso   1.00
S303   S     0.23048   0.08399   0.15294   0.00000  Uiso   1.00
S304   S     0.48288   0.67845   0.82171   0.00000  Uiso   1.00
N305   N     0.25389   0.21819   0.31721   0.00000  Uiso   1.00
N306   N     0.24687   0.93910   0.03475   0.00000  Uiso   1.00
N307   N     0.47211   0.54276   0.85940   0.00000  Uiso   1.00
C308   C     0.26897   0.28723   0.36479   0.00000  Uiso   1.00
C309   C     0.23804   0.30263   0.40938   0.00000  Uiso   1.00
C310   C     0.19060   0.24663   0.40529   0.00000  Uiso   1.00
C311   C     0.17744   0.17627   0.35680   0.00000  Uiso   1.00
C312   C     0.20923   0.16308   0.31316   0.00000  Uiso   1.00
C313   C     0.18509   0.89937   0.02511   0.00000  Uiso   1.00
C314   C     0.15363   0.82403   0.98138   0.00000  Uiso   1.00
C315   C     0.18610   0.78802   0.94734   0.00000  Uiso   1.00
C316   C     0.24978   0.83061   0.95786   0.00000  Uiso   1.00
C317   C     0.27909   0.90605   1.00154   0.00000  Uiso   1.00
C318   C     0.41660   0.51621   0.86633   0.00000  Uiso   1.00
C319   C     0.42876   0.50264   0.92463   0.00000  Uiso   1.00
C320   C     0.49873   0.51724   0.97609   0.00000  Uiso   1.00
C321   C     0.55474   0.54486   0.96731   0.00000  Uiso   1.00
C322   C     0.54021   0.55804   0.90886   0.00000  Uiso   1.00
H323   H     0.30460   0.33040   0.36766   0.00000  Uiso   1.00
H324   H     0.25052   0.35787   0.44600   0.00000  Uiso   1.00
H325   H     0.14342   0.13170   0.35352   0.00000  Uiso   1.00
H326   H     0.19838   0.10851   0.27625   0.00000  Uiso   1.00
H327   H     0.15976   0.92615   0.05113   0.00000  Uiso   1.00
H328   H     0.10375   0.79439   0.97381   0.00000  Uiso   1.00
H329   H     0.27776   0.80609   0.93399   0.00000  Uiso   1.00
H330   H     0.32839   0.93824   1.00995   0.00000  Uiso   1.00
I331   I     0.29560   0.80933   0.76966   0.00000  Uiso   1.00
Cu332  Cu    0.28318   0.67732   0.71938   0.00000  Uiso   1.00
S333   S     0.43105   0.07751   0.34696   0.00000  Uiso   1.00
S334   S     0.35615   0.66087   0.67777   0.00000  Uiso   1.00
N335   N     0.40099   0.93657   0.18276   0.00000  Uiso   1.00
N336   N     0.40441   0.21211   0.46511   0.00000  Uiso   1.00
N337   N     0.18286   0.61218   0.64032   0.00000  Uiso   1.00
C338   C     0.42277   0.90406   0.13553   0.00000  Uiso   1.00
C339   C     0.39364   0.82856   0.09100   0.00000  Uiso   1.00
C340   C     0.34145   0.78518   0.09477   0.00000  Uiso   1.00
C341   C     0.31928   0.82050   0.14294   0.00000  Uiso   1.00
C342   C     0.34970   0.89594   0.18654   0.00000  Uiso   1.00
C343   C     0.37409   0.15986   0.47449   0.00000  Uiso   1.00
C344   C     0.34256   0.17211   0.51829   0.00000  Uiso   1.00
C345   C     0.34086   0.23871   0.55264   0.00000  Uiso   1.00
C346   C     0.37315   0.29199   0.54238   0.00000  Uiso   1.00
C347   C     0.40484   0.27764   0.49862   0.00000  Uiso   1.00
C348   C     0.14937   0.54964   0.63320   0.00000  Uiso   1.00
C349   C     0.07750   0.50356   0.57490   0.00000  Uiso   1.00
C350   C     0.04062   0.52222   0.52361   0.00000  Uiso   1.00
C351   C     0.07703   0.58710   0.53256   0.00000  Uiso   1.00
C352   C     0.14866   0.63097   0.59102   0.00000  Uiso   1.00
H353   H     0.46332   0.93683   0.13292   0.00000  Uiso   1.00
H354   H     0.41252   0.80443   0.05466   0.00000  Uiso   1.00
H355   H     0.27781   0.78976   0.14600   0.00000  Uiso   1.00
H356   H     0.33183   0.92200   0.22322   0.00000  Uiso   1.00
H357   H     0.37462   0.10843   0.44820   0.00000  Uiso   1.00
H358   H     0.32031   0.12971   0.52565   0.00000  Uiso   1.00
H359   H     0.37270   0.34392   0.56650   0.00000  Uiso   1.00
H360   H     0.42878   0.31862   0.49040   0.00000  Uiso   1.00
I361   I    -0.02298   0.97288   0.78610   0.00000  Uiso   1.00
Cu362  Cu    0.95045   0.05417   0.73066   0.00000  Uiso   1.00
S363   S     0.41391   0.22767   0.31874   0.00000  Uiso   1.00
S364   S     0.83286   0.02456   0.68314   0.00000  Uiso   1.00
N365   N     0.28706   0.24642   0.19393   0.00000  Uiso   1.00
N366   N     0.55567   0.23974   0.46260   0.00000  Uiso   1.00
N367   N     0.97824   0.03945   0.65556   0.00000  Uiso   1.00
C368   C     0.22891   0.26070   0.17260   0.00000  Uiso   1.00
C369   C     0.21648   0.29216   0.12868   0.00000  Uiso   1.00
C370   C     0.26350   0.30872   0.10468   0.00000  Uiso   1.00
C371   C     0.32374   0.29430   0.12850   0.00000  Uiso   1.00
C372   C     0.33466   0.26333   0.17324   0.00000  Uiso   1.00
C373   C     0.59399   0.29705   0.46449   0.00000  Uiso   1.00
C374   C     0.66952   0.33132   0.50960   0.00000  Uiso   1.00
C375   C     0.70717   0.30628   0.55329   0.00000  Uiso   1.00
C376   C     0.66596   0.24678   0.54995   0.00000  Uiso   1.00
C377   C     0.59060   0.21523   0.50538   0.00000  Uiso   1.00
C378   C     0.96259   0.07284   0.61677   0.00000  Uiso   1.00
C379   C     0.97313   0.05736   0.55625   0.00000  Uiso   1.00
C380   C     1.00325   0.00958   0.53779   0.00000  Uiso   1.00
C381   C     0.02388   0.98003   0.58265   0.00000  Uiso   1.00
C382   C     0.01010  -0.00489   0.64108   0.00000  Uiso   1.00
H383   H     0.19152   0.24716   0.18938   0.00000  Uiso   1.00
H384   H     0.17034   0.30376   0.11406   0.00000  Uiso   1.00
H385   H     0.36144   0.30534   0.11135   0.00000  Uiso   1.00
H386   H     0.38049   0.25143   0.18989   0.00000  Uiso   1.00
H387   H     0.56606   0.31670   0.43153   0.00000  Uiso   1.00
H388   H     0.69787   0.37746   0.51056   0.00000  Uiso   1.00
H389   H     0.69147   0.22401   0.58091   0.00000  Uiso   1.00
H390   H     0.55987   0.17061   0.50480   0.00000  Uiso   1.00
I391   I     0.68667   0.19121   0.71494   0.00000  Uiso   1.00
Cu392  Cu    0.82340   0.22031   0.76997   0.00000  Uiso   1.00
S393   S     0.40882   0.09501   0.18104   0.00000  Uiso   1.00
S394   S     0.84169   0.15046   0.81772   0.00000  Uiso   1.00
N395   N     0.55245   0.09299   0.30614   0.00000  Uiso   1.00
N396   N     0.27685   0.09280   0.03710   0.00000  Uiso   1.00
N397   N     0.88378   0.32321   0.84476   0.00000  Uiso   1.00
C398   C     0.58796   0.05655   0.32854   0.00000  Uiso   1.00
C399   C     0.66334   0.08799   0.37249   0.00000  Uiso   1.00
C400   C     0.70399   0.15859   0.39549   0.00000  Uiso   1.00
C401   C     0.66584   0.19467   0.37073   0.00000  Uiso   1.00
C402   C     0.59013   0.16088   0.32592   0.00000  Uiso   1.00
C403   C     0.33200   0.12808   0.03414   0.00000  Uiso   1.00
C404   C     0.32121   0.15857   0.98910   0.00000  Uiso   1.00
C405   C     0.25278   0.15364   0.94647   0.00000  Uiso   1.00
C406   C     0.19685   0.11684   0.95077   0.00000  Uiso   1.00
C407   C     0.20979   0.08600   0.99529   0.00000  Uiso   1.00
C408   C     0.95597   0.34631   0.88330   0.00000  Uiso   1.00
C409   C     1.00110   0.41739   0.94374   0.00000  Uiso   1.00
C410   C     0.97186   0.46598   0.96235   0.00000  Uiso   1.00
C411   C     0.89745   0.44184   0.91764   0.00000  Uiso   1.00
C412   C     0.85400   0.36961   0.85930   0.00000  Uiso   1.00
H413   H     0.55756   0.00272   0.31251   0.00000  Uiso   1.00
H414   H     0.68946   0.05672   0.38787   0.00000  Uiso   1.00
H415   H     0.69410   0.24924   0.38717   0.00000  Uiso   1.00
H416   H     0.56167   0.18979   0.30850   0.00000  Uiso   1.00
H417   H     0.38433   0.13208   0.06615   0.00000  Uiso   1.00
H418   H     0.36616   0.18510   0.98729   0.00000  Uiso   1.00
H419   H     0.14337   0.11226   0.92060   0.00000  Uiso   1.00
H420   H     0.16590   0.05665   0.99660   0.00000  Uiso   1.00
I421   I     0.19040  -0.02369   0.50410   0.00000  Uiso   1.00
Cu422  Cu    0.21962   0.94913   0.39651   0.00000  Uiso   1.00
S423   S     0.09546   0.41419   0.68611   0.00000  Uiso   1.00
S424   S     0.14923   0.83179   0.30788   0.00000  Uiso   1.00
N425   N     0.09126   0.28548   0.53861   0.00000  Uiso   1.00
N426   N     0.09318   0.55572   0.81648   0.00000  Uiso   1.00
N427   N     0.32245   0.97622   0.43914   0.00000  Uiso   1.00
C428   C     0.05414   0.22653   0.46653   0.00000  Uiso   1.00
C429   C     0.08489   0.21352   0.42180   0.00000  Uiso   1.00
C430   C     0.15535   0.26086   0.45112   0.00000  Uiso   1.00
C431   C     0.19198   0.32137   0.52533   0.00000  Uiso   1.00
C432   C     0.15915   0.33301   0.56814   0.00000  Uiso   1.00
C433   C     0.12892   0.59418   0.79714   0.00000  Uiso   1.00
C434   C     0.15907   0.66967   0.83844   0.00000  Uiso   1.00
C435   C     0.15378   0.70708   0.90169   0.00000  Uiso   1.00
C436   C     0.11643   0.66580   0.92026   0.00000  Uiso   1.00
C437   C     0.08566   0.59044   0.87626   0.00000  Uiso   1.00
C438   C     0.34636   0.96302   0.39075   0.00000  Uiso   1.00
C439   C     0.41743   0.97352   0.41686   0.00000  Uiso   1.00
C440   C     0.46530   1.00098   0.49428   0.00000  Uiso   1.00
C441   C     0.44001   0.01816   0.54384   0.00000  Uiso   1.00
C442   C     0.36792   0.00488   0.51485   0.00000  Uiso   1.00
H443   H     0.00035   0.18901   0.44362   0.00000  Uiso   1.00
H444   H     0.05340   0.16678   0.36446   0.00000  Uiso   1.00
H445   H     0.24645   0.35826   0.55062   0.00000  Uiso   1.00
H446   H     0.18879   0.37929   0.62565   0.00000  Uiso   1.00
H447   H     0.13332   0.56633   0.74905   0.00000  Uiso   1.00
H448   H     0.18543   0.69830   0.82014   0.00000  Uiso   1.00
H449   H     0.11127   0.69129   0.96877   0.00000  Uiso   1.00
H450   H     0.05570   0.55956   0.89015   0.00000  Uiso   1.00
I451   I     0.97218   0.68627   0.99624   0.00000  Uiso   1.00
Cu452  Cu    0.05245   0.82310   0.10376   0.00000  Uiso   1.00
S453   S     0.22811   0.40918   0.81368   0.00000  Uiso   1.00
S454   S     0.02396   0.84134   0.19253   0.00000  Uiso   1.00
N455   N     0.24694   0.55251   0.96127   0.00000  Uiso   1.00
N456   N     0.23937   0.27653   0.68346   0.00000  Uiso   1.00
N457   N     0.03653   0.88310   0.06096   0.00000  Uiso   1.00
C458   C     0.25960   0.58740   0.03315   0.00000  Uiso   1.00
C459   C     0.29133   0.66288   0.07795   0.00000  Uiso   1.00
C460   C     0.30984   0.70410   0.04889   0.00000  Uiso   1.00
C461   C     0.29665   0.66658   0.97490   0.00000  Uiso   1.00
C462   C     0.26546   0.59093   0.93202   0.00000  Uiso   1.00
C463   C     0.29745   0.33153   0.70314   0.00000  Uiso   1.00
C464   C     0.33167   0.32045   0.66185   0.00000  Uiso   1.00
C465   C     0.30560   0.25201   0.59832   0.00000  Uiso   1.00
C466   C     0.24551   0.19614   0.57947   0.00000  Uiso   1.00
C467   C     0.21412   0.20932   0.62343   0.00000  Uiso   1.00
C468   C     0.07219   0.95543   0.10912   0.00000  Uiso   1.00
C469   C     0.05649   1.00034   0.08295   0.00000  Uiso   1.00
C470   C     0.00576   0.97062   0.00577   0.00000  Uiso   1.00
C471   C     0.97279   0.89576   0.95638   0.00000  Uiso   1.00
C472   C    -0.01123   0.85273   0.98539   0.00000  Uiso   1.00
H473   H     0.24463   0.55647   0.05587   0.00000  Uiso   1.00
H474   H     0.30159   0.68867   0.13515   0.00000  Uiso   1.00
H475   H     0.30869   0.69581   0.94982   0.00000  Uiso   1.00
H476   H     0.25464   0.56312   0.87467   0.00000  Uiso   1.00
H477   H     0.31790   0.38392   0.75148   0.00000  Uiso   1.00
H478   H     0.37875   0.36505   0.68035   0.00000  Uiso   1.00
H479   H     0.22232   0.14257   0.53074   0.00000  Uiso   1.00
H480   H     0.16913   0.16550   0.60928   0.00000  Uiso   1.00
W481   W     0.84481   0.59472   0.25008   0.00000  Uiso   1.00
W482   W     0.59425   0.84411   0.75008   0.00000  Uiso   1.00
W483   W     0.09305   0.34295   0.74993   0.00000  Uiso   1.00
W484   W     0.34269   0.09267   0.24992   0.00000  Uiso   1.00
W485   W     0.34854   0.59846   0.74980   0.00000  Uiso   1.00
W486   W     0.65786   0.40803   0.24968   0.00000  Uiso   1.00
W487   W     0.15822   0.90834   0.25010   0.00000  Uiso   1.00
W488   W     0.90863   0.15897   0.75024   0.00000  Uiso   1.00
Cu489  Cu    0.94699   0.69891   0.40003   0.00000  Uiso   1.00
Cu490  Cu    0.79896   0.54682   0.10009   0.00000  Uiso   1.00
Cu491  Cu    0.69890   0.79878   0.75263   0.00000  Uiso   1.00
Cu492  Cu    0.54637   0.94617   0.74741   0.00000  Uiso   1.00
Cu493  Cu    0.04413   0.29648   0.59963   0.00000  Uiso   1.00
Cu494  Cu    0.19694   0.44435   0.90022   0.00000  Uiso   1.00
Cu495  Cu    0.29642   0.19637   0.25188   0.00000  Uiso   1.00
Cu496  Cu    0.44445   0.04443   0.24800   0.00000  Uiso   1.00
Cu497  Cu    0.79261   0.69320   0.24380   0.00000  Uiso   1.00
Cu498  Cu    0.94958   0.54881   0.25634   0.00000  Uiso   1.00
Cu499  Cu    0.69250   0.94940   0.90063   0.00000  Uiso   1.00
Cu500  Cu    0.54896   0.79191   0.59955   0.00000  Uiso   1.00
Cu501  Cu    0.19141   0.29041   0.74365   0.00000  Uiso   1.00
Cu502  Cu    0.04681   0.44758   0.75622   0.00000  Uiso   1.00
Cu503  Cu    0.29030   0.04643   0.09899   0.00000  Uiso   1.00
Cu504  Cu    0.44743   0.19127   0.40080   0.00000  Uiso   1.00
H505   H     0.48201   0.61360   0.67255   0.00000  Uiso   1.00
H506   H     0.56046   0.58698   0.62459   0.00000  Uiso   1.00
H507   H     0.37242   0.44609   0.39739   0.00000  Uiso   1.00
H508   H     0.29777   0.46970   0.45136   0.00000  Uiso   1.00
H509   H     0.44069   0.80926   0.82678   0.00000  Uiso   1.00
H510   H     0.46186   0.93560   0.87457   0.00000  Uiso   1.00
H511   H     0.54787   0.97492   0.10182   0.00000  Uiso   1.00
H512   H     0.51773   0.84637   0.04801   0.00000  Uiso   1.00
H513   H     0.61163   0.44004   0.13306   0.00000  Uiso   1.00
H514   H     0.58771   0.46011   0.02743   0.00000  Uiso   1.00
H515   H     0.44555   0.54780   0.06938   0.00000  Uiso   1.00
H516   H     0.46704   0.51921   0.16898   0.00000  Uiso   1.00
H517   H     0.80658   0.47843   0.36653   0.00000  Uiso   1.00
H518   H     0.93224   0.56000   0.47230   0.00000  Uiso   1.00
H519   H     0.97774   0.37574   0.43015   0.00000  Uiso   1.00
H520   H     0.84959   0.29777   0.33043   0.00000  Uiso   1.00
H521   H     0.01156   0.85632   0.33119   0.00000  Uiso   1.00
H522   H    -0.01382   0.87975   0.43412   0.00000  Uiso   1.00
H523   H     1.04693   0.10058   0.49562   0.00000  Uiso   1.00
H524   H     1.06927   1.07220   0.39208   0.00000  Uiso   1.00
H525   H     0.02555   0.68071   0.16939   0.00000  Uiso   1.00
H526   H    -0.05402   0.55240   0.06639   0.00000  Uiso   1.00
H527   H     0.10493   0.55184   0.00432   0.00000  Uiso   1.00
H528   H     0.18020   0.67765   0.10799   0.00000  Uiso   1.00
H529   H     0.68157   0.01117   0.65605   0.00000  Uiso   1.00
H530   H     0.55300  -0.01561   0.60705   0.00000  Uiso   1.00
H531   H     0.55137   1.04704   0.44798   0.00000  Uiso   1.00
H532   H     0.67716   1.06978   0.49816   0.00000  Uiso   1.00
H533   H     0.85613   0.02676   0.84453   0.00000  Uiso   1.00
H534   H     0.87700  -0.05368   0.89210   0.00000  Uiso   1.00
H535   H     0.10090   0.10729   0.05498   0.00000  Uiso   1.00
H536   H     1.07205   0.18168   0.00311   0.00000  Uiso   1.00
H537   H     0.52627   0.35702   0.34799   0.00000  Uiso   1.00
H538   H     0.44739   0.38135   0.39749   0.00000  Uiso   1.00
H539   H     0.60241   0.60436   0.54846   0.00000  Uiso   1.00
H540   H     0.67711   0.57501   0.49743   0.00000  Uiso   1.00
H541   H     0.50859   0.17822   0.15131   0.00000  Uiso   1.00
H542   H     0.48332   0.04982   0.10177   0.00000  Uiso   1.00
H543   H     0.55505   0.05371   0.95053   0.00000  Uiso   1.00
H544   H     0.57678   0.17945   1.00157   0.00000  Uiso   1.00
H545   H     0.36345   0.50735   0.82780   0.00000  Uiso   1.00
H546   H     0.38430   0.48142   0.92978   0.00000  Uiso   1.00
H547   H     0.60946   0.55760   1.00616   0.00000  Uiso   1.00
H548   H     0.58332   0.58160   0.90338   0.00000  Uiso   1.00
H549   H     0.17907   0.53489   0.67158   0.00000  Uiso   1.00
H550   H     0.05112   0.45385   0.56960   0.00000  Uiso   1.00
H551   H     0.05094   0.60310   0.49384   0.00000  Uiso   1.00
H552   H     0.17768   0.67966   0.59665   0.00000  Uiso   1.00
H553   H     0.93906   0.10930   0.63095   0.00000  Uiso   1.00
H554   H     0.95633   0.08142   0.52320   0.00000  Uiso   1.00
H555   H     0.05069   0.94596   0.57282   0.00000  Uiso   1.00
H556   H     0.02482  -0.02867   0.67472   0.00000  Uiso   1.00
H557   H     0.97818   0.30855   0.86904   0.00000  Uiso   1.00
H558   H     1.05821   0.43359   0.97667   0.00000  Uiso   1.00
H559   H     0.87328   0.47853   0.92756   0.00000  Uiso   1.00
H560   H     0.79655   0.35071   0.82583   0.00000  Uiso   1.00
H561   H     0.30926   0.94150   0.33108   0.00000  Uiso   1.00
H562   H     0.43412   0.95862   0.37624   0.00000  Uiso   1.00
H563   H     0.47571   0.04217   0.60439   0.00000  Uiso   1.00
H564   H     0.34842   0.01762   0.55291   0.00000  Uiso   1.00
H565   H     0.11079   0.97811   0.16869   0.00000  Uiso   1.00
H566   H     0.08265   1.05769   0.12340   0.00000  Uiso   1.00
H567   H     0.93562   0.87080   0.89594   0.00000  Uiso   1.00
H568   H    -0.03691   0.79514   0.94749   0.00000  Uiso   1.00
loop_
_geom_bond_atom_site_label_1
_geom_bond_atom_site_label_2
_geom_bond_distance
_geom_bond_site_symmetry_2
_ccdc_geom_bond_type
I1     Cu2     2.635   .     S
Cu2    S4      2.225   .     S
Cu2    N7      1.962   .     S
Cu2    S334    2.216   .     S
Cu2    W485    2.723   .     S
S3     W481    2.539   .     S
S3     Cu489   2.232   .     S
S3     Cu497   2.236   .     S
S4     Cu302   2.225   .     S
S4     W485    2.510   .     S
N5     C8      1.362   .     A
N5     C12     1.366   .     A
N5     Cu489   2.016   1_455 S
N6     C13     1.362   .     A
N6     C17     1.362   .     A
N6     Cu497   2.014   .     S
N7     C18     1.355   .     A
N7     C22     1.362   .     A
C8     C9      1.404   .     A
C8     H23     1.082   .     S
C9     C10     1.403   .     A
C9     H24     1.077   .     S
C10    C11     1.407   .     A
C10    C160    1.506   .     S
C11    C12     1.412   .     A
C11    H25     1.082   .     S
C12    H26     1.081   .     S
C13    C14     1.407   .     A
C13    H27     1.073   .     S
C14    C15     1.410   .     A
C14    H28     1.081   .     S
C15    C16     1.410   .     A
C15    C165    1.512   .     S
C16    C17     1.404   .     A
C16    H29     1.081   .     S
C17    H30     1.081   .     S
C18    C19     1.397   .     A
C18    H505    1.080   .     S
C19    C20     1.404   .     A
C19    H506    1.083   .     S
C20    C21     1.401   .     A
C20    C260    1.483   .     S
C21    C22     1.397   .     A
C21    H507    1.082   .     S
C22    H508    1.079   .     S
I31    Cu32    2.635   1_554 S
Cu32   S34     2.225   .     S
Cu32   N37     1.962   .     S
Cu32   S304    2.215   .     S
Cu32   W485    2.724   .     S
Cu32   I31     2.635   1_556 S
S33    W481    2.539   .     S
S33    Cu490   2.232   .     S
S33    Cu498   2.236   .     S
S34    Cu332   2.225   .     S
S34    W485    2.509   .     S
N35    C42     1.366   .     A
N35    Cu490   2.016   .     S
N35    C38     1.362   1_554 S
N36    C43     1.362   .     A
N36    C47     1.363   .     A
N36    Cu498   2.014   1_455 S
N37    C48     1.355   .     A
N37    C52     1.362   1_556 S
C38    C39     1.405   .     A
C38    H53     1.082   .     S
C38    N35     1.362   1_556 S
C39    C40     1.403   .     A
C39    H54     1.077   .     S
C40    C130    1.505   .     S
C40    C41     1.406   1_556 S
C41    C42     1.412   .     A
C41    H55     1.082   .     S
C41    C40     1.406   1_554 S
C42    H56     1.081   .     S
C43    C44     1.407   .     A
C43    H57     1.073   .     S
C44    C45     1.410   .     A
C44    H58     1.081   .     S
C45    C46     1.410   .     A
C45    C135    1.512   .     S
C46    C47     1.404   .     A
C46    H59     1.081   .     S
C47    H60     1.081   .     S
C48    C49     1.397   .     A
C48    H509    1.080   .     S
C49    C50     1.404   .     A
C49    H510    1.082   .     S
C50    C51     1.401   1_556 S
C50    C290    1.484   1_566 A
C51    C52     1.397   .     A
C51    H511    1.082   .     S
C51    C50     1.401   1_554 S
C52    H512    1.079   .     S
C52    N37     1.362   1_554 S
I61    Cu62    2.632   .     S
Cu62   S64     2.245   .     S
Cu62   N67     1.950   .     S
Cu62   S244    2.228   .     S
Cu62   W486    2.664   .     S
S63    W482    2.537   .     S
S63    Cu491   2.233   .     S
S63    Cu499   2.235   .     S
S64    Cu272   2.213   .     S
S64    W486    2.550   .     S
N65    C68     1.362   .     A
N65    C72     1.365   .     A
N65    Cu491   2.018   .     S
N66    C73     1.362   .     A
N66    C77     1.363   1_556 A
N66    Cu499   2.014   1_545 S
N67    C78     1.355   .     A
N67    C82     1.360   .     A
C68    C69     1.405   .     A
C68    H83     1.082   .     S
C69    C70     1.408   .     A
C69    H84     1.080   .     S
C70    C71     1.409   .     A
C70    C190    1.513   .     S
C71    C72     1.412   .     A
C71    H85     1.082   .     S
C72    H86     1.081   .     S
C73    H87     1.074   .     S
C73    C74     1.407   1_556 A
C74    C75     1.410   .     A
C74    H88     1.081   .     S
C74    C73     1.407   1_554 A
C75    C76     1.410   .     A
C75    C195    1.511   .     S
C76    C77     1.405   .     A
C76    H89     1.081   .     S
C77    H90     1.081   .     S
C77    N66     1.363   1_554 A
C78    C79     1.394   .     A
C78    H513    1.082   .     S
C79    C80     1.401   .     A
C79    H514    1.083   .     S
C80    C81     1.402   .     A
C80    C320    1.480   1_554 S
C81    C82     1.396   .     A
C81    H515    1.083   .     S
C82    H516    1.080   .     S
I91    Cu92    2.632   .     S
Cu92   S94     2.245   .     S
Cu92   N97     1.950   .     S
Cu92   S274    2.228   .     S
Cu92   W486    2.664   .     S
S93    W482    2.537   .     S
S93    Cu492   2.232   .     S
S93    Cu500   2.235   .     S
S94    Cu242   2.213   .     S
S94    W486    2.550   .     S
N95    C98     1.362   .     A
N95    C102    1.365   .     A
N95    Cu492   2.018   1_545 A
N96    C103    1.362   .     A
N96    C107    1.363   .     A
N96    Cu500   2.014   .     S
N97    C108    1.356   .     A
N97    C112    1.360   .     A
C98    C99     1.405   .     A
C98    H113    1.082   .     S
C99    C100    1.408   .     A
C99    H114    1.081   .     S
C100   C101    1.409   .     A
C100   C220    1.513   .     S
C101   C102    1.411   .     A
C101   H115    1.082   .     S
C102   H116    1.081   .     S
C103   C104    1.406   .     A
C103   H117    1.074   .     S
C104   C105    1.410   .     A
C104   H118    1.081   .     S
C105   C106    1.410   .     A
C105   C225    1.512   .     S
C106   C107    1.405   .     A
C106   H119    1.082   .     S
C107   H120    1.081   .     S
C108   C109    1.394   .     A
C108   H517    1.082   .     S
C109   C110    1.402   .     A
C109   H518    1.083   .     S
C110   C111    1.403   .     A
C110   C350    1.480   1_655 S
C111   C112    1.396   .     A
C111   H519    1.082   .     S
C112   H520    1.080   .     S
I121   Cu122   2.640   1_645 A
Cu122  S124    2.209   .     S
Cu122  N127    1.958   .     S
Cu122  S454    2.213   .     S
Cu122  W487    2.740   .     S
Cu122  I121    2.640   1_465 A
S123   W482    2.511   .     S
S123   Cu491   2.219   .     S
S123   Cu500   2.229   .     S
S124   Cu422   2.235   .     S
S124   W487    2.503   .     S
N125   C128    1.363   .     A
N125   C132    1.365   .     A
N125   Cu491   2.017   .     S
N126   C133    1.361   .     A
N126   C137    1.363   .     A
N126   Cu500   2.003   .     S
N127   C138    1.359   .     A
N127   C142    1.359   1_455 A
C128   C129    1.409   .     A
C128   H143    1.080   .     S
C129   C130    1.405   .     A
C129   H144    1.078   .     S
C130   C131    1.407   .     A
C131   C132    1.409   .     A
C131   H145    1.082   .     S
C132   H146    1.081   .     S
C133   C134    1.404   .     A
C133   H147    1.079   .     S
C134   C135    1.410   .     A
C134   H148    1.082   .     S
C135   C136    1.412   .     A
C136   C137    1.408   .     A
C136   H149    1.082   .     S
C137   H150    1.082   .     S
C138   C139    1.404   .     A
C138   H521    1.081   .     S
C139   C140    1.408   .     A
C139   H522    1.081   .     S
C140   C141    1.400   1_465 S
C140   C380    1.485   1_465 S
C141   H523    1.082   .     S
C141   C140    1.400   1_645 S
C141   C142    1.389   1_545 S
C142   H524    1.079   .     S
C142   N127    1.359   1_655 A
C142   C141    1.389   1_565 S
I151   Cu152   2.640   .     S
Cu152  S154    2.209   .     S
Cu152  N157    1.957   .     S
Cu152  S424    2.213   .     S
Cu152  W487    2.740   .     S
S153   W482    2.511   .     S
S153   Cu492   2.219   .     S
S153   Cu499   2.229   .     S
S154   Cu452   2.235   .     S
S154   W487    2.503   .     S
N155   C158    1.363   .     A
N155   C162    1.364   .     A
N155   Cu492   2.016   .     S
N156   C163    1.361   .     A
N156   Cu499   2.003   .     S
N156   C167    1.363   1_556 A
N157   C168    1.359   .     A
N157   C172    1.359   .     A
C158   C159    1.408   .     A
C158   H173    1.080   .     S
C159   C160    1.405   .     A
C159   H174    1.078   .     S
C160   C161    1.407   .     A
C161   C162    1.409   .     A
C161   H175    1.082   .     S
C162   H176    1.082   .     S
C163   H177    1.079   .     S
C163   C164    1.404   1_556 S
C164   C165    1.410   .     A
C164   H178    1.082   .     S
C164   C163    1.404   1_554 S
C165   C166    1.412   .     A
C166   C167    1.408   .     A
C166   H179    1.082   .     S
C167   H180    1.082   .     S
C167   N156    1.363   1_554 A
C168   C169    1.404   .     A
C168   H525    1.081   .     S
C169   C170    1.408   .     A
C169   H526    1.081   .     S
C170   C171    1.400   .     A
C170   C410    1.484   1_454 S
C171   C172    1.389   .     A
C171   H527    1.082   .     S
C172   H528    1.079   .     S
I181   Cu182   2.641   1_565 A
Cu182  S184    2.206   .     S
Cu182  N187    1.958   .     S
Cu182  S364    2.214   .     S
Cu182  W488    2.742   .     S
Cu182  I181    2.641   1_545 A
S183   W481    2.510   .     S
S183   Cu489   2.220   .     S
S183   Cu498   2.227   .     S
S184   Cu392   2.235   .     S
S184   W488    2.505   .     S
N185   C188    1.363   .     A
N185   C192    1.363   .     A
N185   Cu489   2.016   .     S
N186   C193    1.361   .     A
N186   C197    1.363   .     A
N186   Cu498   2.004   .     S
N187   C198    1.359   .     A
N187   C202    1.359   1_545 A
C188   C189    1.411   .     A
C188   H203    1.078   .     S
C189   C190    1.408   .     A
C189   H204    1.079   .     S
C190   C191    1.407   .     A
C191   C192    1.407   .     A
C191   H205    1.078   .     S
C192   H206    1.081   .     S
C193   C194    1.404   .     A
C193   H207    1.079   .     S
C194   C195    1.410   .     A
C194   H208    1.082   .     S
C195   C196    1.411   .     A
C196   C197    1.407   .     A
C196   H209    1.082   .     S
C197   H210    1.082   .     S
C198   C199    1.404   .     A
C198   H529    1.081   .     S
C199   C200    1.409   .     A
C199   H530    1.081   .     S
C200   C201    1.401   1_545 S
C200   C440    1.487   1_545 A
C201   C202    1.389   .     A
C201   H531    1.082   .     S
C201   C200    1.401   1_565 S
C202   H532    1.080   .     S
C202   N187    1.359   1_565 A
I211   Cu212   2.642   1_454 S
Cu212  S214    2.206   .     S
Cu212  N217    1.958   .     S
Cu212  S394    2.213   .     S
Cu212  W488    2.743   .     S
Cu212  I211    2.642   1_656 S
S213   W481    2.510   .     S
S213   Cu490   2.220   .     S
S213   Cu497   2.227   .     S
S214   Cu362   2.236   .     S
S214   W488    2.505   .     S
N215   C222    1.362   .     A
N215   Cu490   2.016   .     S
N215   C218    1.363   1_554 S
N216   C223    1.361   .     A
N216   C227    1.363   .     A
N216   Cu497   2.003   .     S
N217   C228    1.360   .     A
N217   C232    1.359   1_556 S
C218   C219    1.411   .     A
C218   H233    1.078   .     S
C218   N215    1.363   1_556 S
C219   C220    1.408   .     A
C219   H234    1.079   .     S
C220   C221    1.407   1_556 S
C221   C222    1.407   .     A
C221   H235    1.078   .     S
C221   C220    1.407   1_554 S
C222   H236    1.081   .     S
C223   C224    1.404   .     A
C223   H237    1.079   .     S
C224   C225    1.409   .     A
C224   H238    1.082   .     S
C225   C226    1.411   .     A
C226   C227    1.407   .     A
C226   H239    1.082   .     S
C227   H240    1.082   .     S
C228   C229    1.404   .     A
C228   H533    1.081   .     S
C229   C230    1.404   .     A
C229   H534    1.081   .     S
C230   C231    1.474   1_656 S
C230   C470    1.484   1_646 S
C231   H535    1.081   .     S
C231   C230    1.474   1_454 S
C231   C232    1.385   1_455 S
C232   H536    1.080   .     S
C232   N217    1.359   1_554 S
C232   C231    1.385   1_655 S
I241   Cu242   2.638   .     S
Cu242  S244    2.203   .     S
Cu242  N247    1.956   .     S
Cu242  W486    2.739   .     S
S243   W483    2.510   .     S
S243   Cu493   2.222   .     S
S243   Cu501   2.231   .     S
S244   W486    2.506   .     S
N245   C248    1.363   .     A
N245   C252    1.362   .     A
N245   Cu493   2.012   1_655 A
N246   C253    1.361   .     A
N246   C257    1.363   .     A
N246   Cu501   2.004   .     S
N247   C258    1.359   .     A
N247   C262    1.358   .     A
C248   C249    1.410   .     A
C248   H263    1.079   .     S
C249   C250    1.409   .     A
C249   H264    1.080   .     S
C250   C251    1.406   .     A
C250   C400    1.512   .     S
C251   C252    1.405   .     A
C251   H265    1.078   .     S
C252   H266    1.081   .     S
C253   C254    1.404   .     A
C253   H267    1.078   .     S
C254   C255    1.408   .     A
C254   H268    1.082   .     S
C255   C256    1.411   .     A
C255   C405    1.510   .     S
C256   C257    1.408   .     A
C256   H269    1.082   .     S
C257   H270    1.082   .     S
C258   C259    1.404   .     A
C258   H537    1.081   .     S
C259   C260    1.409   .     A
C259   H538    1.082   .     S
C260   C261    1.399   .     A
C261   C262    1.388   .     A
C261   H539    1.082   .     S
C262   H540    1.079   .     S
I271   Cu272   2.639   1_556 A
Cu272  S274    2.203   .     S
Cu272  N277    1.956   .     S
Cu272  W486    2.739   .     S
Cu272  I271    2.639   1_554 A
S273   W483    2.510   .     S
S273   Cu494   2.222   .     S
S273   Cu502   2.231   .     S
S274   W486    2.506   .     S
N275   C282    1.362   .     A
N275   Cu494   2.012   .     S
N275   C278    1.363   1_556 A
N276   C283    1.361   .     A
N276   C287    1.363   .     A
N276   Cu502   2.004   1_655 S
N277   C288    1.359   .     A
N277   C292    1.359   1_554 A
C278   C279    1.410   .     A
C278   H293    1.079   .     S
C278   N275    1.363   1_554 A
C279   C280    1.409   .     A
C279   H294    1.080   .     S
C280   C370    1.512   .     S
C280   C281    1.406   1_554 S
C281   C282    1.405   .     A
C281   H295    1.078   .     S
C281   C280    1.406   1_556 S
C282   H296    1.081   .     S
C283   C284    1.404   .     A
C283   H297    1.078   .     S
C284   C285    1.409   .     A
C284   H298    1.082   .     S
C285   C286    1.411   .     A
C285   C375    1.510   .     S
C286   C287    1.408   .     A
C286   H299    1.082   .     S
C287   H300    1.082   .     S
C288   C289    1.404   .     A
C288   H541    1.081   .     S
C289   C290    1.409   .     A
C289   H542    1.082   .     S
C290   C50     1.484   1_544 A
C290   C291    1.399   1_554 S
C291   C292    1.388   .     A
C291   H543    1.082   .     S
C291   C290    1.399   1_556 S
C292   H544    1.079   .     S
C292   N277    1.359   1_556 A
I301   Cu302   2.633   .     S
Cu302  S304    2.214   .     S
Cu302  N307    1.945   .     S
Cu302  W485    2.658   .     S
S303   W484    2.511   .     S
S303   Cu495   2.219   .     S
S303   Cu503   2.228   .     S
S304   W485    2.554   .     S
N305   C308    1.363   .     A
N305   C312    1.362   .     A
N305   Cu495   2.014   .     S
N306   C313    1.361   .     A
N306   C317    1.363   1_554 A
N306   Cu503   2.003   1_565 S
N307   C318    1.358   .     A
N307   C322    1.356   .     A
C308   C309    1.410   .     A
C308   H323    1.079   .     S
C309   C310    1.409   .     A
C309   H324    1.080   .     S
C310   C311    1.405   .     A
C310   C430    1.512   .     S
C311   C312    1.406   .     A
C311   H325    1.078   .     S
C312   H326    1.081   .     S
C313   H327    1.079   .     S
C313   C314    1.403   1_554 A
C314   C315    1.408   .     A
C314   H328    1.082   .     S
C314   C313    1.403   1_556 A
C315   C316    1.411   .     A
C315   C435    1.508   .     S
C316   C317    1.408   .     A
C316   H329    1.082   .     S
C317   H330    1.082   .     S
C317   N306    1.363   1_556 A
C318   C319    1.399   .     A
C318   H545    1.081   .     S
C319   C320    1.405   .     A
C319   H546    1.081   .     S
C320   C321    1.402   .     A
C320   C80     1.480   1_556 S
C321   C322    1.391   .     A
C321   H547    1.081   .     S
C322   H548    1.077   .     S
I331   Cu332   2.633   .     S
Cu332  S334    2.214   .     S
Cu332  N337    1.945   .     S
Cu332  W485    2.658   .     S
S333   W484    2.511   .     S
S333   Cu496   2.219   .     S
S333   Cu504   2.228   .     S
S334   W485    2.554   .     S
N335   C338    1.363   .     A
N335   C342    1.362   .     A
N335   Cu496   2.014   1_565 S
N336   C343    1.361   .     A
N336   C347    1.363   .     A
N336   Cu504   2.003   .     S
N337   C348    1.358   .     A
N337   C352    1.356   .     A
C338   C339    1.410   .     A
C338   H353    1.079   .     S
C339   C340    1.409   .     A
C339   H354    1.080   .     S
C340   C341    1.405   .     A
C340   C460    1.512   .     S
C341   C342    1.406   .     A
C341   H355    1.078   .     S
C342   H356    1.081   .     S
C343   C344    1.403   .     A
C343   H357    1.079   .     S
C344   C345    1.408   .     A
C344   H358    1.082   .     S
C345   C346    1.411   .     A
C345   C465    1.508   .     S
C346   C347    1.408   .     A
C346   H359    1.082   .     S
C347   H360    1.082   .     S
C348   C349    1.399   .     A
C348   H549    1.082   .     S
C349   C350    1.405   .     A
C349   H550    1.082   .     S
C350   C351    1.402   .     A
C350   C110    1.480   1_455 S
C351   C352    1.391   .     A
C351   H551    1.081   .     S
C352   H552    1.077   .     S
I361   Cu362   2.633   1_465 S
Cu362  S364    2.246   .     S
Cu362  N367    1.958   .     S
Cu362  W488    2.665   .     S
Cu362  I361    2.633   1_645 S
S363   W484    2.540   .     S
S363   Cu495   2.234   .     S
S363   Cu504   2.237   .     S
S364   W488    2.550   .     S
N365   C368    1.362   .     A
N365   C372    1.364   .     A
N365   Cu495   2.012   .     S
N366   C373    1.362   .     A
N366   C377    1.363   .     A
N366   Cu504   2.015   .     S
N367   C378    1.355   .     A
N367   C382    1.361   1_655 S
C368   C369    1.404   .     A
C368   H383    1.082   .     S
C369   C370    1.409   .     A
C369   H384    1.082   .     S
C370   C371    1.409   .     A
C371   C372    1.410   .     A
C371   H385    1.082   .     S
C372   H386    1.082   .     S
C373   C374    1.407   .     A
C373   H387    1.073   .     S
C374   C375    1.410   .     A
C374   H388    1.082   .     S
C375   C376    1.410   .     A
C376   C377    1.404   .     A
C376   H389    1.082   .     S
C377   H390    1.081   .     S
C378   C379    1.396   .     A
C378   H553    1.081   .     S
C379   C380    1.404   .     A
C379   H554    1.083   .     S
C380   C140    1.485   1_645 S
C380   C381    1.403   1_645 S
C381   H555    1.082   .     S
C381   C380    1.403   1_465 S
C381   C382    1.398   1_565 S
C382   H556    1.080   .     S
C382   N367    1.361   1_455 S
C382   C381    1.398   1_545 S
I391   Cu392   2.633   .     S
Cu392  S394    2.247   .     S
Cu392  N397    1.957   .     S
Cu392  W488    2.666   .     S
S393   W484    2.540   .     S
S393   Cu496   2.235   .     S
S393   Cu503   2.238   .     S
S394   W488    2.550   .     S
N395   C398    1.362   .     A
N395   C402    1.364   .     A
N395   Cu496   2.012   .     S
N396   C403    1.362   .     A
N396   Cu503   2.015   .     S
N396   C407    1.363   1_554 S
N397   C408    1.355   .     A
N397   C412    1.361   .     A
C398   C399    1.404   .     A
C398   H413    1.082   .     S
C399   C400    1.408   .     A
C399   H414    1.081   .     S
C400   C401    1.409   .     A
C401   C402    1.410   .     A
C401   H415    1.082   .     S
C402   H416    1.081   .     S
C403   H417    1.073   .     S
C403   C404    1.407   1_554 S
C404   C405    1.409   .     A
C404   H418    1.082   .     S
C404   C403    1.407   1_556 S
C405   C406    1.409   .     A
C406   C407    1.404   .     A
C406   H419    1.082   .     S
C407   H420    1.081   .     S
C407   N396    1.363   1_556 S
C408   C409    1.396   .     A
C408   H557    1.081   .     S
C409   C410    1.404   .     A
C409   H558    1.083   .     S
C410   C411    1.403   .     A
C410   C170    1.484   1_656 S
C411   C412    1.398   .     A
C411   H559    1.082   .     S
C412   H560    1.080   .     S
I421   Cu422   2.631   1_545 S
Cu422  S424    2.246   .     S
Cu422  N427    1.958   .     S
Cu422  W487    2.667   .     S
Cu422  I421    2.631   1_565 S
S423   W483    2.541   .     S
S423   Cu493   2.238   .     S
S423   Cu502   2.242   .     S
S424   W487    2.551   .     S
N425   C428    1.363   .     A
N425   C432    1.364   .     A
N425   Cu493   2.014   .     S
N426   C433    1.361   .     A
N426   C437    1.363   .     A
N426   Cu502   2.013   .     S
N427   C438    1.355   .     A
N427   C442    1.360   1_565 A
C428   C429    1.407   .     A
C428   H443    1.082   .     S
C429   C430    1.408   .     A
C429   H444    1.081   .     S
C430   C431    1.405   .     A
C431   C432    1.409   .     A
C431   H445    1.076   .     S
C432   H446    1.082   .     S
C433   C434    1.406   .     A
C433   H447    1.073   .     S
C434   C435    1.408   .     A
C434   H448    1.082   .     S
C435   C436    1.409   .     A
C436   C437    1.405   .     A
C436   H449    1.082   .     S
C437   H450    1.081   .     S
C438   C439    1.396   .     A
C438   H561    1.082   .     S
C439   C440    1.405   .     A
C439   H562    1.082   .     S
C440   C200    1.487   1_565 A
C440   C441    1.404   1_565 S
C441   C442    1.397   .     A
C441   H563    1.082   .     S
C441   C440    1.404   1_545 S
C442   H564    1.079   .     S
C442   N427    1.360   1_545 A
I451   Cu452   2.631   1_656 A
Cu452  S454    2.245   .     S
Cu452  N457    1.958   .     S
Cu452  W487    2.667   .     S
Cu452  I451    2.631   1_454 A
S453   W483    2.542   .     S
S453   Cu494   2.238   .     S
S453   Cu501   2.242   .     S
S454   W487    2.551   .     S
N455   C462    1.363   .     A
N455   Cu494   2.014   .     S
N455   C458    1.363   1_556 S
N456   C463    1.361   .     A
N456   C467    1.363   .     A
N456   Cu501   2.013   .     S
N457   C468    1.355   .     A
N457   C472    1.360   1_554 A
C458   C459    1.407   .     A
C458   H473    1.082   .     S
C458   N455    1.363   1_554 S
C459   C460    1.408   .     A
C459   H474    1.081   .     S
C460   C461    1.405   1_554 A
C461   C462    1.409   .     A
C461   H475    1.076   .     S
C461   C460    1.405   1_556 A
C462   H476    1.082   .     S
C463   C464    1.407   .     A
C463   H477    1.073   .     S
C464   C465    1.409   .     A
C464   H478    1.081   .     S
C465   C466    1.409   .     A
C466   C467    1.404   .     A
C466   H479    1.082   .     S
C467   H480    1.081   .     S
C468   C469    1.396   .     A
C468   H565    1.082   .     S
C469   C470    1.404   .     A
C469   H566    1.082   .     S
C470   C230    1.484   1_464 S
C470   C471    1.403   1_454 S
C471   H567    1.082   .     S
C471   C470    1.403   1_656 S
C471   C472    1.398   1_655 S
C472   H568    1.079   .     S
C472   N457    1.360   1_556 A
C472   C471    1.398   1_455 S
W481   Cu489   2.748   .     S
W481   Cu490   2.747   .     S
W481   Cu497   2.747   .     S
W481   Cu498   2.747   .     S
W482   Cu491   2.750   .     S
W482   Cu492   2.749   .     S
W482   Cu499   2.747   .     S
W482   Cu500   2.746   .     S
W483   Cu493   2.747   .     S
W483   Cu494   2.748   .     S
W483   Cu501   2.749   .     S
W483   Cu502   2.748   .     S
W484   Cu495   2.744   .     S
W484   Cu496   2.744   .     S
W484   Cu503   2.750   .     S
W484   Cu504   2.750   .     S
Cu489  N5      2.016   1_655 S
Cu492  N95     2.018   1_565 A
Cu493  N245    2.012   1_455 A
Cu496  N335    2.014   1_545 S
Cu498  N36     2.014   1_655 S
Cu499  N66     2.014   1_565 S
Cu502  N276    2.004   1_455 S
Cu503  N306    2.003   1_545 S
