data_image0
_cell_length_a       25.997
_cell_length_b       25.997
_cell_length_c       26.7847
_cell_angle_alpha    90
_cell_angle_beta     90
_cell_angle_gamma    90

_symmetry_space_group_name_H-M    "P 1"
_symmetry_int_tables_number       1

loop_
  _symmetry_equiv_pos_as_xyz
  'x, y, z'

loop_
  _atom_site_label
  _atom_site_occupancy
  _atom_site_fract_x
  _atom_site_fract_y
  _atom_site_fract_z
  _atom_site_thermal_displace_type
  _atom_site_B_iso_or_equiv
  _atom_site_type_symbol
  La1      1.0000 0.75106  0.74073  0.08273  Biso   1.000  La
  O1       1.0000 0.78940  0.30780  0.19040  Biso   1.000  O
  O2       1.0000 0.71800  0.16870  0.20270  Biso   1.000  O
  O3       1.0000 0.82800  0.20340  0.19880  Biso   1.000  O
  O4       1.0000 0.68540  0.27620  0.20350  Biso   1.000  O
  O5       1.0000 0.82780  0.77920  0.04550  Biso   1.000  O
  O6       1.0000 0.77940  0.80650  0.14060  Biso   1.000  O
  O7       1.0000 0.68880  0.71270  0.01890  Biso   1.000  O
  O8       1.0000 0.79230  0.67190  0.02760  Biso   1.000  O
  O9       1.0000 0.32600  0.23010  0.12830  Biso   1.000  O
  O10      1.0000 0.72090  0.81440  0.03560  Biso   1.000  O
  O11      1.0000 0.18400  0.29680  0.14110  Biso   1.000  O
  O12      1.0000 0.70790  0.66120  0.11830  Biso   1.000  O
  N1       1.0000 0.77480  0.35669  0.18792  Biso   1.000  N
  C1       1.0000 0.73835  0.36752  0.15478  Biso   1.000  C
  H1       1.0000 0.72140  0.34030  0.13770  Biso   1.000  H
  C2       1.0000 0.72481  0.41777  0.14499  Biso   1.000  C
  H2       1.0000 0.69870  0.42480  0.12110  Biso   1.000  H
  C3       1.0000 0.74838  0.45780  0.16915  Biso   1.000  C
  C4       1.0000 0.78610  0.44488  0.20310  Biso   1.000  C
  H3       1.0000 0.80370  0.47140  0.22050  Biso   1.000  H
  C5       1.0000 0.79890  0.39429  0.21233  Biso   1.000  C
  H4       1.0000 0.82480  0.38630  0.23610  Biso   1.000  H
  N2       1.0000 0.72520  0.11740  0.19890  Biso   1.000  N
  C6       1.0000 0.69340  0.08205  0.21730  Biso   1.000  C
  H5       1.0000 0.66650  0.09190  0.23930  Biso   1.000  H
  C7       1.0000 0.69960  0.03100  0.20430  Biso   1.000  C
  H6       1.0000 0.67460  0.00660  0.21470  Biso   1.000  H
  C8       1.0000 0.74130  0.01480  0.17680  Biso   1.000  C
  C9       1.0000 0.77460  0.05275  0.16180  Biso   1.000  C
  H7       1.0000 0.80660  0.04340  0.14720  Biso   1.000  H
  C10      1.0000 0.76280  0.10436  0.16730  Biso   1.000  C
  H8       1.0000 0.78110  0.12990  0.14920  Biso   1.000  H
  N3       1.0000 0.87551  0.21417  0.18930  Biso   1.000  N
  C11      1.0000 0.88693  0.25480  0.16100  Biso   1.000  C
  H9       1.0000 0.86030  0.27620  0.14820  Biso   1.000  H
  C12      1.0000 0.93783  0.26560  0.15030  Biso   1.000  C
  H10      1.0000 0.94580  0.29030  0.12530  Biso   1.000  H
  C13      1.0000 0.97730  0.24110  0.17510  Biso   1.000  C
  C14      1.0000 0.96385  0.20000  0.20470  Biso   1.000  C
  H11      1.0000 0.98980  0.18090  0.22140  Biso   1.000  H
  C15      1.0000 0.91278  0.18630  0.21010  Biso   1.000  C
  H12      1.0000 0.90410  0.15660  0.22900  Biso   1.000  H
  N4       1.0000 0.63540  0.26680  0.18850  Biso   1.000  N
  C16      1.0000 0.60156  0.30040  0.20680  Biso   1.000  C
  H13      1.0000 0.61270  0.32810  0.22730  Biso   1.000  H
  C17      1.0000 0.54993  0.29440  0.19560  Biso   1.000  C
  H14      1.0000 0.52540  0.31690  0.21030  Biso   1.000  H
  C18      1.0000 0.53350  0.25660  0.16350  Biso   1.000  C
  C19      1.0000 0.56997  0.22260  0.14730  Biso   1.000  C
  H15      1.0000 0.55950  0.19330  0.12870  Biso   1.000  H
  C20      1.0000 0.62140  0.22980  0.15710  Biso   1.000  C
  H16      1.0000 0.64660  0.20870  0.14160  Biso   1.000  H
  N5       1.0000 0.87538  0.77150  0.02760  Biso   1.000  N
  C21      1.0000 0.88939  0.73220  0.99880  Biso   1.000  C
  H17      1.0000 0.86510  0.70680  0.98900  Biso   1.000  H
  C22      1.0000 0.94026  0.72920  0.98330  Biso   1.000  C
  H18      1.0000 0.94900  0.70760  0.95600  Biso   1.000  H
  C23      1.0000 0.97830  0.75690  0.00710  Biso   1.000  C
  C24      1.0000 0.96187  0.79450  0.03980  Biso   1.000  C
  H19      1.0000 0.98640  0.81700  0.05450  Biso   1.000  H
  C25      1.0000 0.91044  0.80010  0.05130  Biso   1.000  C
  H20      1.0000 0.90000  0.82410  0.07610  Biso   1.000  H
  N6       1.0000 0.76718  0.85670  0.14980  Biso   1.000  N
  C26      1.0000 0.80120  0.89079  0.13280  Biso   1.000  C
  H21      1.0000 0.83150  0.87920  0.11630  Biso   1.000  H
  C27      1.0000 0.79280  0.94290  0.13900  Biso   1.000  C
  H22      1.0000 0.81550  0.96670  0.12350  Biso   1.000  H
  C28      1.0000 0.75240  0.96100  0.16720  Biso   1.000  C
  C29      1.0000 0.71610  0.92443  0.17960  Biso   1.000  C
  H23      1.0000 0.68290  0.93510  0.19010  Biso   1.000  H
  C30      1.0000 0.72720  0.87250  0.17700  Biso   1.000  C
  H24      1.0000 0.70650  0.84830  0.19450  Biso   1.000  H
  N7       1.0000 0.63860  0.72487  0.01040  Biso   1.000  N
  C31      1.0000 0.62572  0.76630  0.98390  Biso   1.000  C
  H25      1.0000 0.65150  0.78770  0.96980  Biso   1.000  H
  C32      1.0000 0.57409  0.77770  0.97710  Biso   1.000  C
  H26      1.0000 0.56470  0.80510  0.95550  Biso   1.000  H
  C33      1.0000 0.53620  0.75020  0.00090  Biso   1.000  C
  C34      1.0000 0.55203  0.71000  0.03040  Biso   1.000  C
  H27      1.0000 0.52760  0.69230  0.05050  Biso   1.000  H
  C35      1.0000 0.60307  0.69500  0.03150  Biso   1.000  C
  H28      1.0000 0.61270  0.66360  0.04700  Biso   1.000  H
  N8       1.0000 0.78080  0.62130  0.02410  Biso   1.000  N
  C36      1.0000 0.74140  0.60770  0.99520  Biso   1.000  C
  H29      1.0000 0.72100  0.63340  0.97960  Biso   1.000  H
  C37      1.0000 0.73000  0.55635  0.98770  Biso   1.000  C
  H30      1.0000 0.69980  0.54720  0.96980  Biso   1.000  H
  C38      1.0000 0.48200  0.76190  0.99420  Biso   1.000  C
  C39      1.0000 0.46550  0.80290  0.96590  Biso   1.000  C
  H31      1.0000 0.48990  0.82770  0.95500  Biso   1.000  H
  C40      1.0000 0.80900  0.58560  0.04690  Biso   1.000  C
  H32      1.0000 0.83310  0.59520  0.07190  Biso   1.000  H
  N9       1.0000 0.37730  0.23504  0.13050  Biso   1.000  N
  C41      1.0000 0.39043  0.27670  0.15630  Biso   1.000  C
  H33      1.0000 0.36510  0.30040  0.16730  Biso   1.000  H
  C42      1.0000 0.44181  0.28460  0.16650  Biso   1.000  C
  H34      1.0000 0.45190  0.31590  0.18200  Biso   1.000  H
  C43      1.0000 0.47900  0.24890  0.15510  Biso   1.000  C
  C44      1.0000 0.46260  0.20680  0.12900  Biso   1.000  C
  H35      1.0000 0.48730  0.18340  0.11590  Biso   1.000  H
  C45      1.0000 0.41090  0.19730  0.12140  Biso   1.000  C
  H36      1.0000 0.39940  0.16470  0.10980  Biso   1.000  H
  N10      1.0000 0.73101  0.86440  0.02710  Biso   1.000  N
  C46      1.0000 0.77610  0.87764  0.00680  Biso   1.000  C
  H37      1.0000 0.80180  0.85250  0.00040  Biso   1.000  H
  C47      1.0000 0.78450  0.92878  0.99530  Biso   1.000  C
  H38      1.0000 0.81480  0.93810  0.97760  Biso   1.000  H
  C48      1.0000 0.03320  0.75010  0.99110  Biso   1.000  C
  C49      1.0000 0.04950  0.70380  0.97200  Biso   1.000  C
  H39      1.0000 0.02490  0.67790  0.96450  Biso   1.000  H
  C50      1.0000 0.69430  0.89890  0.03650  Biso   1.000  C
  H40      1.0000 0.66190  0.88810  0.04900  Biso   1.000  H
  N11      1.0000 0.13330  0.28160  0.14870  Biso   1.000  N
  C51      1.0000 0.12208  0.24480  0.18170  Biso   1.000  C
  H41      1.0000 0.14890  0.22740  0.19880  Biso   1.000  H
  C52      1.0000 0.07148  0.23190  0.19080  Biso   1.000  C
  H42      1.0000 0.06390  0.20560  0.21430  Biso   1.000  H
  C53      1.0000 0.03180  0.25640  0.16640  Biso   1.000  C
  C54      1.0000 0.04527  0.29500  0.13370  Biso   1.000  C
  H43      1.0000 0.01910  0.31500  0.11820  Biso   1.000  H
  C55      1.0000 0.09630  0.30500  0.12290  Biso   1.000  C
  H44      1.0000 0.10500  0.32860  0.09710  Biso   1.000  H
  N12      1.0000 0.71761  0.61480  0.13260  Biso   1.000  N
  C56      1.0000 0.75930  0.60310  0.15930  Biso   1.000  C
  H45      1.0000 0.78470  0.62860  0.16570  Biso   1.000  H
  C57      1.0000 0.76570  0.55400  0.17760  Biso   1.000  C
  H46      1.0000 0.79020  0.54790  0.20320  Biso   1.000  H
  C58      1.0000 0.73700  0.51370  0.15960  Biso   1.000  C
  C59      1.0000 0.69420  0.52743  0.13240  Biso   1.000  C
  H47      1.0000 0.67100  0.50150  0.12180  Biso   1.000  H
  C60      1.0000 0.68440  0.57800  0.12020  Biso   1.000  C
  H48      1.0000 0.65370  0.58660  0.10290  Biso   1.000  H
  La2      1.0000 0.24894  0.25927  0.08273  Biso   1.000  La
  O13      1.0000 0.21060  0.69220  0.19040  Biso   1.000  O
  O14      1.0000 0.28200  0.83130  0.20270  Biso   1.000  O
  O15      1.0000 0.17200  0.79660  0.19880  Biso   1.000  O
  O16      1.0000 0.31460  0.72380  0.20350  Biso   1.000  O
  O17      1.0000 0.17220  0.22080  0.04550  Biso   1.000  O
  O18      1.0000 0.22060  0.19350  0.14060  Biso   1.000  O
  O19      1.0000 0.31120  0.28730  0.01890  Biso   1.000  O
  O20      1.0000 0.20770  0.32810  0.02760  Biso   1.000  O
  O21      1.0000 0.67400  0.76990  0.12830  Biso   1.000  O
  O22      1.0000 0.27910  0.18560  0.03560  Biso   1.000  O
  O23      1.0000 0.81600  0.70320  0.14110  Biso   1.000  O
  O24      1.0000 0.29210  0.33880  0.11830  Biso   1.000  O
  N13      1.0000 0.22520  0.64331  0.18792  Biso   1.000  N
  C61      1.0000 0.26165  0.63248  0.15478  Biso   1.000  C
  H49      1.0000 0.27860  0.65970  0.13770  Biso   1.000  H
  C62      1.0000 0.27519  0.58223  0.14499  Biso   1.000  C
  H50      1.0000 0.30130  0.57520  0.12110  Biso   1.000  H
  C63      1.0000 0.25162  0.54220  0.16915  Biso   1.000  C
  C64      1.0000 0.21390  0.55512  0.20310  Biso   1.000  C
  H51      1.0000 0.19630  0.52860  0.22050  Biso   1.000  H
  C65      1.0000 0.20110  0.60571  0.21233  Biso   1.000  C
  H52      1.0000 0.17520  0.61370  0.23610  Biso   1.000  H
  N14      1.0000 0.27480  0.88260  0.19890  Biso   1.000  N
  C66      1.0000 0.30660  0.91795  0.21730  Biso   1.000  C
  H53      1.0000 0.33350  0.90810  0.23930  Biso   1.000  H
  C67      1.0000 0.30040  0.96900  0.20430  Biso   1.000  C
  H54      1.0000 0.32540  0.99340  0.21470  Biso   1.000  H
  C68      1.0000 0.25870  0.98520  0.17680  Biso   1.000  C
  C69      1.0000 0.22540  0.94725  0.16180  Biso   1.000  C
  H55      1.0000 0.19340  0.95660  0.14720  Biso   1.000  H
  C70      1.0000 0.23720  0.89564  0.16730  Biso   1.000  C
  H56      1.0000 0.21890  0.87010  0.14920  Biso   1.000  H
  N15      1.0000 0.12449  0.78583  0.18930  Biso   1.000  N
  C71      1.0000 0.11307  0.74520  0.16100  Biso   1.000  C
  H57      1.0000 0.13970  0.72380  0.14820  Biso   1.000  H
  C72      1.0000 0.06217  0.73440  0.15030  Biso   1.000  C
  H58      1.0000 0.05420  0.70970  0.12530  Biso   1.000  H
  C73      1.0000 0.02270  0.75890  0.17510  Biso   1.000  C
  C74      1.0000 0.03615  0.80000  0.20470  Biso   1.000  C
  H59      1.0000 0.01020  0.81910  0.22140  Biso   1.000  H
  C75      1.0000 0.08722  0.81370  0.21010  Biso   1.000  C
  H60      1.0000 0.09590  0.84340  0.22900  Biso   1.000  H
  N16      1.0000 0.36460  0.73320  0.18850  Biso   1.000  N
  C76      1.0000 0.39844  0.69960  0.20680  Biso   1.000  C
  H61      1.0000 0.38730  0.67190  0.22730  Biso   1.000  H
  C77      1.0000 0.45007  0.70560  0.19560  Biso   1.000  C
  H62      1.0000 0.47460  0.68310  0.21030  Biso   1.000  H
  C78      1.0000 0.46650  0.74340  0.16350  Biso   1.000  C
  C79      1.0000 0.43003  0.77740  0.14730  Biso   1.000  C
  H63      1.0000 0.44050  0.80670  0.12870  Biso   1.000  H
  C80      1.0000 0.37860  0.77020  0.15710  Biso   1.000  C
  H64      1.0000 0.35340  0.79130  0.14160  Biso   1.000  H
  N17      1.0000 0.12462  0.22850  0.02760  Biso   1.000  N
  C81      1.0000 0.11061  0.26780  0.99880  Biso   1.000  C
  H65      1.0000 0.13490  0.29320  0.98900  Biso   1.000  H
  C82      1.0000 0.05974  0.27080  0.98330  Biso   1.000  C
  H66      1.0000 0.05100  0.29240  0.95600  Biso   1.000  H
  C83      1.0000 0.02170  0.24310  0.00710  Biso   1.000  C
  C84      1.0000 0.03813  0.20550  0.03980  Biso   1.000  C
  H67      1.0000 0.01360  0.18300  0.05450  Biso   1.000  H
  C85      1.0000 0.08956  0.19990  0.05130  Biso   1.000  C
  H68      1.0000 0.10000  0.17590  0.07610  Biso   1.000  H
  N18      1.0000 0.23282  0.14330  0.14980  Biso   1.000  N
  C86      1.0000 0.19880  0.10921  0.13280  Biso   1.000  C
  H69      1.0000 0.16850  0.12080  0.11630  Biso   1.000  H
  C87      1.0000 0.20720  0.05710  0.13900  Biso   1.000  C
  H70      1.0000 0.18450  0.03330  0.12350  Biso   1.000  H
  C88      1.0000 0.24760  0.03900  0.16720  Biso   1.000  C
  C89      1.0000 0.28390  0.07557  0.17960  Biso   1.000  C
  H71      1.0000 0.31710  0.06490  0.19010  Biso   1.000  H
  C90      1.0000 0.27280  0.12750  0.17700  Biso   1.000  C
  H72      1.0000 0.29350  0.15170  0.19450  Biso   1.000  H
  N19      1.0000 0.36140  0.27513  0.01040  Biso   1.000  N
  C91      1.0000 0.37428  0.23370  0.98390  Biso   1.000  C
  H73      1.0000 0.34850  0.21230  0.96980  Biso   1.000  H
  C92      1.0000 0.42591  0.22230  0.97710  Biso   1.000  C
  H74      1.0000 0.43530  0.19490  0.95550  Biso   1.000  H
  C93      1.0000 0.46380  0.24980  0.00090  Biso   1.000  C
  C94      1.0000 0.44797  0.29000  0.03040  Biso   1.000  C
  H75      1.0000 0.47240  0.30770  0.05050  Biso   1.000  H
  C95      1.0000 0.39693  0.30500  0.03150  Biso   1.000  C
  H76      1.0000 0.38730  0.33640  0.04700  Biso   1.000  H
  N20      1.0000 0.21920  0.37870  0.02410  Biso   1.000  N
  C96      1.0000 0.25860  0.39230  0.99520  Biso   1.000  C
  H77      1.0000 0.27900  0.36660  0.97960  Biso   1.000  H
  C97      1.0000 0.27000  0.44365  0.98770  Biso   1.000  C
  H78      1.0000 0.30020  0.45280  0.96980  Biso   1.000  H
  C98      1.0000 0.51800  0.23810  0.99420  Biso   1.000  C
  C99      1.0000 0.53450  0.19710  0.96590  Biso   1.000  C
  H79      1.0000 0.51010  0.17230  0.95500  Biso   1.000  H
  C100     1.0000 0.19100  0.41440  0.04690  Biso   1.000  C
  H80      1.0000 0.16690  0.40480  0.07190  Biso   1.000  H
  N21      1.0000 0.62270  0.76496  0.13050  Biso   1.000  N
  C101     1.0000 0.60957  0.72330  0.15630  Biso   1.000  C
  H81      1.0000 0.63490  0.69960  0.16730  Biso   1.000  H
  C102     1.0000 0.55819  0.71540  0.16650  Biso   1.000  C
  H82      1.0000 0.54810  0.68410  0.18200  Biso   1.000  H
  C103     1.0000 0.52100  0.75110  0.15510  Biso   1.000  C
  C104     1.0000 0.53740  0.79320  0.12900  Biso   1.000  C
  H83      1.0000 0.51270  0.81660  0.11590  Biso   1.000  H
  C105     1.0000 0.58910  0.80270  0.12140  Biso   1.000  C
  H84      1.0000 0.60060  0.83530  0.10980  Biso   1.000  H
  N22      1.0000 0.26899  0.13560  0.02710  Biso   1.000  N
  C106     1.0000 0.22390  0.12236  0.00680  Biso   1.000  C
  H85      1.0000 0.19820  0.14750  0.00040  Biso   1.000  H
  C107     1.0000 0.21550  0.07122  0.99530  Biso   1.000  C
  H86      1.0000 0.18520  0.06190  0.97760  Biso   1.000  H
  C108     1.0000 0.96680  0.24990  0.99110  Biso   1.000  C
  C109     1.0000 0.95050  0.29620  0.97200  Biso   1.000  C
  H87      1.0000 0.97510  0.32210  0.96450  Biso   1.000  H
  C110     1.0000 0.30570  0.10110  0.03650  Biso   1.000  C
  H88      1.0000 0.33810  0.11190  0.04900  Biso   1.000  H
  N23      1.0000 0.86670  0.71840  0.14870  Biso   1.000  N
  C111     1.0000 0.87792  0.75520  0.18170  Biso   1.000  C
  H89      1.0000 0.85110  0.77260  0.19880  Biso   1.000  H
  C112     1.0000 0.92852  0.76810  0.19080  Biso   1.000  C
  H90      1.0000 0.93610  0.79440  0.21430  Biso   1.000  H
  C113     1.0000 0.96820  0.74360  0.16640  Biso   1.000  C
  C114     1.0000 0.95473  0.70500  0.13370  Biso   1.000  C
  H91      1.0000 0.98090  0.68500  0.11820  Biso   1.000  H
  C115     1.0000 0.90370  0.69500  0.12290  Biso   1.000  C
  H92      1.0000 0.89500  0.67140  0.09710  Biso   1.000  H
  N24      1.0000 0.28239  0.38520  0.13260  Biso   1.000  N
  C116     1.0000 0.24070  0.39690  0.15930  Biso   1.000  C
  H93      1.0000 0.21530  0.37140  0.16570  Biso   1.000  H
  C117     1.0000 0.23430  0.44600  0.17760  Biso   1.000  C
  H94      1.0000 0.20980  0.45210  0.20320  Biso   1.000  H
  C118     1.0000 0.26300  0.48630  0.15960  Biso   1.000  C
  C119     1.0000 0.30580  0.47257  0.13240  Biso   1.000  C
  H95      1.0000 0.32900  0.49850  0.12180  Biso   1.000  H
  C120     1.0000 0.31560  0.42200  0.12020  Biso   1.000  C
  H96      1.0000 0.34630  0.41340  0.10290  Biso   1.000  H
  La3      1.0000 0.74073  0.24894  0.91727  Biso   1.000  La
  O25      1.0000 0.30780  0.21060  0.80960  Biso   1.000  O
  O26      1.0000 0.16870  0.28200  0.79730  Biso   1.000  O
  O27      1.0000 0.20340  0.17200  0.80120  Biso   1.000  O
  O28      1.0000 0.27620  0.31460  0.79650  Biso   1.000  O
  O29      1.0000 0.77920  0.17220  0.95450  Biso   1.000  O
  O30      1.0000 0.80650  0.22060  0.85940  Biso   1.000  O
  O31      1.0000 0.71270  0.31120  0.98110  Biso   1.000  O
  O32      1.0000 0.67190  0.20770  0.97240  Biso   1.000  O
  O33      1.0000 0.23010  0.67400  0.87170  Biso   1.000  O
  O34      1.0000 0.81440  0.27910  0.96440  Biso   1.000  O
  O35      1.0000 0.29680  0.81600  0.85890  Biso   1.000  O
  O36      1.0000 0.66120  0.29210  0.88170  Biso   1.000  O
  N25      1.0000 0.35669  0.22520  0.81208  Biso   1.000  N
  C121     1.0000 0.36752  0.26165  0.84522  Biso   1.000  C
  H97      1.0000 0.34030  0.27860  0.86230  Biso   1.000  H
  C122     1.0000 0.41777  0.27519  0.85501  Biso   1.000  C
  H98      1.0000 0.42480  0.30130  0.87890  Biso   1.000  H
  C123     1.0000 0.45780  0.25162  0.83085  Biso   1.000  C
  C124     1.0000 0.44488  0.21390  0.79690  Biso   1.000  C
  H99      1.0000 0.47140  0.19630  0.77950  Biso   1.000  H
  C125     1.0000 0.39429  0.20110  0.78767  Biso   1.000  C
  H100     1.0000 0.38630  0.17520  0.76390  Biso   1.000  H
  N26      1.0000 0.11740  0.27480  0.80110  Biso   1.000  N
  C126     1.0000 0.08205  0.30660  0.78270  Biso   1.000  C
  H101     1.0000 0.09190  0.33350  0.76070  Biso   1.000  H
  C127     1.0000 0.03100  0.30040  0.79570  Biso   1.000  C
  H102     1.0000 0.00660  0.32540  0.78530  Biso   1.000  H
  C128     1.0000 0.01480  0.25870  0.82320  Biso   1.000  C
  C129     1.0000 0.05275  0.22540  0.83820  Biso   1.000  C
  H103     1.0000 0.04340  0.19340  0.85280  Biso   1.000  H
  C130     1.0000 0.10436  0.23720  0.83270  Biso   1.000  C
  H104     1.0000 0.12990  0.21890  0.85080  Biso   1.000  H
  N27      1.0000 0.21417  0.12449  0.81070  Biso   1.000  N
  C131     1.0000 0.25480  0.11307  0.83900  Biso   1.000  C
  H105     1.0000 0.27620  0.13970  0.85180  Biso   1.000  H
  C132     1.0000 0.26560  0.06217  0.84970  Biso   1.000  C
  H106     1.0000 0.29030  0.05420  0.87470  Biso   1.000  H
  C133     1.0000 0.24110  0.02270  0.82490  Biso   1.000  C
  C134     1.0000 0.20000  0.03615  0.79530  Biso   1.000  C
  H107     1.0000 0.18090  0.01020  0.77860  Biso   1.000  H
  C135     1.0000 0.18630  0.08722  0.78990  Biso   1.000  C
  H108     1.0000 0.15660  0.09590  0.77100  Biso   1.000  H
  N28      1.0000 0.26680  0.36460  0.81150  Biso   1.000  N
  C136     1.0000 0.30040  0.39844  0.79320  Biso   1.000  C
  H109     1.0000 0.32810  0.38730  0.77270  Biso   1.000  H
  C137     1.0000 0.29440  0.45007  0.80440  Biso   1.000  C
  H110     1.0000 0.31690  0.47460  0.78970  Biso   1.000  H
  C138     1.0000 0.25660  0.46650  0.83650  Biso   1.000  C
  C139     1.0000 0.22260  0.43003  0.85270  Biso   1.000  C
  H111     1.0000 0.19330  0.44050  0.87130  Biso   1.000  H
  C140     1.0000 0.22980  0.37860  0.84290  Biso   1.000  C
  H112     1.0000 0.20870  0.35340  0.85840  Biso   1.000  H
  N29      1.0000 0.77150  0.12462  0.97240  Biso   1.000  N
  C141     1.0000 0.73220  0.11061  0.00120  Biso   1.000  C
  H113     1.0000 0.70680  0.13490  0.01100  Biso   1.000  H
  C142     1.0000 0.72920  0.05974  0.01670  Biso   1.000  C
  H114     1.0000 0.70760  0.05100  0.04400  Biso   1.000  H
  C143     1.0000 0.75690  0.02170  0.99290  Biso   1.000  C
  C144     1.0000 0.79450  0.03813  0.96020  Biso   1.000  C
  H115     1.0000 0.81700  0.01360  0.94550  Biso   1.000  H
  C145     1.0000 0.80010  0.08956  0.94870  Biso   1.000  C
  H116     1.0000 0.82410  0.10000  0.92390  Biso   1.000  H
  N30      1.0000 0.85670  0.23282  0.85020  Biso   1.000  N
  C146     1.0000 0.89079  0.19880  0.86720  Biso   1.000  C
  H117     1.0000 0.87920  0.16850  0.88370  Biso   1.000  H
  C147     1.0000 0.94290  0.20720  0.86100  Biso   1.000  C
  H118     1.0000 0.96670  0.18450  0.87650  Biso   1.000  H
  C148     1.0000 0.96100  0.24760  0.83280  Biso   1.000  C
  C149     1.0000 0.92443  0.28390  0.82040  Biso   1.000  C
  H119     1.0000 0.93510  0.31710  0.80990  Biso   1.000  H
  C150     1.0000 0.87250  0.27280  0.82300  Biso   1.000  C
  H120     1.0000 0.84830  0.29350  0.80550  Biso   1.000  H
  N31      1.0000 0.72487  0.36140  0.98960  Biso   1.000  N
  C151     1.0000 0.76630  0.37428  0.01610  Biso   1.000  C
  H121     1.0000 0.78770  0.34850  0.03020  Biso   1.000  H
  C152     1.0000 0.77770  0.42591  0.02290  Biso   1.000  C
  H122     1.0000 0.80510  0.43530  0.04450  Biso   1.000  H
  C153     1.0000 0.75020  0.46380  0.99910  Biso   1.000  C
  C154     1.0000 0.71000  0.44797  0.96960  Biso   1.000  C
  H123     1.0000 0.69230  0.47240  0.94950  Biso   1.000  H
  C155     1.0000 0.69500  0.39693  0.96850  Biso   1.000  C
  H124     1.0000 0.66360  0.38730  0.95300  Biso   1.000  H
  N32      1.0000 0.62130  0.21920  0.97590  Biso   1.000  N
  C156     1.0000 0.60770  0.25860  0.00480  Biso   1.000  C
  H125     1.0000 0.63340  0.27900  0.02040  Biso   1.000  H
  C157     1.0000 0.55635  0.27000  0.01230  Biso   1.000  C
  H126     1.0000 0.54720  0.30020  0.03020  Biso   1.000  H
  C158     1.0000 0.76190  0.51800  0.00580  Biso   1.000  C
  C159     1.0000 0.80290  0.53450  0.03410  Biso   1.000  C
  H127     1.0000 0.82770  0.51010  0.04500  Biso   1.000  H
  C160     1.0000 0.58560  0.19100  0.95310  Biso   1.000  C
  H128     1.0000 0.59520  0.16690  0.92810  Biso   1.000  H
  N33      1.0000 0.23504  0.62270  0.86950  Biso   1.000  N
  C161     1.0000 0.27670  0.60957  0.84370  Biso   1.000  C
  H129     1.0000 0.30040  0.63490  0.83270  Biso   1.000  H
  C162     1.0000 0.28460  0.55819  0.83350  Biso   1.000  C
  H130     1.0000 0.31590  0.54810  0.81800  Biso   1.000  H
  C163     1.0000 0.24890  0.52100  0.84490  Biso   1.000  C
  C164     1.0000 0.20680  0.53740  0.87100  Biso   1.000  C
  H131     1.0000 0.18340  0.51270  0.88410  Biso   1.000  H
  C165     1.0000 0.19730  0.58910  0.87860  Biso   1.000  C
  H132     1.0000 0.16470  0.60060  0.89020  Biso   1.000  H
  N34      1.0000 0.86440  0.26899  0.97290  Biso   1.000  N
  C166     1.0000 0.87764  0.22390  0.99320  Biso   1.000  C
  H133     1.0000 0.85250  0.19820  0.99960  Biso   1.000  H
  C167     1.0000 0.92878  0.21550  0.00470  Biso   1.000  C
  H134     1.0000 0.93810  0.18520  0.02240  Biso   1.000  H
  C168     1.0000 0.75010  0.96680  0.00890  Biso   1.000  C
  C169     1.0000 0.70380  0.95050  0.02800  Biso   1.000  C
  H135     1.0000 0.67790  0.97510  0.03550  Biso   1.000  H
  C170     1.0000 0.89890  0.30570  0.96350  Biso   1.000  C
  H136     1.0000 0.88810  0.33810  0.95100  Biso   1.000  H
  N35      1.0000 0.28160  0.86670  0.85130  Biso   1.000  N
  C171     1.0000 0.24480  0.87792  0.81830  Biso   1.000  C
  H137     1.0000 0.22740  0.85110  0.80120  Biso   1.000  H
  C172     1.0000 0.23190  0.92852  0.80920  Biso   1.000  C
  H138     1.0000 0.20560  0.93610  0.78570  Biso   1.000  H
  C173     1.0000 0.25640  0.96820  0.83360  Biso   1.000  C
  C174     1.0000 0.29500  0.95473  0.86630  Biso   1.000  C
  H139     1.0000 0.31500  0.98090  0.88180  Biso   1.000  H
  C175     1.0000 0.30500  0.90370  0.87710  Biso   1.000  C
  H140     1.0000 0.32860  0.89500  0.90290  Biso   1.000  H
  N36      1.0000 0.61480  0.28239  0.86740  Biso   1.000  N
  C176     1.0000 0.60310  0.24070  0.84070  Biso   1.000  C
  H141     1.0000 0.62860  0.21530  0.83430  Biso   1.000  H
  C177     1.0000 0.55400  0.23430  0.82240  Biso   1.000  C
  H142     1.0000 0.54790  0.20980  0.79680  Biso   1.000  H
  C178     1.0000 0.51370  0.26300  0.84040  Biso   1.000  C
  C179     1.0000 0.52743  0.30580  0.86760  Biso   1.000  C
  H143     1.0000 0.50150  0.32900  0.87820  Biso   1.000  H
  C180     1.0000 0.57800  0.31560  0.87980  Biso   1.000  C
  H144     1.0000 0.58660  0.34630  0.89710  Biso   1.000  H
  La4      1.0000 0.25927  0.75106  0.91727  Biso   1.000  La
  O37      1.0000 0.69220  0.78940  0.80960  Biso   1.000  O
  O38      1.0000 0.83130  0.71800  0.79730  Biso   1.000  O
  O39      1.0000 0.79660  0.82800  0.80120  Biso   1.000  O
  O40      1.0000 0.72380  0.68540  0.79650  Biso   1.000  O
  O41      1.0000 0.22080  0.82780  0.95450  Biso   1.000  O
  O42      1.0000 0.19350  0.77940  0.85940  Biso   1.000  O
  O43      1.0000 0.28730  0.68880  0.98110  Biso   1.000  O
  O44      1.0000 0.32810  0.79230  0.97240  Biso   1.000  O
  O45      1.0000 0.76990  0.32600  0.87170  Biso   1.000  O
  O46      1.0000 0.18560  0.72090  0.96440  Biso   1.000  O
  O47      1.0000 0.70320  0.18400  0.85890  Biso   1.000  O
  O48      1.0000 0.33880  0.70790  0.88170  Biso   1.000  O
  N37      1.0000 0.64331  0.77480  0.81208  Biso   1.000  N
  C181     1.0000 0.63248  0.73835  0.84522  Biso   1.000  C
  H145     1.0000 0.65970  0.72140  0.86230  Biso   1.000  H
  C182     1.0000 0.58223  0.72481  0.85501  Biso   1.000  C
  H146     1.0000 0.57520  0.69870  0.87890  Biso   1.000  H
  C183     1.0000 0.54220  0.74838  0.83085  Biso   1.000  C
  C184     1.0000 0.55512  0.78610  0.79690  Biso   1.000  C
  H147     1.0000 0.52860  0.80370  0.77950  Biso   1.000  H
  C185     1.0000 0.60571  0.79890  0.78767  Biso   1.000  C
  H148     1.0000 0.61370  0.82480  0.76390  Biso   1.000  H
  N38      1.0000 0.88260  0.72520  0.80110  Biso   1.000  N
  C186     1.0000 0.91795  0.69340  0.78270  Biso   1.000  C
  H149     1.0000 0.90810  0.66650  0.76070  Biso   1.000  H
  C187     1.0000 0.96900  0.69960  0.79570  Biso   1.000  C
  H150     1.0000 0.99340  0.67460  0.78530  Biso   1.000  H
  C188     1.0000 0.98520  0.74130  0.82320  Biso   1.000  C
  C189     1.0000 0.94725  0.77460  0.83820  Biso   1.000  C
  H151     1.0000 0.95660  0.80660  0.85280  Biso   1.000  H
  C190     1.0000 0.89564  0.76280  0.83270  Biso   1.000  C
  H152     1.0000 0.87010  0.78110  0.85080  Biso   1.000  H
  N39      1.0000 0.78583  0.87551  0.81070  Biso   1.000  N
  C191     1.0000 0.74520  0.88693  0.83900  Biso   1.000  C
  H153     1.0000 0.72380  0.86030  0.85180  Biso   1.000  H
  C192     1.0000 0.73440  0.93783  0.84970  Biso   1.000  C
  H154     1.0000 0.70970  0.94580  0.87470  Biso   1.000  H
  C193     1.0000 0.75890  0.97730  0.82490  Biso   1.000  C
  C194     1.0000 0.80000  0.96385  0.79530  Biso   1.000  C
  H155     1.0000 0.81910  0.98980  0.77860  Biso   1.000  H
  C195     1.0000 0.81370  0.91278  0.78990  Biso   1.000  C
  H156     1.0000 0.84340  0.90410  0.77100  Biso   1.000  H
  N40      1.0000 0.73320  0.63540  0.81150  Biso   1.000  N
  C196     1.0000 0.69960  0.60156  0.79320  Biso   1.000  C
  H157     1.0000 0.67190  0.61270  0.77270  Biso   1.000  H
  C197     1.0000 0.70560  0.54993  0.80440  Biso   1.000  C
  H158     1.0000 0.68310  0.52540  0.78970  Biso   1.000  H
  C198     1.0000 0.74340  0.53350  0.83650  Biso   1.000  C
  C199     1.0000 0.77740  0.56997  0.85270  Biso   1.000  C
  H159     1.0000 0.80670  0.55950  0.87130  Biso   1.000  H
  C200     1.0000 0.77020  0.62140  0.84290  Biso   1.000  C
  H160     1.0000 0.79130  0.64660  0.85840  Biso   1.000  H
  N41      1.0000 0.22850  0.87538  0.97240  Biso   1.000  N
  C201     1.0000 0.26780  0.88939  0.00120  Biso   1.000  C
  H161     1.0000 0.29320  0.86510  0.01100  Biso   1.000  H
  C202     1.0000 0.27080  0.94026  0.01670  Biso   1.000  C
  H162     1.0000 0.29240  0.94900  0.04400  Biso   1.000  H
  C203     1.0000 0.24310  0.97830  0.99290  Biso   1.000  C
  C204     1.0000 0.20550  0.96187  0.96020  Biso   1.000  C
  H163     1.0000 0.18300  0.98640  0.94550  Biso   1.000  H
  C205     1.0000 0.19990  0.91044  0.94870  Biso   1.000  C
  H164     1.0000 0.17590  0.90000  0.92390  Biso   1.000  H
  N42      1.0000 0.14330  0.76718  0.85020  Biso   1.000  N
  C206     1.0000 0.10921  0.80120  0.86720  Biso   1.000  C
  H165     1.0000 0.12080  0.83150  0.88370  Biso   1.000  H
  C207     1.0000 0.05710  0.79280  0.86100  Biso   1.000  C
  H166     1.0000 0.03330  0.81550  0.87650  Biso   1.000  H
  C208     1.0000 0.03900  0.75240  0.83280  Biso   1.000  C
  C209     1.0000 0.07557  0.71610  0.82040  Biso   1.000  C
  H167     1.0000 0.06490  0.68290  0.80990  Biso   1.000  H
  C210     1.0000 0.12750  0.72720  0.82300  Biso   1.000  C
  H168     1.0000 0.15170  0.70650  0.80550  Biso   1.000  H
  N43      1.0000 0.27513  0.63860  0.98960  Biso   1.000  N
  C211     1.0000 0.23370  0.62572  0.01610  Biso   1.000  C
  H169     1.0000 0.21230  0.65150  0.03020  Biso   1.000  H
  C212     1.0000 0.22230  0.57409  0.02290  Biso   1.000  C
  H170     1.0000 0.19490  0.56470  0.04450  Biso   1.000  H
  C213     1.0000 0.24980  0.53620  0.99910  Biso   1.000  C
  C214     1.0000 0.29000  0.55203  0.96960  Biso   1.000  C
  H171     1.0000 0.30770  0.52760  0.94950  Biso   1.000  H
  C215     1.0000 0.30500  0.60307  0.96850  Biso   1.000  C
  H172     1.0000 0.33640  0.61270  0.95300  Biso   1.000  H
  N44      1.0000 0.37870  0.78080  0.97590  Biso   1.000  N
  C216     1.0000 0.39230  0.74140  0.00480  Biso   1.000  C
  H173     1.0000 0.36660  0.72100  0.02040  Biso   1.000  H
  C217     1.0000 0.44365  0.73000  0.01230  Biso   1.000  C
  H174     1.0000 0.45280  0.69980  0.03020  Biso   1.000  H
  C218     1.0000 0.23810  0.48200  0.00580  Biso   1.000  C
  C219     1.0000 0.19710  0.46550  0.03410  Biso   1.000  C
  H175     1.0000 0.17230  0.48990  0.04500  Biso   1.000  H
  C220     1.0000 0.41440  0.80900  0.95310  Biso   1.000  C
  H176     1.0000 0.40480  0.83310  0.92810  Biso   1.000  H
  N45      1.0000 0.76496  0.37730  0.86950  Biso   1.000  N
  C221     1.0000 0.72330  0.39043  0.84370  Biso   1.000  C
  H177     1.0000 0.69960  0.36510  0.83270  Biso   1.000  H
  C222     1.0000 0.71540  0.44181  0.83350  Biso   1.000  C
  H178     1.0000 0.68410  0.45190  0.81800  Biso   1.000  H
  C223     1.0000 0.75110  0.47900  0.84490  Biso   1.000  C
  C224     1.0000 0.79320  0.46260  0.87100  Biso   1.000  C
  H179     1.0000 0.81660  0.48730  0.88410  Biso   1.000  H
  C225     1.0000 0.80270  0.41090  0.87860  Biso   1.000  C
  H180     1.0000 0.83530  0.39940  0.89020  Biso   1.000  H
  N46      1.0000 0.13560  0.73101  0.97290  Biso   1.000  N
  C226     1.0000 0.12236  0.77610  0.99320  Biso   1.000  C
  H181     1.0000 0.14750  0.80180  0.99960  Biso   1.000  H
  C227     1.0000 0.07122  0.78450  0.00470  Biso   1.000  C
  H182     1.0000 0.06190  0.81480  0.02240  Biso   1.000  H
  C228     1.0000 0.24990  0.03320  0.00890  Biso   1.000  C
  C229     1.0000 0.29620  0.04950  0.02800  Biso   1.000  C
  H183     1.0000 0.32210  0.02490  0.03550  Biso   1.000  H
  C230     1.0000 0.10110  0.69430  0.96350  Biso   1.000  C
  H184     1.0000 0.11190  0.66190  0.95100  Biso   1.000  H
  N47      1.0000 0.71840  0.13330  0.85130  Biso   1.000  N
  C231     1.0000 0.75520  0.12208  0.81830  Biso   1.000  C
  H185     1.0000 0.77260  0.14890  0.80120  Biso   1.000  H
  C232     1.0000 0.76810  0.07148  0.80920  Biso   1.000  C
  H186     1.0000 0.79440  0.06390  0.78570  Biso   1.000  H
  C233     1.0000 0.74360  0.03180  0.83360  Biso   1.000  C
  C234     1.0000 0.70500  0.04527  0.86630  Biso   1.000  C
  H187     1.0000 0.68500  0.01910  0.88180  Biso   1.000  H
  C235     1.0000 0.69500  0.09630  0.87710  Biso   1.000  C
  H188     1.0000 0.67140  0.10500  0.90290  Biso   1.000  H
  N48      1.0000 0.38520  0.71761  0.86740  Biso   1.000  N
  C236     1.0000 0.39690  0.75930  0.84070  Biso   1.000  C
  H189     1.0000 0.37140  0.78470  0.83430  Biso   1.000  H
  C237     1.0000 0.44600  0.76570  0.82240  Biso   1.000  C
  H190     1.0000 0.45210  0.79020  0.79680  Biso   1.000  H
  C238     1.0000 0.48630  0.73700  0.84040  Biso   1.000  C
  C239     1.0000 0.47257  0.69420  0.86760  Biso   1.000  C
  H191     1.0000 0.49850  0.67100  0.87820  Biso   1.000  H
  C240     1.0000 0.42200  0.68440  0.87980  Biso   1.000  C
  H192     1.0000 0.41340  0.65370  0.89710  Biso   1.000  H
  La5      1.0000 0.75106  0.25927  0.58273  Biso   1.000  La
  O49      1.0000 0.78940  0.69220  0.69040  Biso   1.000  O
  O50      1.0000 0.71800  0.83130  0.70270  Biso   1.000  O
  O51      1.0000 0.82800  0.79660  0.69880  Biso   1.000  O
  O52      1.0000 0.68540  0.72380  0.70350  Biso   1.000  O
  O53      1.0000 0.82780  0.22080  0.54550  Biso   1.000  O
  O54      1.0000 0.77940  0.19350  0.64060  Biso   1.000  O
  O55      1.0000 0.68880  0.28730  0.51890  Biso   1.000  O
  O56      1.0000 0.79230  0.32810  0.52760  Biso   1.000  O
  O57      1.0000 0.32600  0.76990  0.62830  Biso   1.000  O
  O58      1.0000 0.72090  0.18560  0.53560  Biso   1.000  O
  O59      1.0000 0.18400  0.70320  0.64110  Biso   1.000  O
  O60      1.0000 0.70790  0.33880  0.61830  Biso   1.000  O
  N49      1.0000 0.77480  0.64331  0.68792  Biso   1.000  N
  C241     1.0000 0.73835  0.63248  0.65478  Biso   1.000  C
  H193     1.0000 0.72140  0.65970  0.63770  Biso   1.000  H
  C242     1.0000 0.72481  0.58223  0.64499  Biso   1.000  C
  H194     1.0000 0.69870  0.57520  0.62110  Biso   1.000  H
  C243     1.0000 0.74838  0.54220  0.66915  Biso   1.000  C
  C244     1.0000 0.78610  0.55512  0.70310  Biso   1.000  C
  H195     1.0000 0.80370  0.52860  0.72050  Biso   1.000  H
  C245     1.0000 0.79890  0.60571  0.71233  Biso   1.000  C
  H196     1.0000 0.82480  0.61370  0.73610  Biso   1.000  H
  N50      1.0000 0.72520  0.88260  0.69890  Biso   1.000  N
  C246     1.0000 0.69340  0.91795  0.71730  Biso   1.000  C
  H197     1.0000 0.66650  0.90810  0.73930  Biso   1.000  H
  C247     1.0000 0.69960  0.96900  0.70430  Biso   1.000  C
  H198     1.0000 0.67460  0.99340  0.71470  Biso   1.000  H
  C248     1.0000 0.74130  0.98520  0.67680  Biso   1.000  C
  C249     1.0000 0.77460  0.94725  0.66180  Biso   1.000  C
  H199     1.0000 0.80660  0.95660  0.64720  Biso   1.000  H
  C250     1.0000 0.76280  0.89564  0.66730  Biso   1.000  C
  H200     1.0000 0.78110  0.87010  0.64920  Biso   1.000  H
  N51      1.0000 0.87551  0.78583  0.68930  Biso   1.000  N
  C251     1.0000 0.88693  0.74520  0.66100  Biso   1.000  C
  H201     1.0000 0.86030  0.72380  0.64820  Biso   1.000  H
  C252     1.0000 0.93783  0.73440  0.65030  Biso   1.000  C
  H202     1.0000 0.94580  0.70970  0.62530  Biso   1.000  H
  C253     1.0000 0.97730  0.75890  0.67510  Biso   1.000  C
  C254     1.0000 0.96385  0.80000  0.70470  Biso   1.000  C
  H203     1.0000 0.98980  0.81910  0.72140  Biso   1.000  H
  C255     1.0000 0.91278  0.81370  0.71010  Biso   1.000  C
  H204     1.0000 0.90410  0.84340  0.72900  Biso   1.000  H
  N52      1.0000 0.63540  0.73320  0.68850  Biso   1.000  N
  C256     1.0000 0.60156  0.69960  0.70680  Biso   1.000  C
  H205     1.0000 0.61270  0.67190  0.72730  Biso   1.000  H
  C257     1.0000 0.54993  0.70560  0.69560  Biso   1.000  C
  H206     1.0000 0.52540  0.68310  0.71030  Biso   1.000  H
  C258     1.0000 0.53350  0.74340  0.66350  Biso   1.000  C
  C259     1.0000 0.56997  0.77740  0.64730  Biso   1.000  C
  H207     1.0000 0.55950  0.80670  0.62870  Biso   1.000  H
  C260     1.0000 0.62140  0.77020  0.65710  Biso   1.000  C
  H208     1.0000 0.64660  0.79130  0.64160  Biso   1.000  H
  N53      1.0000 0.87538  0.22850  0.52760  Biso   1.000  N
  C261     1.0000 0.88939  0.26780  0.49880  Biso   1.000  C
  H209     1.0000 0.86510  0.29320  0.48900  Biso   1.000  H
  C262     1.0000 0.94026  0.27080  0.48330  Biso   1.000  C
  H210     1.0000 0.94900  0.29240  0.45600  Biso   1.000  H
  C263     1.0000 0.97830  0.24310  0.50710  Biso   1.000  C
  C264     1.0000 0.96187  0.20550  0.53980  Biso   1.000  C
  H211     1.0000 0.98640  0.18300  0.55450  Biso   1.000  H
  C265     1.0000 0.91044  0.19990  0.55130  Biso   1.000  C
  H212     1.0000 0.90000  0.17590  0.57610  Biso   1.000  H
  N54      1.0000 0.76718  0.14330  0.64980  Biso   1.000  N
  C266     1.0000 0.80120  0.10921  0.63280  Biso   1.000  C
  H213     1.0000 0.83150  0.12080  0.61630  Biso   1.000  H
  C267     1.0000 0.79280  0.05710  0.63900  Biso   1.000  C
  H214     1.0000 0.81550  0.03330  0.62350  Biso   1.000  H
  C268     1.0000 0.75240  0.03900  0.66720  Biso   1.000  C
  C269     1.0000 0.71610  0.07557  0.67960  Biso   1.000  C
  H215     1.0000 0.68290  0.06490  0.69010  Biso   1.000  H
  C270     1.0000 0.72720  0.12750  0.67700  Biso   1.000  C
  H216     1.0000 0.70650  0.15170  0.69450  Biso   1.000  H
  N55      1.0000 0.63860  0.27513  0.51040  Biso   1.000  N
  C271     1.0000 0.62572  0.23370  0.48390  Biso   1.000  C
  H217     1.0000 0.65150  0.21230  0.46980  Biso   1.000  H
  C272     1.0000 0.57409  0.22230  0.47710  Biso   1.000  C
  H218     1.0000 0.56470  0.19490  0.45550  Biso   1.000  H
  C273     1.0000 0.53620  0.24980  0.50090  Biso   1.000  C
  C274     1.0000 0.55203  0.29000  0.53040  Biso   1.000  C
  H219     1.0000 0.52760  0.30770  0.55050  Biso   1.000  H
  C275     1.0000 0.60307  0.30500  0.53150  Biso   1.000  C
  H220     1.0000 0.61270  0.33640  0.54700  Biso   1.000  H
  N56      1.0000 0.78080  0.37870  0.52410  Biso   1.000  N
  C276     1.0000 0.74140  0.39230  0.49520  Biso   1.000  C
  H221     1.0000 0.72100  0.36660  0.47960  Biso   1.000  H
  C277     1.0000 0.73000  0.44365  0.48770  Biso   1.000  C
  H222     1.0000 0.69980  0.45280  0.46980  Biso   1.000  H
  C278     1.0000 0.48200  0.23810  0.49420  Biso   1.000  C
  C279     1.0000 0.46550  0.19710  0.46590  Biso   1.000  C
  H223     1.0000 0.48990  0.17230  0.45500  Biso   1.000  H
  C280     1.0000 0.80900  0.41440  0.54690  Biso   1.000  C
  H224     1.0000 0.83310  0.40480  0.57190  Biso   1.000  H
  N57      1.0000 0.37730  0.76496  0.63050  Biso   1.000  N
  C281     1.0000 0.39043  0.72330  0.65630  Biso   1.000  C
  H225     1.0000 0.36510  0.69960  0.66730  Biso   1.000  H
  C282     1.0000 0.44181  0.71540  0.66650  Biso   1.000  C
  H226     1.0000 0.45190  0.68410  0.68200  Biso   1.000  H
  C283     1.0000 0.47900  0.75110  0.65510  Biso   1.000  C
  C284     1.0000 0.46260  0.79320  0.62900  Biso   1.000  C
  H227     1.0000 0.48730  0.81660  0.61590  Biso   1.000  H
  C285     1.0000 0.41090  0.80270  0.62140  Biso   1.000  C
  H228     1.0000 0.39940  0.83530  0.60980  Biso   1.000  H
  N58      1.0000 0.73101  0.13560  0.52710  Biso   1.000  N
  C286     1.0000 0.77610  0.12236  0.50680  Biso   1.000  C
  H229     1.0000 0.80180  0.14750  0.50040  Biso   1.000  H
  C287     1.0000 0.78450  0.07122  0.49530  Biso   1.000  C
  H230     1.0000 0.81480  0.06190  0.47760  Biso   1.000  H
  C288     1.0000 0.03320  0.24990  0.49110  Biso   1.000  C
  C289     1.0000 0.04950  0.29620  0.47200  Biso   1.000  C
  H231     1.0000 0.02490  0.32210  0.46450  Biso   1.000  H
  C290     1.0000 0.69430  0.10110  0.53650  Biso   1.000  C
  H232     1.0000 0.66190  0.11190  0.54900  Biso   1.000  H
  N59      1.0000 0.13330  0.71840  0.64870  Biso   1.000  N
  C291     1.0000 0.12208  0.75520  0.68170  Biso   1.000  C
  H233     1.0000 0.14890  0.77260  0.69880  Biso   1.000  H
  C292     1.0000 0.07148  0.76810  0.69080  Biso   1.000  C
  H234     1.0000 0.06390  0.79440  0.71430  Biso   1.000  H
  C293     1.0000 0.03180  0.74360  0.66640  Biso   1.000  C
  C294     1.0000 0.04527  0.70500  0.63370  Biso   1.000  C
  H235     1.0000 0.01910  0.68500  0.61820  Biso   1.000  H
  C295     1.0000 0.09630  0.69500  0.62290  Biso   1.000  C
  H236     1.0000 0.10500  0.67140  0.59710  Biso   1.000  H
  N60      1.0000 0.71761  0.38520  0.63260  Biso   1.000  N
  C296     1.0000 0.75930  0.39690  0.65930  Biso   1.000  C
  H237     1.0000 0.78470  0.37140  0.66570  Biso   1.000  H
  C297     1.0000 0.76570  0.44600  0.67760  Biso   1.000  C
  H238     1.0000 0.79020  0.45210  0.70320  Biso   1.000  H
  C298     1.0000 0.73700  0.48630  0.65960  Biso   1.000  C
  C299     1.0000 0.69420  0.47257  0.63240  Biso   1.000  C
  H239     1.0000 0.67100  0.49850  0.62180  Biso   1.000  H
  C300     1.0000 0.68440  0.42200  0.62020  Biso   1.000  C
  H240     1.0000 0.65370  0.41340  0.60290  Biso   1.000  H
  La6      1.0000 0.24894  0.74073  0.58273  Biso   1.000  La
  O61      1.0000 0.21060  0.30780  0.69040  Biso   1.000  O
  O62      1.0000 0.28200  0.16870  0.70270  Biso   1.000  O
  O63      1.0000 0.17200  0.20340  0.69880  Biso   1.000  O
  O64      1.0000 0.31460  0.27620  0.70350  Biso   1.000  O
  O65      1.0000 0.17220  0.77920  0.54550  Biso   1.000  O
  O66      1.0000 0.22060  0.80650  0.64060  Biso   1.000  O
  O67      1.0000 0.31120  0.71270  0.51890  Biso   1.000  O
  O68      1.0000 0.20770  0.67190  0.52760  Biso   1.000  O
  O69      1.0000 0.67400  0.23010  0.62830  Biso   1.000  O
  O70      1.0000 0.27910  0.81440  0.53560  Biso   1.000  O
  O71      1.0000 0.81600  0.29680  0.64110  Biso   1.000  O
  O72      1.0000 0.29210  0.66120  0.61830  Biso   1.000  O
  N61      1.0000 0.22520  0.35669  0.68792  Biso   1.000  N
  C301     1.0000 0.26165  0.36752  0.65478  Biso   1.000  C
  H241     1.0000 0.27860  0.34030  0.63770  Biso   1.000  H
  C302     1.0000 0.27519  0.41777  0.64499  Biso   1.000  C
  H242     1.0000 0.30130  0.42480  0.62110  Biso   1.000  H
  C303     1.0000 0.25162  0.45780  0.66915  Biso   1.000  C
  C304     1.0000 0.21390  0.44488  0.70310  Biso   1.000  C
  H243     1.0000 0.19630  0.47140  0.72050  Biso   1.000  H
  C305     1.0000 0.20110  0.39429  0.71233  Biso   1.000  C
  H244     1.0000 0.17520  0.38630  0.73610  Biso   1.000  H
  N62      1.0000 0.27480  0.11740  0.69890  Biso   1.000  N
  C306     1.0000 0.30660  0.08205  0.71730  Biso   1.000  C
  H245     1.0000 0.33350  0.09190  0.73930  Biso   1.000  H
  C307     1.0000 0.30040  0.03100  0.70430  Biso   1.000  C
  H246     1.0000 0.32540  0.00660  0.71470  Biso   1.000  H
  C308     1.0000 0.25870  0.01480  0.67680  Biso   1.000  C
  C309     1.0000 0.22540  0.05275  0.66180  Biso   1.000  C
  H247     1.0000 0.19340  0.04340  0.64720  Biso   1.000  H
  C310     1.0000 0.23720  0.10436  0.66730  Biso   1.000  C
  H248     1.0000 0.21890  0.12990  0.64920  Biso   1.000  H
  N63      1.0000 0.12449  0.21417  0.68930  Biso   1.000  N
  C311     1.0000 0.11307  0.25480  0.66100  Biso   1.000  C
  H249     1.0000 0.13970  0.27620  0.64820  Biso   1.000  H
  C312     1.0000 0.06217  0.26560  0.65030  Biso   1.000  C
  H250     1.0000 0.05420  0.29030  0.62530  Biso   1.000  H
  C313     1.0000 0.02270  0.24110  0.67510  Biso   1.000  C
  C314     1.0000 0.03615  0.20000  0.70470  Biso   1.000  C
  H251     1.0000 0.01020  0.18090  0.72140  Biso   1.000  H
  C315     1.0000 0.08722  0.18630  0.71010  Biso   1.000  C
  H252     1.0000 0.09590  0.15660  0.72900  Biso   1.000  H
  N64      1.0000 0.36460  0.26680  0.68850  Biso   1.000  N
  C316     1.0000 0.39844  0.30040  0.70680  Biso   1.000  C
  H253     1.0000 0.38730  0.32810  0.72730  Biso   1.000  H
  C317     1.0000 0.45007  0.29440  0.69560  Biso   1.000  C
  H254     1.0000 0.47460  0.31690  0.71030  Biso   1.000  H
  C318     1.0000 0.46650  0.25660  0.66350  Biso   1.000  C
  C319     1.0000 0.43003  0.22260  0.64730  Biso   1.000  C
  H255     1.0000 0.44050  0.19330  0.62870  Biso   1.000  H
  C320     1.0000 0.37860  0.22980  0.65710  Biso   1.000  C
  H256     1.0000 0.35340  0.20870  0.64160  Biso   1.000  H
  N65      1.0000 0.12462  0.77150  0.52760  Biso   1.000  N
  C321     1.0000 0.11061  0.73220  0.49880  Biso   1.000  C
  H257     1.0000 0.13490  0.70680  0.48900  Biso   1.000  H
  C322     1.0000 0.05974  0.72920  0.48330  Biso   1.000  C
  H258     1.0000 0.05100  0.70760  0.45600  Biso   1.000  H
  C323     1.0000 0.02170  0.75690  0.50710  Biso   1.000  C
  C324     1.0000 0.03813  0.79450  0.53980  Biso   1.000  C
  H259     1.0000 0.01360  0.81700  0.55450  Biso   1.000  H
  C325     1.0000 0.08956  0.80010  0.55130  Biso   1.000  C
  H260     1.0000 0.10000  0.82410  0.57610  Biso   1.000  H
  N66      1.0000 0.23282  0.85670  0.64980  Biso   1.000  N
  C326     1.0000 0.19880  0.89079  0.63280  Biso   1.000  C
  H261     1.0000 0.16850  0.87920  0.61630  Biso   1.000  H
  C327     1.0000 0.20720  0.94290  0.63900  Biso   1.000  C
  H262     1.0000 0.18450  0.96670  0.62350  Biso   1.000  H
  C328     1.0000 0.24760  0.96100  0.66720  Biso   1.000  C
  C329     1.0000 0.28390  0.92443  0.67960  Biso   1.000  C
  H263     1.0000 0.31710  0.93510  0.69010  Biso   1.000  H
  C330     1.0000 0.27280  0.87250  0.67700  Biso   1.000  C
  H264     1.0000 0.29350  0.84830  0.69450  Biso   1.000  H
  N67      1.0000 0.36140  0.72487  0.51040  Biso   1.000  N
  C331     1.0000 0.37428  0.76630  0.48390  Biso   1.000  C
  H265     1.0000 0.34850  0.78770  0.46980  Biso   1.000  H
  C332     1.0000 0.42591  0.77770  0.47710  Biso   1.000  C
  H266     1.0000 0.43530  0.80510  0.45550  Biso   1.000  H
  C333     1.0000 0.46380  0.75020  0.50090  Biso   1.000  C
  C334     1.0000 0.44797  0.71000  0.53040  Biso   1.000  C
  H267     1.0000 0.47240  0.69230  0.55050  Biso   1.000  H
  C335     1.0000 0.39693  0.69500  0.53150  Biso   1.000  C
  H268     1.0000 0.38730  0.66360  0.54700  Biso   1.000  H
  N68      1.0000 0.21920  0.62130  0.52410  Biso   1.000  N
  C336     1.0000 0.25860  0.60770  0.49520  Biso   1.000  C
  H269     1.0000 0.27900  0.63340  0.47960  Biso   1.000  H
  C337     1.0000 0.27000  0.55635  0.48770  Biso   1.000  C
  H270     1.0000 0.30020  0.54720  0.46980  Biso   1.000  H
  C338     1.0000 0.51800  0.76190  0.49420  Biso   1.000  C
  C339     1.0000 0.53450  0.80290  0.46590  Biso   1.000  C
  H271     1.0000 0.51010  0.82770  0.45500  Biso   1.000  H
  C340     1.0000 0.19100  0.58560  0.54690  Biso   1.000  C
  H272     1.0000 0.16690  0.59520  0.57190  Biso   1.000  H
  N69      1.0000 0.62270  0.23504  0.63050  Biso   1.000  N
  C341     1.0000 0.60957  0.27670  0.65630  Biso   1.000  C
  H273     1.0000 0.63490  0.30040  0.66730  Biso   1.000  H
  C342     1.0000 0.55819  0.28460  0.66650  Biso   1.000  C
  H274     1.0000 0.54810  0.31590  0.68200  Biso   1.000  H
  C343     1.0000 0.52100  0.24890  0.65510  Biso   1.000  C
  C344     1.0000 0.53740  0.20680  0.62900  Biso   1.000  C
  H275     1.0000 0.51270  0.18340  0.61590  Biso   1.000  H
  C345     1.0000 0.58910  0.19730  0.62140  Biso   1.000  C
  H276     1.0000 0.60060  0.16470  0.60980  Biso   1.000  H
  N70      1.0000 0.26899  0.86440  0.52710  Biso   1.000  N
  C346     1.0000 0.22390  0.87764  0.50680  Biso   1.000  C
  H277     1.0000 0.19820  0.85250  0.50040  Biso   1.000  H
  C347     1.0000 0.21550  0.92878  0.49530  Biso   1.000  C
  H278     1.0000 0.18520  0.93810  0.47760  Biso   1.000  H
  C348     1.0000 0.96680  0.75010  0.49110  Biso   1.000  C
  C349     1.0000 0.95050  0.70380  0.47200  Biso   1.000  C
  H279     1.0000 0.97510  0.67790  0.46450  Biso   1.000  H
  C350     1.0000 0.30570  0.89890  0.53650  Biso   1.000  C
  H280     1.0000 0.33810  0.88810  0.54900  Biso   1.000  H
  N71      1.0000 0.86670  0.28160  0.64870  Biso   1.000  N
  C351     1.0000 0.87792  0.24480  0.68170  Biso   1.000  C
  H281     1.0000 0.85110  0.22740  0.69880  Biso   1.000  H
  C352     1.0000 0.92852  0.23190  0.69080  Biso   1.000  C
  H282     1.0000 0.93610  0.20560  0.71430  Biso   1.000  H
  C353     1.0000 0.96820  0.25640  0.66640  Biso   1.000  C
  C354     1.0000 0.95473  0.29500  0.63370  Biso   1.000  C
  H283     1.0000 0.98090  0.31500  0.61820  Biso   1.000  H
  C355     1.0000 0.90370  0.30500  0.62290  Biso   1.000  C
  H284     1.0000 0.89500  0.32860  0.59710  Biso   1.000  H
  N72      1.0000 0.28239  0.61480  0.63260  Biso   1.000  N
  C356     1.0000 0.24070  0.60310  0.65930  Biso   1.000  C
  H285     1.0000 0.21530  0.62860  0.66570  Biso   1.000  H
  C357     1.0000 0.23430  0.55400  0.67760  Biso   1.000  C
  H286     1.0000 0.20980  0.54790  0.70320  Biso   1.000  H
  C358     1.0000 0.26300  0.51370  0.65960  Biso   1.000  C
  C359     1.0000 0.30580  0.52743  0.63240  Biso   1.000  C
  H287     1.0000 0.32900  0.50150  0.62180  Biso   1.000  H
  C360     1.0000 0.31560  0.57800  0.62020  Biso   1.000  C
  H288     1.0000 0.34630  0.58660  0.60290  Biso   1.000  H
  La7      1.0000 0.74073  0.75106  0.41727  Biso   1.000  La
  O73      1.0000 0.30780  0.78940  0.30960  Biso   1.000  O
  O74      1.0000 0.16870  0.71800  0.29730  Biso   1.000  O
  O75      1.0000 0.20340  0.82800  0.30120  Biso   1.000  O
  O76      1.0000 0.27620  0.68540  0.29650  Biso   1.000  O
  O77      1.0000 0.77920  0.82780  0.45450  Biso   1.000  O
  O78      1.0000 0.80650  0.77940  0.35940  Biso   1.000  O
  O79      1.0000 0.71270  0.68880  0.48110  Biso   1.000  O
  O80      1.0000 0.67190  0.79230  0.47240  Biso   1.000  O
  O81      1.0000 0.23010  0.32600  0.37170  Biso   1.000  O
  O82      1.0000 0.81440  0.72090  0.46440  Biso   1.000  O
  O83      1.0000 0.29680  0.18400  0.35890  Biso   1.000  O
  O84      1.0000 0.66120  0.70790  0.38170  Biso   1.000  O
  N73      1.0000 0.35669  0.77480  0.31208  Biso   1.000  N
  C361     1.0000 0.36752  0.73835  0.34522  Biso   1.000  C
  H289     1.0000 0.34030  0.72140  0.36230  Biso   1.000  H
  C362     1.0000 0.41777  0.72481  0.35501  Biso   1.000  C
  H290     1.0000 0.42480  0.69870  0.37890  Biso   1.000  H
  C363     1.0000 0.45780  0.74838  0.33085  Biso   1.000  C
  C364     1.0000 0.44488  0.78610  0.29690  Biso   1.000  C
  H291     1.0000 0.47140  0.80370  0.27950  Biso   1.000  H
  C365     1.0000 0.39429  0.79890  0.28767  Biso   1.000  C
  H292     1.0000 0.38630  0.82480  0.26390  Biso   1.000  H
  N74      1.0000 0.11740  0.72520  0.30110  Biso   1.000  N
  C366     1.0000 0.08205  0.69340  0.28270  Biso   1.000  C
  H293     1.0000 0.09190  0.66650  0.26070  Biso   1.000  H
  C367     1.0000 0.03100  0.69960  0.29570  Biso   1.000  C
  H294     1.0000 0.00660  0.67460  0.28530  Biso   1.000  H
  C368     1.0000 0.01480  0.74130  0.32320  Biso   1.000  C
  C369     1.0000 0.05275  0.77460  0.33820  Biso   1.000  C
  H295     1.0000 0.04340  0.80660  0.35280  Biso   1.000  H
  C370     1.0000 0.10436  0.76280  0.33270  Biso   1.000  C
  H296     1.0000 0.12990  0.78110  0.35080  Biso   1.000  H
  N75      1.0000 0.21417  0.87551  0.31070  Biso   1.000  N
  C371     1.0000 0.25480  0.88693  0.33900  Biso   1.000  C
  H297     1.0000 0.27620  0.86030  0.35180  Biso   1.000  H
  C372     1.0000 0.26560  0.93783  0.34970  Biso   1.000  C
  H298     1.0000 0.29030  0.94580  0.37470  Biso   1.000  H
  C373     1.0000 0.24110  0.97730  0.32490  Biso   1.000  C
  C374     1.0000 0.20000  0.96385  0.29530  Biso   1.000  C
  H299     1.0000 0.18090  0.98980  0.27860  Biso   1.000  H
  C375     1.0000 0.18630  0.91278  0.28990  Biso   1.000  C
  H300     1.0000 0.15660  0.90410  0.27100  Biso   1.000  H
  N76      1.0000 0.26680  0.63540  0.31150  Biso   1.000  N
  C376     1.0000 0.30040  0.60156  0.29320  Biso   1.000  C
  H301     1.0000 0.32810  0.61270  0.27270  Biso   1.000  H
  C377     1.0000 0.29440  0.54993  0.30440  Biso   1.000  C
  H302     1.0000 0.31690  0.52540  0.28970  Biso   1.000  H
  C378     1.0000 0.25660  0.53350  0.33650  Biso   1.000  C
  C379     1.0000 0.22260  0.56997  0.35270  Biso   1.000  C
  H303     1.0000 0.19330  0.55950  0.37130  Biso   1.000  H
  C380     1.0000 0.22980  0.62140  0.34290  Biso   1.000  C
  H304     1.0000 0.20870  0.64660  0.35840  Biso   1.000  H
  N77      1.0000 0.77150  0.87538  0.47240  Biso   1.000  N
  C381     1.0000 0.73220  0.88939  0.50120  Biso   1.000  C
  H305     1.0000 0.70680  0.86510  0.51100  Biso   1.000  H
  C382     1.0000 0.72920  0.94026  0.51670  Biso   1.000  C
  H306     1.0000 0.70760  0.94900  0.54400  Biso   1.000  H
  C383     1.0000 0.75690  0.97830  0.49290  Biso   1.000  C
  C384     1.0000 0.79450  0.96187  0.46020  Biso   1.000  C
  H307     1.0000 0.81700  0.98640  0.44550  Biso   1.000  H
  C385     1.0000 0.80010  0.91044  0.44870  Biso   1.000  C
  H308     1.0000 0.82410  0.90000  0.42390  Biso   1.000  H
  N78      1.0000 0.85670  0.76718  0.35020  Biso   1.000  N
  C386     1.0000 0.89079  0.80120  0.36720  Biso   1.000  C
  H309     1.0000 0.87920  0.83150  0.38370  Biso   1.000  H
  C387     1.0000 0.94290  0.79280  0.36100  Biso   1.000  C
  H310     1.0000 0.96670  0.81550  0.37650  Biso   1.000  H
  C388     1.0000 0.96100  0.75240  0.33280  Biso   1.000  C
  C389     1.0000 0.92443  0.71610  0.32040  Biso   1.000  C
  H311     1.0000 0.93510  0.68290  0.30990  Biso   1.000  H
  C390     1.0000 0.87250  0.72720  0.32300  Biso   1.000  C
  H312     1.0000 0.84830  0.70650  0.30550  Biso   1.000  H
  N79      1.0000 0.72487  0.63860  0.48960  Biso   1.000  N
  C391     1.0000 0.76630  0.62572  0.51610  Biso   1.000  C
  H313     1.0000 0.78770  0.65150  0.53020  Biso   1.000  H
  C392     1.0000 0.77770  0.57409  0.52290  Biso   1.000  C
  H314     1.0000 0.80510  0.56470  0.54450  Biso   1.000  H
  C393     1.0000 0.75020  0.53620  0.49910  Biso   1.000  C
  C394     1.0000 0.71000  0.55203  0.46960  Biso   1.000  C
  H315     1.0000 0.69230  0.52760  0.44950  Biso   1.000  H
  C395     1.0000 0.69500  0.60307  0.46850  Biso   1.000  C
  H316     1.0000 0.66360  0.61270  0.45300  Biso   1.000  H
  N80      1.0000 0.62130  0.78080  0.47590  Biso   1.000  N
  C396     1.0000 0.60770  0.74140  0.50480  Biso   1.000  C
  H317     1.0000 0.63340  0.72100  0.52040  Biso   1.000  H
  C397     1.0000 0.55635  0.73000  0.51230  Biso   1.000  C
  H318     1.0000 0.54720  0.69980  0.53020  Biso   1.000  H
  C398     1.0000 0.76190  0.48200  0.50580  Biso   1.000  C
  C399     1.0000 0.80290  0.46550  0.53410  Biso   1.000  C
  H319     1.0000 0.82770  0.48990  0.54500  Biso   1.000  H
  C400     1.0000 0.58560  0.80900  0.45310  Biso   1.000  C
  H320     1.0000 0.59520  0.83310  0.42810  Biso   1.000  H
  N81      1.0000 0.23504  0.37730  0.36950  Biso   1.000  N
  C401     1.0000 0.27670  0.39043  0.34370  Biso   1.000  C
  H321     1.0000 0.30040  0.36510  0.33270  Biso   1.000  H
  C402     1.0000 0.28460  0.44181  0.33350  Biso   1.000  C
  H322     1.0000 0.31590  0.45190  0.31800  Biso   1.000  H
  C403     1.0000 0.24890  0.47900  0.34490  Biso   1.000  C
  C404     1.0000 0.20680  0.46260  0.37100  Biso   1.000  C
  H323     1.0000 0.18340  0.48730  0.38410  Biso   1.000  H
  C405     1.0000 0.19730  0.41090  0.37860  Biso   1.000  C
  H324     1.0000 0.16470  0.39940  0.39020  Biso   1.000  H
  N82      1.0000 0.86440  0.73101  0.47290  Biso   1.000  N
  C406     1.0000 0.87764  0.77610  0.49320  Biso   1.000  C
  H325     1.0000 0.85250  0.80180  0.49960  Biso   1.000  H
  C407     1.0000 0.92878  0.78450  0.50470  Biso   1.000  C
  H326     1.0000 0.93810  0.81480  0.52240  Biso   1.000  H
  C408     1.0000 0.75010  0.03320  0.50890  Biso   1.000  C
  C409     1.0000 0.70380  0.04950  0.52800  Biso   1.000  C
  H327     1.0000 0.67790  0.02490  0.53550  Biso   1.000  H
  C410     1.0000 0.89890  0.69430  0.46350  Biso   1.000  C
  H328     1.0000 0.88810  0.66190  0.45100  Biso   1.000  H
  N83      1.0000 0.28160  0.13330  0.35130  Biso   1.000  N
  C411     1.0000 0.24480  0.12208  0.31830  Biso   1.000  C
  H329     1.0000 0.22740  0.14890  0.30120  Biso   1.000  H
  C412     1.0000 0.23190  0.07148  0.30920  Biso   1.000  C
  H330     1.0000 0.20560  0.06390  0.28570  Biso   1.000  H
  C413     1.0000 0.25640  0.03180  0.33360  Biso   1.000  C
  C414     1.0000 0.29500  0.04527  0.36630  Biso   1.000  C
  H331     1.0000 0.31500  0.01910  0.38180  Biso   1.000  H
  C415     1.0000 0.30500  0.09630  0.37710  Biso   1.000  C
  H332     1.0000 0.32860  0.10500  0.40290  Biso   1.000  H
  N84      1.0000 0.61480  0.71761  0.36740  Biso   1.000  N
  C416     1.0000 0.60310  0.75930  0.34070  Biso   1.000  C
  H333     1.0000 0.62860  0.78470  0.33430  Biso   1.000  H
  C417     1.0000 0.55400  0.76570  0.32240  Biso   1.000  C
  H334     1.0000 0.54790  0.79020  0.29680  Biso   1.000  H
  C418     1.0000 0.51370  0.73700  0.34040  Biso   1.000  C
  C419     1.0000 0.52743  0.69420  0.36760  Biso   1.000  C
  H335     1.0000 0.50150  0.67100  0.37820  Biso   1.000  H
  C420     1.0000 0.57800  0.68440  0.37980  Biso   1.000  C
  H336     1.0000 0.58660  0.65370  0.39710  Biso   1.000  H
  La8      1.0000 0.25927  0.24894  0.41727  Biso   1.000  La
  O85      1.0000 0.69220  0.21060  0.30960  Biso   1.000  O
  O86      1.0000 0.83130  0.28200  0.29730  Biso   1.000  O
  O87      1.0000 0.79660  0.17200  0.30120  Biso   1.000  O
  O88      1.0000 0.72380  0.31460  0.29650  Biso   1.000  O
  O89      1.0000 0.22080  0.17220  0.45450  Biso   1.000  O
  O90      1.0000 0.19350  0.22060  0.35940  Biso   1.000  O
  O91      1.0000 0.28730  0.31120  0.48110  Biso   1.000  O
  O92      1.0000 0.32810  0.20770  0.47240  Biso   1.000  O
  O93      1.0000 0.76990  0.67400  0.37170  Biso   1.000  O
  O94      1.0000 0.18560  0.27910  0.46440  Biso   1.000  O
  O95      1.0000 0.70320  0.81600  0.35890  Biso   1.000  O
  O96      1.0000 0.33880  0.29210  0.38170  Biso   1.000  O
  N85      1.0000 0.64331  0.22520  0.31208  Biso   1.000  N
  C421     1.0000 0.63248  0.26165  0.34522  Biso   1.000  C
  H337     1.0000 0.65970  0.27860  0.36230  Biso   1.000  H
  C422     1.0000 0.58223  0.27519  0.35501  Biso   1.000  C
  H338     1.0000 0.57520  0.30130  0.37890  Biso   1.000  H
  C423     1.0000 0.54220  0.25162  0.33085  Biso   1.000  C
  C424     1.0000 0.55512  0.21390  0.29690  Biso   1.000  C
  H339     1.0000 0.52860  0.19630  0.27950  Biso   1.000  H
  C425     1.0000 0.60571  0.20110  0.28767  Biso   1.000  C
  H340     1.0000 0.61370  0.17520  0.26390  Biso   1.000  H
  N86      1.0000 0.88260  0.27480  0.30110  Biso   1.000  N
  C426     1.0000 0.91795  0.30660  0.28270  Biso   1.000  C
  H341     1.0000 0.90810  0.33350  0.26070  Biso   1.000  H
  C427     1.0000 0.96900  0.30040  0.29570  Biso   1.000  C
  H342     1.0000 0.99340  0.32540  0.28530  Biso   1.000  H
  C428     1.0000 0.98520  0.25870  0.32320  Biso   1.000  C
  C429     1.0000 0.94725  0.22540  0.33820  Biso   1.000  C
  H343     1.0000 0.95660  0.19340  0.35280  Biso   1.000  H
  C430     1.0000 0.89564  0.23720  0.33270  Biso   1.000  C
  H344     1.0000 0.87010  0.21890  0.35080  Biso   1.000  H
  N87      1.0000 0.78583  0.12449  0.31070  Biso   1.000  N
  C431     1.0000 0.74520  0.11307  0.33900  Biso   1.000  C
  H345     1.0000 0.72380  0.13970  0.35180  Biso   1.000  H
  C432     1.0000 0.73440  0.06217  0.34970  Biso   1.000  C
  H346     1.0000 0.70970  0.05420  0.37470  Biso   1.000  H
  C433     1.0000 0.75890  0.02270  0.32490  Biso   1.000  C
  C434     1.0000 0.80000  0.03615  0.29530  Biso   1.000  C
  H347     1.0000 0.81910  0.01020  0.27860  Biso   1.000  H
  C435     1.0000 0.81370  0.08722  0.28990  Biso   1.000  C
  H348     1.0000 0.84340  0.09590  0.27100  Biso   1.000  H
  N88      1.0000 0.73320  0.36460  0.31150  Biso   1.000  N
  C436     1.0000 0.69960  0.39844  0.29320  Biso   1.000  C
  H349     1.0000 0.67190  0.38730  0.27270  Biso   1.000  H
  C437     1.0000 0.70560  0.45007  0.30440  Biso   1.000  C
  H350     1.0000 0.68310  0.47460  0.28970  Biso   1.000  H
  C438     1.0000 0.74340  0.46650  0.33650  Biso   1.000  C
  C439     1.0000 0.77740  0.43003  0.35270  Biso   1.000  C
  H351     1.0000 0.80670  0.44050  0.37130  Biso   1.000  H
  C440     1.0000 0.77020  0.37860  0.34290  Biso   1.000  C
  H352     1.0000 0.79130  0.35340  0.35840  Biso   1.000  H
  N89      1.0000 0.22850  0.12462  0.47240  Biso   1.000  N
  C441     1.0000 0.26780  0.11061  0.50120  Biso   1.000  C
  H353     1.0000 0.29320  0.13490  0.51100  Biso   1.000  H
  C442     1.0000 0.27080  0.05974  0.51670  Biso   1.000  C
  H354     1.0000 0.29240  0.05100  0.54400  Biso   1.000  H
  C443     1.0000 0.24310  0.02170  0.49290  Biso   1.000  C
  C444     1.0000 0.20550  0.03813  0.46020  Biso   1.000  C
  H355     1.0000 0.18300  0.01360  0.44550  Biso   1.000  H
  C445     1.0000 0.19990  0.08956  0.44870  Biso   1.000  C
  H356     1.0000 0.17590  0.10000  0.42390  Biso   1.000  H
  N90      1.0000 0.14330  0.23282  0.35020  Biso   1.000  N
  C446     1.0000 0.10921  0.19880  0.36720  Biso   1.000  C
  H357     1.0000 0.12080  0.16850  0.38370  Biso   1.000  H
  C447     1.0000 0.05710  0.20720  0.36100  Biso   1.000  C
  H358     1.0000 0.03330  0.18450  0.37650  Biso   1.000  H
  C448     1.0000 0.03900  0.24760  0.33280  Biso   1.000  C
  C449     1.0000 0.07557  0.28390  0.32040  Biso   1.000  C
  H359     1.0000 0.06490  0.31710  0.30990  Biso   1.000  H
  C450     1.0000 0.12750  0.27280  0.32300  Biso   1.000  C
  H360     1.0000 0.15170  0.29350  0.30550  Biso   1.000  H
  N91      1.0000 0.27513  0.36140  0.48960  Biso   1.000  N
  C451     1.0000 0.23370  0.37428  0.51610  Biso   1.000  C
  H361     1.0000 0.21230  0.34850  0.53020  Biso   1.000  H
  C452     1.0000 0.22230  0.42591  0.52290  Biso   1.000  C
  H362     1.0000 0.19490  0.43530  0.54450  Biso   1.000  H
  C453     1.0000 0.24980  0.46380  0.49910  Biso   1.000  C
  C454     1.0000 0.29000  0.44797  0.46960  Biso   1.000  C
  H363     1.0000 0.30770  0.47240  0.44950  Biso   1.000  H
  C455     1.0000 0.30500  0.39693  0.46850  Biso   1.000  C
  H364     1.0000 0.33640  0.38730  0.45300  Biso   1.000  H
  N92      1.0000 0.37870  0.21920  0.47590  Biso   1.000  N
  C456     1.0000 0.39230  0.25860  0.50480  Biso   1.000  C
  H365     1.0000 0.36660  0.27900  0.52040  Biso   1.000  H
  C457     1.0000 0.44365  0.27000  0.51230  Biso   1.000  C
  H366     1.0000 0.45280  0.30020  0.53020  Biso   1.000  H
  C458     1.0000 0.23810  0.51800  0.50580  Biso   1.000  C
  C459     1.0000 0.19710  0.53450  0.53410  Biso   1.000  C
  H367     1.0000 0.17230  0.51010  0.54500  Biso   1.000  H
  C460     1.0000 0.41440  0.19100  0.45310  Biso   1.000  C
  H368     1.0000 0.40480  0.16690  0.42810  Biso   1.000  H
  N93      1.0000 0.76496  0.62270  0.36950  Biso   1.000  N
  C461     1.0000 0.72330  0.60957  0.34370  Biso   1.000  C
  H369     1.0000 0.69960  0.63490  0.33270  Biso   1.000  H
  C462     1.0000 0.71540  0.55819  0.33350  Biso   1.000  C
  H370     1.0000 0.68410  0.54810  0.31800  Biso   1.000  H
  C463     1.0000 0.75110  0.52100  0.34490  Biso   1.000  C
  C464     1.0000 0.79320  0.53740  0.37100  Biso   1.000  C
  H371     1.0000 0.81660  0.51270  0.38410  Biso   1.000  H
  C465     1.0000 0.80270  0.58910  0.37860  Biso   1.000  C
  H372     1.0000 0.83530  0.60060  0.39020  Biso   1.000  H
  N94      1.0000 0.13560  0.26899  0.47290  Biso   1.000  N
  C466     1.0000 0.12236  0.22390  0.49320  Biso   1.000  C
  H373     1.0000 0.14750  0.19820  0.49960  Biso   1.000  H
  C467     1.0000 0.07122  0.21550  0.50470  Biso   1.000  C
  H374     1.0000 0.06190  0.18520  0.52240  Biso   1.000  H
  C468     1.0000 0.24990  0.96680  0.50890  Biso   1.000  C
  C469     1.0000 0.29620  0.95050  0.52800  Biso   1.000  C
  H375     1.0000 0.32210  0.97510  0.53550  Biso   1.000  H
  C470     1.0000 0.10110  0.30570  0.46350  Biso   1.000  C
  H376     1.0000 0.11190  0.33810  0.45100  Biso   1.000  H
  N95      1.0000 0.71840  0.86670  0.35130  Biso   1.000  N
  C471     1.0000 0.75520  0.87792  0.31830  Biso   1.000  C
  H377     1.0000 0.77260  0.85110  0.30120  Biso   1.000  H
  C472     1.0000 0.76810  0.92852  0.30920  Biso   1.000  C
  H378     1.0000 0.79440  0.93610  0.28570  Biso   1.000  H
  C473     1.0000 0.74360  0.96820  0.33360  Biso   1.000  C
  C474     1.0000 0.70500  0.95473  0.36630  Biso   1.000  C
  H379     1.0000 0.68500  0.98090  0.38180  Biso   1.000  H
  C475     1.0000 0.69500  0.90370  0.37710  Biso   1.000  C
  H380     1.0000 0.67140  0.89500  0.40290  Biso   1.000  H
  N96      1.0000 0.38520  0.28239  0.36740  Biso   1.000  N
  C476     1.0000 0.39690  0.24070  0.34070  Biso   1.000  C
  H381     1.0000 0.37140  0.21530  0.33430  Biso   1.000  H
  C477     1.0000 0.44600  0.23430  0.32240  Biso   1.000  C
  H382     1.0000 0.45210  0.20980  0.29680  Biso   1.000  H
  C478     1.0000 0.48630  0.26300  0.34040  Biso   1.000  C
  C479     1.0000 0.47257  0.30580  0.36760  Biso   1.000  C
  H383     1.0000 0.49850  0.32900  0.37820  Biso   1.000  H
  C480     1.0000 0.42200  0.31560  0.37980  Biso   1.000  C
  H384     1.0000 0.41340  0.34630  0.39710  Biso   1.000  H
  La9      1.0000 0.75863  0.24137  0.25000  Biso   1.000  La
  La10     1.0000 0.24137  0.75863  0.25000  Biso   1.000  La
  La11     1.0000 0.24137  0.24137  0.75000  Biso   1.000  La
  La12     1.0000 0.75863  0.75863  0.75000  Biso   1.000  La
