data_image0
_cell_length_a       20.506
_cell_length_b       20.506
_cell_length_c       20.506
_cell_angle_alpha    90
_cell_angle_beta     90
_cell_angle_gamma    90

_symmetry_space_group_name_H-M    "P 1"
_symmetry_int_tables_number       1

loop_
  _symmetry_equiv_pos_as_xyz
  'x, y, z'

loop_
  _atom_site_label
  _atom_site_occupancy
  _atom_site_fract_x
  _atom_site_fract_y
  _atom_site_fract_z
  _atom_site_thermal_displace_type
  _atom_site_B_iso_or_equiv
  _atom_site_type_symbol
  Pr1      1.0000 0.47968  0.24228  0.14371  Biso   1.000  Pr
  O1       1.0000 0.58464  0.37571  0.28916  Biso   1.000  O
  O2       1.0000 0.53331  0.33226  0.20362  Biso   1.000  O
  O3       1.0000 0.41968  0.07739  0.28236  Biso   1.000  O
  O4       1.0000 0.43546  0.14392  0.19787  Biso   1.000  O
  N1       1.0000 0.49532  0.23089  0.26984  Biso   1.000  N
  C1       1.0000 0.54992  0.33345  0.26318  Biso   1.000  C
  C2       1.0000 0.52505  0.27762  0.30429  Biso   1.000  C
  C3       1.0000 0.53130  0.27440  0.37140  Biso   1.000  C
  H1       1.0000 0.55120  0.30800  0.39440  Biso   1.000  H
  C4       1.0000 0.50750  0.22040  0.40350  Biso   1.000  C
  H2       1.0000 0.51150  0.21670  0.44850  Biso   1.000  H
  C5       1.0000 0.47750  0.17160  0.36770  Biso   1.000  C
  H3       1.0000 0.46100  0.13480  0.38840  Biso   1.000  H
  C6       1.0000 0.47238  0.17833  0.30120  Biso   1.000  C
  C7       1.0000 0.43985  0.12880  0.25774  Biso   1.000  C
  O5       1.0000 0.38421  0.29516  0.20095  Biso   1.000  O
  O6       1.0000 0.44899  0.33636  0.07383  Biso   1.000  O
  O7       1.0000 0.49783  0.16887  0.04635  Biso   1.000  O
  O8       1.0000 0.57523  0.16934  0.17141  Biso   1.000  O
  H4       1.0000 0.47590  0.36200  0.05500  Biso   1.000  H
  H5       1.0000 0.60080  0.17000  0.13880  Biso   1.000  H
  H6       1.0000 0.41030  0.33000  0.06000  Biso   1.000  H
  H7       1.0000 0.46280  0.15200  0.03200  Biso   1.000  H
  H8       1.0000 0.53520  0.15200  0.04000  Biso   1.000  H
  H9       1.0000 0.34780  0.28100  0.18700  Biso   1.000  H
  H10      1.0000 0.38800  0.32100  0.23350  Biso   1.000  H
  H11      1.0000 0.58900  0.17500  0.21020  Biso   1.000  H
  Pr2      1.0000 0.02032  0.75772  0.64371  Biso   1.000  Pr
  O9       1.0000 0.91536  0.62429  0.78916  Biso   1.000  O
  O10      1.0000 0.96669  0.66774  0.70362  Biso   1.000  O
  O11      1.0000 0.08032  0.92261  0.78236  Biso   1.000  O
  O12      1.0000 0.06454  0.85608  0.69787  Biso   1.000  O
  N2       1.0000 0.00468  0.76911  0.76984  Biso   1.000  N
  C8       1.0000 0.95008  0.66655  0.76318  Biso   1.000  C
  C9       1.0000 0.97495  0.72238  0.80429  Biso   1.000  C
  C10      1.0000 0.96870  0.72560  0.87140  Biso   1.000  C
  H12      1.0000 0.94880  0.69200  0.89440  Biso   1.000  H
  C11      1.0000 0.99250  0.77960  0.90350  Biso   1.000  C
  H13      1.0000 0.98850  0.78330  0.94850  Biso   1.000  H
  C12      1.0000 0.02250  0.82840  0.86770  Biso   1.000  C
  H14      1.0000 0.03900  0.86520  0.88840  Biso   1.000  H
  C13      1.0000 0.02762  0.82167  0.80120  Biso   1.000  C
  C14      1.0000 0.06015  0.87120  0.75774  Biso   1.000  C
  O13      1.0000 0.11579  0.70484  0.70095  Biso   1.000  O
  O14      1.0000 0.05101  0.66364  0.57383  Biso   1.000  O
  O15      1.0000 0.00217  0.83113  0.54635  Biso   1.000  O
  O16      1.0000 0.92477  0.83066  0.67141  Biso   1.000  O
  H15      1.0000 0.02410  0.63800  0.55500  Biso   1.000  H
  H16      1.0000 0.89920  0.83000  0.63880  Biso   1.000  H
  H17      1.0000 0.08970  0.67000  0.56000  Biso   1.000  H
  H18      1.0000 0.03720  0.84800  0.53200  Biso   1.000  H
  H19      1.0000 0.96480  0.84800  0.54000  Biso   1.000  H
  H20      1.0000 0.15220  0.71900  0.68700  Biso   1.000  H
  H21      1.0000 0.11200  0.67900  0.73350  Biso   1.000  H
  H22      1.0000 0.91100  0.82500  0.71020  Biso   1.000  H
  Pr3      1.0000 0.52032  0.74228  0.35629  Biso   1.000  Pr
  O17      1.0000 0.41536  0.87571  0.21084  Biso   1.000  O
  O18      1.0000 0.46669  0.83226  0.29638  Biso   1.000  O
  O19      1.0000 0.58032  0.57739  0.21764  Biso   1.000  O
  O20      1.0000 0.56454  0.64392  0.30213  Biso   1.000  O
  N3       1.0000 0.50468  0.73089  0.23016  Biso   1.000  N
  C15      1.0000 0.45008  0.83345  0.23682  Biso   1.000  C
  C16      1.0000 0.47495  0.77762  0.19571  Biso   1.000  C
  C17      1.0000 0.46870  0.77440  0.12860  Biso   1.000  C
  H23      1.0000 0.44880  0.80800  0.10560  Biso   1.000  H
  C18      1.0000 0.49250  0.72040  0.09650  Biso   1.000  C
  H24      1.0000 0.48850  0.71670  0.05150  Biso   1.000  H
  C19      1.0000 0.52250  0.67160  0.13230  Biso   1.000  C
  H25      1.0000 0.53900  0.63480  0.11160  Biso   1.000  H
  C20      1.0000 0.52762  0.67833  0.19880  Biso   1.000  C
  C21      1.0000 0.56015  0.62880  0.24226  Biso   1.000  C
  O21      1.0000 0.61579  0.79516  0.29905  Biso   1.000  O
  O22      1.0000 0.55101  0.83636  0.42617  Biso   1.000  O
  O23      1.0000 0.50217  0.66887  0.45365  Biso   1.000  O
  O24      1.0000 0.42477  0.66934  0.32859  Biso   1.000  O
  H26      1.0000 0.52410  0.86200  0.44500  Biso   1.000  H
  H27      1.0000 0.39920  0.67000  0.36120  Biso   1.000  H
  H28      1.0000 0.58970  0.83000  0.44000  Biso   1.000  H
  H29      1.0000 0.53720  0.65200  0.46800  Biso   1.000  H
  H30      1.0000 0.46480  0.65200  0.46000  Biso   1.000  H
  H31      1.0000 0.65220  0.78100  0.31300  Biso   1.000  H
  H32      1.0000 0.61200  0.82100  0.26650  Biso   1.000  H
  H33      1.0000 0.41100  0.67500  0.28980  Biso   1.000  H
  Pr4      1.0000 0.97968  0.25772  0.85629  Biso   1.000  Pr
  O25      1.0000 0.08464  0.12429  0.71084  Biso   1.000  O
  O26      1.0000 0.03331  0.16774  0.79638  Biso   1.000  O
  O27      1.0000 0.91968  0.42261  0.71764  Biso   1.000  O
  O28      1.0000 0.93546  0.35608  0.80213  Biso   1.000  O
  N4       1.0000 0.99532  0.26911  0.73016  Biso   1.000  N
  C22      1.0000 0.04992  0.16655  0.73682  Biso   1.000  C
  C23      1.0000 0.02505  0.22238  0.69571  Biso   1.000  C
  C24      1.0000 0.03130  0.22560  0.62860  Biso   1.000  C
  H34      1.0000 0.05120  0.19200  0.60560  Biso   1.000  H
  C25      1.0000 0.00750  0.27960  0.59650  Biso   1.000  C
  H35      1.0000 0.01150  0.28330  0.55150  Biso   1.000  H
  C26      1.0000 0.97750  0.32840  0.63230  Biso   1.000  C
  H36      1.0000 0.96100  0.36520  0.61160  Biso   1.000  H
  C27      1.0000 0.97238  0.32167  0.69880  Biso   1.000  C
  C28      1.0000 0.93985  0.37120  0.74226  Biso   1.000  C
  O29      1.0000 0.88421  0.20484  0.79905  Biso   1.000  O
  O30      1.0000 0.94899  0.16364  0.92617  Biso   1.000  O
  O31      1.0000 0.99783  0.33113  0.95365  Biso   1.000  O
  O32      1.0000 0.07523  0.33066  0.82859  Biso   1.000  O
  H37      1.0000 0.97590  0.13800  0.94500  Biso   1.000  H
  H38      1.0000 0.10080  0.33000  0.86120  Biso   1.000  H
  H39      1.0000 0.91030  0.17000  0.94000  Biso   1.000  H
  H40      1.0000 0.96280  0.34800  0.96800  Biso   1.000  H
  H41      1.0000 0.03520  0.34800  0.96000  Biso   1.000  H
  H42      1.0000 0.84780  0.21900  0.81300  Biso   1.000  H
  H43      1.0000 0.88800  0.17900  0.76650  Biso   1.000  H
  H44      1.0000 0.08900  0.32500  0.78980  Biso   1.000  H
  Pr5      1.0000 0.14371  0.47968  0.24228  Biso   1.000  Pr
  O33      1.0000 0.28916  0.58464  0.37571  Biso   1.000  O
  O34      1.0000 0.20362  0.53331  0.33226  Biso   1.000  O
  O35      1.0000 0.28236  0.41968  0.07739  Biso   1.000  O
  O36      1.0000 0.19787  0.43546  0.14392  Biso   1.000  O
  N5       1.0000 0.26984  0.49532  0.23089  Biso   1.000  N
  C29      1.0000 0.26318  0.54992  0.33345  Biso   1.000  C
  C30      1.0000 0.30429  0.52505  0.27762  Biso   1.000  C
  C31      1.0000 0.37140  0.53130  0.27440  Biso   1.000  C
  H45      1.0000 0.39440  0.55120  0.30800  Biso   1.000  H
  C32      1.0000 0.40350  0.50750  0.22040  Biso   1.000  C
  H46      1.0000 0.44850  0.51150  0.21670  Biso   1.000  H
  C33      1.0000 0.36770  0.47750  0.17160  Biso   1.000  C
  H47      1.0000 0.38840  0.46100  0.13480  Biso   1.000  H
  C34      1.0000 0.30120  0.47238  0.17833  Biso   1.000  C
  C35      1.0000 0.25774  0.43985  0.12880  Biso   1.000  C
  O37      1.0000 0.20095  0.38421  0.29516  Biso   1.000  O
  O38      1.0000 0.07383  0.44899  0.33636  Biso   1.000  O
  O39      1.0000 0.04635  0.49783  0.16887  Biso   1.000  O
  O40      1.0000 0.17141  0.57523  0.16934  Biso   1.000  O
  H48      1.0000 0.05500  0.47590  0.36200  Biso   1.000  H
  H49      1.0000 0.13880  0.60080  0.17000  Biso   1.000  H
  H50      1.0000 0.06000  0.41030  0.33000  Biso   1.000  H
  H51      1.0000 0.03200  0.46280  0.15200  Biso   1.000  H
  H52      1.0000 0.04000  0.53520  0.15200  Biso   1.000  H
  H53      1.0000 0.18700  0.34780  0.28100  Biso   1.000  H
  H54      1.0000 0.23350  0.38800  0.32100  Biso   1.000  H
  H55      1.0000 0.21020  0.58900  0.17500  Biso   1.000  H
  Pr6      1.0000 0.64371  0.02032  0.75772  Biso   1.000  Pr
  O41      1.0000 0.78916  0.91536  0.62429  Biso   1.000  O
  O42      1.0000 0.70362  0.96669  0.66774  Biso   1.000  O
  O43      1.0000 0.78236  0.08032  0.92261  Biso   1.000  O
  O44      1.0000 0.69787  0.06454  0.85608  Biso   1.000  O
  N6       1.0000 0.76984  0.00468  0.76911  Biso   1.000  N
  C36      1.0000 0.76318  0.95008  0.66655  Biso   1.000  C
  C37      1.0000 0.80429  0.97495  0.72238  Biso   1.000  C
  C38      1.0000 0.87140  0.96870  0.72560  Biso   1.000  C
  H56      1.0000 0.89440  0.94880  0.69200  Biso   1.000  H
  C39      1.0000 0.90350  0.99250  0.77960  Biso   1.000  C
  H57      1.0000 0.94850  0.98850  0.78330  Biso   1.000  H
  C40      1.0000 0.86770  0.02250  0.82840  Biso   1.000  C
  H58      1.0000 0.88840  0.03900  0.86520  Biso   1.000  H
  C41      1.0000 0.80120  0.02762  0.82167  Biso   1.000  C
  C42      1.0000 0.75774  0.06015  0.87120  Biso   1.000  C
  O45      1.0000 0.70095  0.11579  0.70484  Biso   1.000  O
  O46      1.0000 0.57383  0.05101  0.66364  Biso   1.000  O
  O47      1.0000 0.54635  0.00217  0.83113  Biso   1.000  O
  O48      1.0000 0.67141  0.92477  0.83066  Biso   1.000  O
  H59      1.0000 0.55500  0.02410  0.63800  Biso   1.000  H
  H60      1.0000 0.63880  0.89920  0.83000  Biso   1.000  H
  H61      1.0000 0.56000  0.08970  0.67000  Biso   1.000  H
  H62      1.0000 0.53200  0.03720  0.84800  Biso   1.000  H
  H63      1.0000 0.54000  0.96480  0.84800  Biso   1.000  H
  H64      1.0000 0.68700  0.15220  0.71900  Biso   1.000  H
  H65      1.0000 0.73350  0.11200  0.67900  Biso   1.000  H
  H66      1.0000 0.71020  0.91100  0.82500  Biso   1.000  H
  Pr7      1.0000 0.35629  0.52032  0.74228  Biso   1.000  Pr
  O49      1.0000 0.21084  0.41536  0.87571  Biso   1.000  O
  O50      1.0000 0.29638  0.46669  0.83226  Biso   1.000  O
  O51      1.0000 0.21764  0.58032  0.57739  Biso   1.000  O
  O52      1.0000 0.30213  0.56454  0.64392  Biso   1.000  O
  N7       1.0000 0.23016  0.50468  0.73089  Biso   1.000  N
  C43      1.0000 0.23682  0.45008  0.83345  Biso   1.000  C
  C44      1.0000 0.19571  0.47495  0.77762  Biso   1.000  C
  C45      1.0000 0.12860  0.46870  0.77440  Biso   1.000  C
  H67      1.0000 0.10560  0.44880  0.80800  Biso   1.000  H
  C46      1.0000 0.09650  0.49250  0.72040  Biso   1.000  C
  H68      1.0000 0.05150  0.48850  0.71670  Biso   1.000  H
  C47      1.0000 0.13230  0.52250  0.67160  Biso   1.000  C
  H69      1.0000 0.11160  0.53900  0.63480  Biso   1.000  H
  C48      1.0000 0.19880  0.52762  0.67833  Biso   1.000  C
  C49      1.0000 0.24226  0.56015  0.62880  Biso   1.000  C
  O53      1.0000 0.29905  0.61579  0.79516  Biso   1.000  O
  O54      1.0000 0.42617  0.55101  0.83636  Biso   1.000  O
  O55      1.0000 0.45365  0.50217  0.66887  Biso   1.000  O
  O56      1.0000 0.32859  0.42477  0.66934  Biso   1.000  O
  H70      1.0000 0.44500  0.52410  0.86200  Biso   1.000  H
  H71      1.0000 0.36120  0.39920  0.67000  Biso   1.000  H
  H72      1.0000 0.44000  0.58970  0.83000  Biso   1.000  H
  H73      1.0000 0.46800  0.53720  0.65200  Biso   1.000  H
  H74      1.0000 0.46000  0.46480  0.65200  Biso   1.000  H
  H75      1.0000 0.31300  0.65220  0.78100  Biso   1.000  H
  H76      1.0000 0.26650  0.61200  0.82100  Biso   1.000  H
  H77      1.0000 0.28980  0.41100  0.67500  Biso   1.000  H
  Pr8      1.0000 0.85629  0.97968  0.25772  Biso   1.000  Pr
  O57      1.0000 0.71084  0.08464  0.12429  Biso   1.000  O
  O58      1.0000 0.79638  0.03331  0.16774  Biso   1.000  O
  O59      1.0000 0.71764  0.91968  0.42261  Biso   1.000  O
  O60      1.0000 0.80213  0.93546  0.35608  Biso   1.000  O
  N8       1.0000 0.73016  0.99532  0.26911  Biso   1.000  N
  C50      1.0000 0.73682  0.04992  0.16655  Biso   1.000  C
  C51      1.0000 0.69571  0.02505  0.22238  Biso   1.000  C
  C52      1.0000 0.62860  0.03130  0.22560  Biso   1.000  C
  H78      1.0000 0.60560  0.05120  0.19200  Biso   1.000  H
  C53      1.0000 0.59650  0.00750  0.27960  Biso   1.000  C
  H79      1.0000 0.55150  0.01150  0.28330  Biso   1.000  H
  C54      1.0000 0.63230  0.97750  0.32840  Biso   1.000  C
  H80      1.0000 0.61160  0.96100  0.36520  Biso   1.000  H
  C55      1.0000 0.69880  0.97238  0.32167  Biso   1.000  C
  C56      1.0000 0.74226  0.93985  0.37120  Biso   1.000  C
  O61      1.0000 0.79905  0.88421  0.20484  Biso   1.000  O
  O62      1.0000 0.92617  0.94899  0.16364  Biso   1.000  O
  O63      1.0000 0.95365  0.99783  0.33113  Biso   1.000  O
  O64      1.0000 0.82859  0.07523  0.33066  Biso   1.000  O
  H81      1.0000 0.94500  0.97590  0.13800  Biso   1.000  H
  H82      1.0000 0.86120  0.10080  0.33000  Biso   1.000  H
  H83      1.0000 0.94000  0.91030  0.17000  Biso   1.000  H
  H84      1.0000 0.96800  0.96280  0.34800  Biso   1.000  H
  H85      1.0000 0.96000  0.03520  0.34800  Biso   1.000  H
  H86      1.0000 0.81300  0.84780  0.21900  Biso   1.000  H
  H87      1.0000 0.76650  0.88800  0.17900  Biso   1.000  H
  H88      1.0000 0.78980  0.08900  0.32500  Biso   1.000  H
  Pr9      1.0000 0.24228  0.14371  0.47968  Biso   1.000  Pr
  O65      1.0000 0.37571  0.28916  0.58464  Biso   1.000  O
  O66      1.0000 0.33226  0.20362  0.53331  Biso   1.000  O
  O67      1.0000 0.07739  0.28236  0.41968  Biso   1.000  O
  O68      1.0000 0.14392  0.19787  0.43546  Biso   1.000  O
  N9       1.0000 0.23089  0.26984  0.49532  Biso   1.000  N
  C57      1.0000 0.33345  0.26318  0.54992  Biso   1.000  C
  C58      1.0000 0.27762  0.30429  0.52505  Biso   1.000  C
  C59      1.0000 0.27440  0.37140  0.53130  Biso   1.000  C
  H89      1.0000 0.30800  0.39440  0.55120  Biso   1.000  H
  C60      1.0000 0.22040  0.40350  0.50750  Biso   1.000  C
  H90      1.0000 0.21670  0.44850  0.51150  Biso   1.000  H
  C61      1.0000 0.17160  0.36770  0.47750  Biso   1.000  C
  H91      1.0000 0.13480  0.38840  0.46100  Biso   1.000  H
  C62      1.0000 0.17833  0.30120  0.47238  Biso   1.000  C
  C63      1.0000 0.12880  0.25774  0.43985  Biso   1.000  C
  O69      1.0000 0.29516  0.20095  0.38421  Biso   1.000  O
  O70      1.0000 0.33636  0.07383  0.44899  Biso   1.000  O
  O71      1.0000 0.16887  0.04635  0.49783  Biso   1.000  O
  O72      1.0000 0.16934  0.17141  0.57523  Biso   1.000  O
  H92      1.0000 0.36200  0.05500  0.47590  Biso   1.000  H
  H93      1.0000 0.17000  0.13880  0.60080  Biso   1.000  H
  H94      1.0000 0.33000  0.06000  0.41030  Biso   1.000  H
  H95      1.0000 0.15200  0.03200  0.46280  Biso   1.000  H
  H96      1.0000 0.15200  0.04000  0.53520  Biso   1.000  H
  H97      1.0000 0.28100  0.18700  0.34780  Biso   1.000  H
  H98      1.0000 0.32100  0.23350  0.38800  Biso   1.000  H
  H99      1.0000 0.17500  0.21020  0.58900  Biso   1.000  H
  Pr10     1.0000 0.75772  0.64371  0.02032  Biso   1.000  Pr
  O73      1.0000 0.62429  0.78916  0.91536  Biso   1.000  O
  O74      1.0000 0.66774  0.70362  0.96669  Biso   1.000  O
  O75      1.0000 0.92261  0.78236  0.08032  Biso   1.000  O
  O76      1.0000 0.85608  0.69787  0.06454  Biso   1.000  O
  N10      1.0000 0.76911  0.76984  0.00468  Biso   1.000  N
  C64      1.0000 0.66655  0.76318  0.95008  Biso   1.000  C
  C65      1.0000 0.72238  0.80429  0.97495  Biso   1.000  C
  C66      1.0000 0.72560  0.87140  0.96870  Biso   1.000  C
  H100     1.0000 0.69200  0.89440  0.94880  Biso   1.000  H
  C67      1.0000 0.77960  0.90350  0.99250  Biso   1.000  C
  H101     1.0000 0.78330  0.94850  0.98850  Biso   1.000  H
  C68      1.0000 0.82840  0.86770  0.02250  Biso   1.000  C
  H102     1.0000 0.86520  0.88840  0.03900  Biso   1.000  H
  C69      1.0000 0.82167  0.80120  0.02762  Biso   1.000  C
  C70      1.0000 0.87120  0.75774  0.06015  Biso   1.000  C
  O77      1.0000 0.70484  0.70095  0.11579  Biso   1.000  O
  O78      1.0000 0.66364  0.57383  0.05101  Biso   1.000  O
  O79      1.0000 0.83113  0.54635  0.00217  Biso   1.000  O
  O80      1.0000 0.83066  0.67141  0.92477  Biso   1.000  O
  H103     1.0000 0.63800  0.55500  0.02410  Biso   1.000  H
  H104     1.0000 0.83000  0.63880  0.89920  Biso   1.000  H
  H105     1.0000 0.67000  0.56000  0.08970  Biso   1.000  H
  H106     1.0000 0.84800  0.53200  0.03720  Biso   1.000  H
  H107     1.0000 0.84800  0.54000  0.96480  Biso   1.000  H
  H108     1.0000 0.71900  0.68700  0.15220  Biso   1.000  H
  H109     1.0000 0.67900  0.73350  0.11200  Biso   1.000  H
  H110     1.0000 0.82500  0.71020  0.91100  Biso   1.000  H
  Pr11     1.0000 0.74228  0.35629  0.52032  Biso   1.000  Pr
  O81      1.0000 0.87571  0.21084  0.41536  Biso   1.000  O
  O82      1.0000 0.83226  0.29638  0.46669  Biso   1.000  O
  O83      1.0000 0.57739  0.21764  0.58032  Biso   1.000  O
  O84      1.0000 0.64392  0.30213  0.56454  Biso   1.000  O
  N11      1.0000 0.73089  0.23016  0.50468  Biso   1.000  N
  C71      1.0000 0.83345  0.23682  0.45008  Biso   1.000  C
  C72      1.0000 0.77762  0.19571  0.47495  Biso   1.000  C
  C73      1.0000 0.77440  0.12860  0.46870  Biso   1.000  C
  H111     1.0000 0.80800  0.10560  0.44880  Biso   1.000  H
  C74      1.0000 0.72040  0.09650  0.49250  Biso   1.000  C
  H112     1.0000 0.71670  0.05150  0.48850  Biso   1.000  H
  C75      1.0000 0.67160  0.13230  0.52250  Biso   1.000  C
  H113     1.0000 0.63480  0.11160  0.53900  Biso   1.000  H
  C76      1.0000 0.67833  0.19880  0.52762  Biso   1.000  C
  C77      1.0000 0.62880  0.24226  0.56015  Biso   1.000  C
  O85      1.0000 0.79516  0.29905  0.61579  Biso   1.000  O
  O86      1.0000 0.83636  0.42617  0.55101  Biso   1.000  O
  O87      1.0000 0.66887  0.45365  0.50217  Biso   1.000  O
  O88      1.0000 0.66934  0.32859  0.42477  Biso   1.000  O
  H114     1.0000 0.86200  0.44500  0.52410  Biso   1.000  H
  H115     1.0000 0.67000  0.36120  0.39920  Biso   1.000  H
  H116     1.0000 0.83000  0.44000  0.58970  Biso   1.000  H
  H117     1.0000 0.65200  0.46800  0.53720  Biso   1.000  H
  H118     1.0000 0.65200  0.46000  0.46480  Biso   1.000  H
  H119     1.0000 0.78100  0.31300  0.65220  Biso   1.000  H
  H120     1.0000 0.82100  0.26650  0.61200  Biso   1.000  H
  H121     1.0000 0.67500  0.28980  0.41100  Biso   1.000  H
  Pr12     1.0000 0.25772  0.85629  0.97968  Biso   1.000  Pr
  O89      1.0000 0.12429  0.71084  0.08464  Biso   1.000  O
  O90      1.0000 0.16774  0.79638  0.03331  Biso   1.000  O
  O91      1.0000 0.42261  0.71764  0.91968  Biso   1.000  O
  O92      1.0000 0.35608  0.80213  0.93546  Biso   1.000  O
  N12      1.0000 0.26911  0.73016  0.99532  Biso   1.000  N
  C78      1.0000 0.16655  0.73682  0.04992  Biso   1.000  C
  C79      1.0000 0.22238  0.69571  0.02505  Biso   1.000  C
  C80      1.0000 0.22560  0.62860  0.03130  Biso   1.000  C
  H122     1.0000 0.19200  0.60560  0.05120  Biso   1.000  H
  C81      1.0000 0.27960  0.59650  0.00750  Biso   1.000  C
  H123     1.0000 0.28330  0.55150  0.01150  Biso   1.000  H
  C82      1.0000 0.32840  0.63230  0.97750  Biso   1.000  C
  H124     1.0000 0.36520  0.61160  0.96100  Biso   1.000  H
  C83      1.0000 0.32167  0.69880  0.97238  Biso   1.000  C
  C84      1.0000 0.37120  0.74226  0.93985  Biso   1.000  C
  O93      1.0000 0.20484  0.79905  0.88421  Biso   1.000  O
  O94      1.0000 0.16364  0.92617  0.94899  Biso   1.000  O
  O95      1.0000 0.33113  0.95365  0.99783  Biso   1.000  O
  O96      1.0000 0.33066  0.82859  0.07523  Biso   1.000  O
  H125     1.0000 0.13800  0.94500  0.97590  Biso   1.000  H
  H126     1.0000 0.33000  0.86120  0.10080  Biso   1.000  H
  H127     1.0000 0.17000  0.94000  0.91030  Biso   1.000  H
  H128     1.0000 0.34800  0.96800  0.96280  Biso   1.000  H
  H129     1.0000 0.34800  0.96000  0.03520  Biso   1.000  H
  H130     1.0000 0.21900  0.81300  0.84780  Biso   1.000  H
  H131     1.0000 0.17900  0.76650  0.88800  Biso   1.000  H
  H132     1.0000 0.32500  0.78980  0.08900  Biso   1.000  H
  Pr13     1.0000 0.52032  0.75772  0.85629  Biso   1.000  Pr
  O97      1.0000 0.41536  0.62429  0.71084  Biso   1.000  O
  O98      1.0000 0.46669  0.66774  0.79638  Biso   1.000  O
  O99      1.0000 0.58032  0.92261  0.71764  Biso   1.000  O
  O100     1.0000 0.56454  0.85608  0.80213  Biso   1.000  O
  N13      1.0000 0.50468  0.76911  0.73016  Biso   1.000  N
  C85      1.0000 0.45008  0.66655  0.73682  Biso   1.000  C
  C86      1.0000 0.47495  0.72238  0.69571  Biso   1.000  C
  C87      1.0000 0.46870  0.72560  0.62860  Biso   1.000  C
  H133     1.0000 0.44880  0.69200  0.60560  Biso   1.000  H
  C88      1.0000 0.49250  0.77960  0.59650  Biso   1.000  C
  H134     1.0000 0.48850  0.78330  0.55150  Biso   1.000  H
  C89      1.0000 0.52250  0.82840  0.63230  Biso   1.000  C
  H135     1.0000 0.53900  0.86520  0.61160  Biso   1.000  H
  C90      1.0000 0.52762  0.82167  0.69880  Biso   1.000  C
  C91      1.0000 0.56015  0.87120  0.74226  Biso   1.000  C
  O101     1.0000 0.61579  0.70484  0.79905  Biso   1.000  O
  O102     1.0000 0.55101  0.66364  0.92617  Biso   1.000  O
  O103     1.0000 0.50217  0.83113  0.95365  Biso   1.000  O
  O104     1.0000 0.42477  0.83066  0.82859  Biso   1.000  O
  H136     1.0000 0.52410  0.63800  0.94500  Biso   1.000  H
  H137     1.0000 0.39920  0.83000  0.86120  Biso   1.000  H
  H138     1.0000 0.58970  0.67000  0.94000  Biso   1.000  H
  H139     1.0000 0.53720  0.84800  0.96800  Biso   1.000  H
  H140     1.0000 0.46480  0.84800  0.96000  Biso   1.000  H
  H141     1.0000 0.65220  0.71900  0.81300  Biso   1.000  H
  H142     1.0000 0.61200  0.67900  0.76650  Biso   1.000  H
  H143     1.0000 0.41100  0.82500  0.78980  Biso   1.000  H
  Pr14     1.0000 0.97968  0.24228  0.35629  Biso   1.000  Pr
  O105     1.0000 0.08464  0.37571  0.21084  Biso   1.000  O
  O106     1.0000 0.03331  0.33226  0.29638  Biso   1.000  O
  O107     1.0000 0.91968  0.07739  0.21764  Biso   1.000  O
  O108     1.0000 0.93546  0.14392  0.30213  Biso   1.000  O
  N14      1.0000 0.99532  0.23089  0.23016  Biso   1.000  N
  C92      1.0000 0.04992  0.33345  0.23682  Biso   1.000  C
  C93      1.0000 0.02505  0.27762  0.19571  Biso   1.000  C
  C94      1.0000 0.03130  0.27440  0.12860  Biso   1.000  C
  H144     1.0000 0.05120  0.30800  0.10560  Biso   1.000  H
  C95      1.0000 0.00750  0.22040  0.09650  Biso   1.000  C
  H145     1.0000 0.01150  0.21670  0.05150  Biso   1.000  H
  C96      1.0000 0.97750  0.17160  0.13230  Biso   1.000  C
  H146     1.0000 0.96100  0.13480  0.11160  Biso   1.000  H
  C97      1.0000 0.97238  0.17833  0.19880  Biso   1.000  C
  C98      1.0000 0.93985  0.12880  0.24226  Biso   1.000  C
  O109     1.0000 0.88421  0.29516  0.29905  Biso   1.000  O
  O110     1.0000 0.94899  0.33636  0.42617  Biso   1.000  O
  O111     1.0000 0.99783  0.16887  0.45365  Biso   1.000  O
  O112     1.0000 0.07523  0.16934  0.32859  Biso   1.000  O
  H147     1.0000 0.97590  0.36200  0.44500  Biso   1.000  H
  H148     1.0000 0.10080  0.17000  0.36120  Biso   1.000  H
  H149     1.0000 0.91030  0.33000  0.44000  Biso   1.000  H
  H150     1.0000 0.96280  0.15200  0.46800  Biso   1.000  H
  H151     1.0000 0.03520  0.15200  0.46000  Biso   1.000  H
  H152     1.0000 0.84780  0.28100  0.31300  Biso   1.000  H
  H153     1.0000 0.88800  0.32100  0.26650  Biso   1.000  H
  H154     1.0000 0.08900  0.17500  0.28980  Biso   1.000  H
  Pr15     1.0000 0.47968  0.25772  0.64371  Biso   1.000  Pr
  O113     1.0000 0.58464  0.12429  0.78916  Biso   1.000  O
  O114     1.0000 0.53331  0.16774  0.70362  Biso   1.000  O
  O115     1.0000 0.41968  0.42261  0.78236  Biso   1.000  O
  O116     1.0000 0.43546  0.35608  0.69787  Biso   1.000  O
  N15      1.0000 0.49532  0.26911  0.76984  Biso   1.000  N
  C99      1.0000 0.54992  0.16655  0.76318  Biso   1.000  C
  C100     1.0000 0.52505  0.22238  0.80429  Biso   1.000  C
  C101     1.0000 0.53130  0.22560  0.87140  Biso   1.000  C
  H155     1.0000 0.55120  0.19200  0.89440  Biso   1.000  H
  C102     1.0000 0.50750  0.27960  0.90350  Biso   1.000  C
  H156     1.0000 0.51150  0.28330  0.94850  Biso   1.000  H
  C103     1.0000 0.47750  0.32840  0.86770  Biso   1.000  C
  H157     1.0000 0.46100  0.36520  0.88840  Biso   1.000  H
  C104     1.0000 0.47238  0.32167  0.80120  Biso   1.000  C
  C105     1.0000 0.43985  0.37120  0.75774  Biso   1.000  C
  O117     1.0000 0.38421  0.20484  0.70095  Biso   1.000  O
  O118     1.0000 0.44899  0.16364  0.57383  Biso   1.000  O
  O119     1.0000 0.49783  0.33113  0.54635  Biso   1.000  O
  O120     1.0000 0.57523  0.33066  0.67141  Biso   1.000  O
  H158     1.0000 0.47590  0.13800  0.55500  Biso   1.000  H
  H159     1.0000 0.60080  0.33000  0.63880  Biso   1.000  H
  H160     1.0000 0.41030  0.17000  0.56000  Biso   1.000  H
  H161     1.0000 0.46280  0.34800  0.53200  Biso   1.000  H
  H162     1.0000 0.53520  0.34800  0.54000  Biso   1.000  H
  H163     1.0000 0.34780  0.21900  0.68700  Biso   1.000  H
  H164     1.0000 0.38800  0.17900  0.73350  Biso   1.000  H
  H165     1.0000 0.58900  0.32500  0.71020  Biso   1.000  H
  Pr16     1.0000 0.02032  0.74228  0.14371  Biso   1.000  Pr
  O121     1.0000 0.91536  0.87571  0.28916  Biso   1.000  O
  O122     1.0000 0.96669  0.83226  0.20362  Biso   1.000  O
  O123     1.0000 0.08032  0.57739  0.28236  Biso   1.000  O
  O124     1.0000 0.06454  0.64392  0.19787  Biso   1.000  O
  N16      1.0000 0.00468  0.73089  0.26984  Biso   1.000  N
  C106     1.0000 0.95008  0.83345  0.26318  Biso   1.000  C
  C107     1.0000 0.97495  0.77762  0.30429  Biso   1.000  C
  C108     1.0000 0.96870  0.77440  0.37140  Biso   1.000  C
  H166     1.0000 0.94880  0.80800  0.39440  Biso   1.000  H
  C109     1.0000 0.99250  0.72040  0.40350  Biso   1.000  C
  H167     1.0000 0.98850  0.71670  0.44850  Biso   1.000  H
  C110     1.0000 0.02250  0.67160  0.36770  Biso   1.000  C
  H168     1.0000 0.03900  0.63480  0.38840  Biso   1.000  H
  C111     1.0000 0.02762  0.67833  0.30120  Biso   1.000  C
  C112     1.0000 0.06015  0.62880  0.25774  Biso   1.000  C
  O125     1.0000 0.11579  0.79516  0.20095  Biso   1.000  O
  O126     1.0000 0.05101  0.83636  0.07383  Biso   1.000  O
  O127     1.0000 0.00217  0.66887  0.04635  Biso   1.000  O
  O128     1.0000 0.92477  0.66934  0.17141  Biso   1.000  O
  H169     1.0000 0.02410  0.86200  0.05500  Biso   1.000  H
  H170     1.0000 0.89920  0.67000  0.13880  Biso   1.000  H
  H171     1.0000 0.08970  0.83000  0.06000  Biso   1.000  H
  H172     1.0000 0.03720  0.65200  0.03200  Biso   1.000  H
  H173     1.0000 0.96480  0.65200  0.04000  Biso   1.000  H
  H174     1.0000 0.15220  0.78100  0.18700  Biso   1.000  H
  H175     1.0000 0.11200  0.82100  0.23350  Biso   1.000  H
  H176     1.0000 0.91100  0.67500  0.21020  Biso   1.000  H
  Pr17     1.0000 0.85629  0.52032  0.75772  Biso   1.000  Pr
  O129     1.0000 0.71084  0.41536  0.62429  Biso   1.000  O
  O130     1.0000 0.79638  0.46669  0.66774  Biso   1.000  O
  O131     1.0000 0.71764  0.58032  0.92261  Biso   1.000  O
  O132     1.0000 0.80213  0.56454  0.85608  Biso   1.000  O
  N17      1.0000 0.73016  0.50468  0.76911  Biso   1.000  N
  C113     1.0000 0.73682  0.45008  0.66655  Biso   1.000  C
  C114     1.0000 0.69571  0.47495  0.72238  Biso   1.000  C
  C115     1.0000 0.62860  0.46870  0.72560  Biso   1.000  C
  H177     1.0000 0.60560  0.44880  0.69200  Biso   1.000  H
  C116     1.0000 0.59650  0.49250  0.77960  Biso   1.000  C
  H178     1.0000 0.55150  0.48850  0.78330  Biso   1.000  H
  C117     1.0000 0.63230  0.52250  0.82840  Biso   1.000  C
  H179     1.0000 0.61160  0.53900  0.86520  Biso   1.000  H
  C118     1.0000 0.69880  0.52762  0.82167  Biso   1.000  C
  C119     1.0000 0.74226  0.56015  0.87120  Biso   1.000  C
  O133     1.0000 0.79905  0.61579  0.70484  Biso   1.000  O
  O134     1.0000 0.92617  0.55101  0.66364  Biso   1.000  O
  O135     1.0000 0.95365  0.50217  0.83113  Biso   1.000  O
  O136     1.0000 0.82859  0.42477  0.83066  Biso   1.000  O
  H180     1.0000 0.94500  0.52410  0.63800  Biso   1.000  H
  H181     1.0000 0.86120  0.39920  0.83000  Biso   1.000  H
  H182     1.0000 0.94000  0.58970  0.67000  Biso   1.000  H
  H183     1.0000 0.96800  0.53720  0.84800  Biso   1.000  H
  H184     1.0000 0.96000  0.46480  0.84800  Biso   1.000  H
  H185     1.0000 0.81300  0.65220  0.71900  Biso   1.000  H
  H186     1.0000 0.76650  0.61200  0.67900  Biso   1.000  H
  H187     1.0000 0.78980  0.41100  0.82500  Biso   1.000  H
  Pr18     1.0000 0.35629  0.97968  0.24228  Biso   1.000  Pr
  O137     1.0000 0.21084  0.08464  0.37571  Biso   1.000  O
  O138     1.0000 0.29638  0.03331  0.33226  Biso   1.000  O
  O139     1.0000 0.21764  0.91968  0.07739  Biso   1.000  O
  O140     1.0000 0.30213  0.93546  0.14392  Biso   1.000  O
  N18      1.0000 0.23016  0.99532  0.23089  Biso   1.000  N
  C120     1.0000 0.23682  0.04992  0.33345  Biso   1.000  C
  C121     1.0000 0.19571  0.02505  0.27762  Biso   1.000  C
  C122     1.0000 0.12860  0.03130  0.27440  Biso   1.000  C
  H188     1.0000 0.10560  0.05120  0.30800  Biso   1.000  H
  C123     1.0000 0.09650  0.00750  0.22040  Biso   1.000  C
  H189     1.0000 0.05150  0.01150  0.21670  Biso   1.000  H
  C124     1.0000 0.13230  0.97750  0.17160  Biso   1.000  C
  H190     1.0000 0.11160  0.96100  0.13480  Biso   1.000  H
  C125     1.0000 0.19880  0.97238  0.17833  Biso   1.000  C
  C126     1.0000 0.24226  0.93985  0.12880  Biso   1.000  C
  O141     1.0000 0.29905  0.88421  0.29516  Biso   1.000  O
  O142     1.0000 0.42617  0.94899  0.33636  Biso   1.000  O
  O143     1.0000 0.45365  0.99783  0.16887  Biso   1.000  O
  O144     1.0000 0.32859  0.07523  0.16934  Biso   1.000  O
  H191     1.0000 0.44500  0.97590  0.36200  Biso   1.000  H
  H192     1.0000 0.36120  0.10080  0.17000  Biso   1.000  H
  H193     1.0000 0.44000  0.91030  0.33000  Biso   1.000  H
  H194     1.0000 0.46800  0.96280  0.15200  Biso   1.000  H
  H195     1.0000 0.46000  0.03520  0.15200  Biso   1.000  H
  H196     1.0000 0.31300  0.84780  0.28100  Biso   1.000  H
  H197     1.0000 0.26650  0.88800  0.32100  Biso   1.000  H
  H198     1.0000 0.28980  0.08900  0.17500  Biso   1.000  H
  Pr19     1.0000 0.64371  0.47968  0.25772  Biso   1.000  Pr
  O145     1.0000 0.78916  0.58464  0.12429  Biso   1.000  O
  O146     1.0000 0.70362  0.53331  0.16774  Biso   1.000  O
  O147     1.0000 0.78236  0.41968  0.42261  Biso   1.000  O
  O148     1.0000 0.69787  0.43546  0.35608  Biso   1.000  O
  N19      1.0000 0.76984  0.49532  0.26911  Biso   1.000  N
  C127     1.0000 0.76318  0.54992  0.16655  Biso   1.000  C
  C128     1.0000 0.80429  0.52505  0.22238  Biso   1.000  C
  C129     1.0000 0.87140  0.53130  0.22560  Biso   1.000  C
  H199     1.0000 0.89440  0.55120  0.19200  Biso   1.000  H
  C130     1.0000 0.90350  0.50750  0.27960  Biso   1.000  C
  H200     1.0000 0.94850  0.51150  0.28330  Biso   1.000  H
  C131     1.0000 0.86770  0.47750  0.32840  Biso   1.000  C
  H201     1.0000 0.88840  0.46100  0.36520  Biso   1.000  H
  C132     1.0000 0.80120  0.47238  0.32167  Biso   1.000  C
  C133     1.0000 0.75774  0.43985  0.37120  Biso   1.000  C
  O149     1.0000 0.70095  0.38421  0.20484  Biso   1.000  O
  O150     1.0000 0.57383  0.44899  0.16364  Biso   1.000  O
  O151     1.0000 0.54635  0.49783  0.33113  Biso   1.000  O
  O152     1.0000 0.67141  0.57523  0.33066  Biso   1.000  O
  H202     1.0000 0.55500  0.47590  0.13800  Biso   1.000  H
  H203     1.0000 0.63880  0.60080  0.33000  Biso   1.000  H
  H204     1.0000 0.56000  0.41030  0.17000  Biso   1.000  H
  H205     1.0000 0.53200  0.46280  0.34800  Biso   1.000  H
  H206     1.0000 0.54000  0.53520  0.34800  Biso   1.000  H
  H207     1.0000 0.68700  0.34780  0.21900  Biso   1.000  H
  H208     1.0000 0.73350  0.38800  0.17900  Biso   1.000  H
  H209     1.0000 0.71020  0.58900  0.32500  Biso   1.000  H
  Pr20     1.0000 0.14371  0.02032  0.74228  Biso   1.000  Pr
  O153     1.0000 0.28916  0.91536  0.87571  Biso   1.000  O
  O154     1.0000 0.20362  0.96669  0.83226  Biso   1.000  O
  O155     1.0000 0.28236  0.08032  0.57739  Biso   1.000  O
  O156     1.0000 0.19787  0.06454  0.64392  Biso   1.000  O
  N20      1.0000 0.26984  0.00468  0.73089  Biso   1.000  N
  C134     1.0000 0.26318  0.95008  0.83345  Biso   1.000  C
  C135     1.0000 0.30429  0.97495  0.77762  Biso   1.000  C
  C136     1.0000 0.37140  0.96870  0.77440  Biso   1.000  C
  H210     1.0000 0.39440  0.94880  0.80800  Biso   1.000  H
  C137     1.0000 0.40350  0.99250  0.72040  Biso   1.000  C
  H211     1.0000 0.44850  0.98850  0.71670  Biso   1.000  H
  C138     1.0000 0.36770  0.02250  0.67160  Biso   1.000  C
  H212     1.0000 0.38840  0.03900  0.63480  Biso   1.000  H
  C139     1.0000 0.30120  0.02762  0.67833  Biso   1.000  C
  C140     1.0000 0.25774  0.06015  0.62880  Biso   1.000  C
  O157     1.0000 0.20095  0.11579  0.79516  Biso   1.000  O
  O158     1.0000 0.07383  0.05101  0.83636  Biso   1.000  O
  O159     1.0000 0.04635  0.00217  0.66887  Biso   1.000  O
  O160     1.0000 0.17141  0.92477  0.66934  Biso   1.000  O
  H213     1.0000 0.05500  0.02410  0.86200  Biso   1.000  H
  H214     1.0000 0.13880  0.89920  0.67000  Biso   1.000  H
  H215     1.0000 0.06000  0.08970  0.83000  Biso   1.000  H
  H216     1.0000 0.03200  0.03720  0.65200  Biso   1.000  H
  H217     1.0000 0.04000  0.96480  0.65200  Biso   1.000  H
  H218     1.0000 0.18700  0.15220  0.78100  Biso   1.000  H
  H219     1.0000 0.23350  0.11200  0.82100  Biso   1.000  H
  H220     1.0000 0.21020  0.91100  0.67500  Biso   1.000  H
  Pr21     1.0000 0.75772  0.85629  0.52032  Biso   1.000  Pr
  O161     1.0000 0.62429  0.71084  0.41536  Biso   1.000  O
  O162     1.0000 0.66774  0.79638  0.46669  Biso   1.000  O
  O163     1.0000 0.92261  0.71764  0.58032  Biso   1.000  O
  O164     1.0000 0.85608  0.80213  0.56454  Biso   1.000  O
  N21      1.0000 0.76911  0.73016  0.50468  Biso   1.000  N
  C141     1.0000 0.66655  0.73682  0.45008  Biso   1.000  C
  C142     1.0000 0.72238  0.69571  0.47495  Biso   1.000  C
  C143     1.0000 0.72560  0.62860  0.46870  Biso   1.000  C
  H221     1.0000 0.69200  0.60560  0.44880  Biso   1.000  H
  C144     1.0000 0.77960  0.59650  0.49250  Biso   1.000  C
  H222     1.0000 0.78330  0.55150  0.48850  Biso   1.000  H
  C145     1.0000 0.82840  0.63230  0.52250  Biso   1.000  C
  H223     1.0000 0.86520  0.61160  0.53900  Biso   1.000  H
  C146     1.0000 0.82167  0.69880  0.52762  Biso   1.000  C
  C147     1.0000 0.87120  0.74226  0.56015  Biso   1.000  C
  O165     1.0000 0.70484  0.79905  0.61579  Biso   1.000  O
  O166     1.0000 0.66364  0.92617  0.55101  Biso   1.000  O
  O167     1.0000 0.83113  0.95365  0.50217  Biso   1.000  O
  O168     1.0000 0.83066  0.82859  0.42477  Biso   1.000  O
  H224     1.0000 0.63800  0.94500  0.52410  Biso   1.000  H
  H225     1.0000 0.83000  0.86120  0.39920  Biso   1.000  H
  H226     1.0000 0.67000  0.94000  0.58970  Biso   1.000  H
  H227     1.0000 0.84800  0.96800  0.53720  Biso   1.000  H
  H228     1.0000 0.84800  0.96000  0.46480  Biso   1.000  H
  H229     1.0000 0.71900  0.81300  0.65220  Biso   1.000  H
  H230     1.0000 0.67900  0.76650  0.61200  Biso   1.000  H
  H231     1.0000 0.82500  0.78980  0.41100  Biso   1.000  H
  Pr22     1.0000 0.24228  0.35629  0.97968  Biso   1.000  Pr
  O169     1.0000 0.37571  0.21084  0.08464  Biso   1.000  O
  O170     1.0000 0.33226  0.29638  0.03331  Biso   1.000  O
  O171     1.0000 0.07739  0.21764  0.91968  Biso   1.000  O
  O172     1.0000 0.14392  0.30213  0.93546  Biso   1.000  O
  N22      1.0000 0.23089  0.23016  0.99532  Biso   1.000  N
  C148     1.0000 0.33345  0.23682  0.04992  Biso   1.000  C
  C149     1.0000 0.27762  0.19571  0.02505  Biso   1.000  C
  C150     1.0000 0.27440  0.12860  0.03130  Biso   1.000  C
  H232     1.0000 0.30800  0.10560  0.05120  Biso   1.000  H
  C151     1.0000 0.22040  0.09650  0.00750  Biso   1.000  C
  H233     1.0000 0.21670  0.05150  0.01150  Biso   1.000  H
  C152     1.0000 0.17160  0.13230  0.97750  Biso   1.000  C
  H234     1.0000 0.13480  0.11160  0.96100  Biso   1.000  H
  C153     1.0000 0.17833  0.19880  0.97238  Biso   1.000  C
  C154     1.0000 0.12880  0.24226  0.93985  Biso   1.000  C
  O173     1.0000 0.29516  0.29905  0.88421  Biso   1.000  O
  O174     1.0000 0.33636  0.42617  0.94899  Biso   1.000  O
  O175     1.0000 0.16887  0.45365  0.99783  Biso   1.000  O
  O176     1.0000 0.16934  0.32859  0.07523  Biso   1.000  O
  H235     1.0000 0.36200  0.44500  0.97590  Biso   1.000  H
  H236     1.0000 0.17000  0.36120  0.10080  Biso   1.000  H
  H237     1.0000 0.33000  0.44000  0.91030  Biso   1.000  H
  H238     1.0000 0.15200  0.46800  0.96280  Biso   1.000  H
  H239     1.0000 0.15200  0.46000  0.03520  Biso   1.000  H
  H240     1.0000 0.28100  0.31300  0.84780  Biso   1.000  H
  H241     1.0000 0.32100  0.26650  0.88800  Biso   1.000  H
  H242     1.0000 0.17500  0.28980  0.08900  Biso   1.000  H
  Pr23     1.0000 0.25772  0.64371  0.47968  Biso   1.000  Pr
  O177     1.0000 0.12429  0.78916  0.58464  Biso   1.000  O
  O178     1.0000 0.16774  0.70362  0.53331  Biso   1.000  O
  O179     1.0000 0.42261  0.78236  0.41968  Biso   1.000  O
  O180     1.0000 0.35608  0.69787  0.43546  Biso   1.000  O
  N23      1.0000 0.26911  0.76984  0.49532  Biso   1.000  N
  C155     1.0000 0.16655  0.76318  0.54992  Biso   1.000  C
  C156     1.0000 0.22238  0.80429  0.52505  Biso   1.000  C
  C157     1.0000 0.22560  0.87140  0.53130  Biso   1.000  C
  H243     1.0000 0.19200  0.89440  0.55120  Biso   1.000  H
  C158     1.0000 0.27960  0.90350  0.50750  Biso   1.000  C
  H244     1.0000 0.28330  0.94850  0.51150  Biso   1.000  H
  C159     1.0000 0.32840  0.86770  0.47750  Biso   1.000  C
  H245     1.0000 0.36520  0.88840  0.46100  Biso   1.000  H
  C160     1.0000 0.32167  0.80120  0.47238  Biso   1.000  C
  C161     1.0000 0.37120  0.75774  0.43985  Biso   1.000  C
  O181     1.0000 0.20484  0.70095  0.38421  Biso   1.000  O
  O182     1.0000 0.16364  0.57383  0.44899  Biso   1.000  O
  O183     1.0000 0.33113  0.54635  0.49783  Biso   1.000  O
  O184     1.0000 0.33066  0.67141  0.57523  Biso   1.000  O
  H246     1.0000 0.13800  0.55500  0.47590  Biso   1.000  H
  H247     1.0000 0.33000  0.63880  0.60080  Biso   1.000  H
  H248     1.0000 0.17000  0.56000  0.41030  Biso   1.000  H
  H249     1.0000 0.34800  0.53200  0.46280  Biso   1.000  H
  H250     1.0000 0.34800  0.54000  0.53520  Biso   1.000  H
  H251     1.0000 0.21900  0.68700  0.34780  Biso   1.000  H
  H252     1.0000 0.17900  0.73350  0.38800  Biso   1.000  H
  H253     1.0000 0.32500  0.71020  0.58900  Biso   1.000  H
  Pr24     1.0000 0.74228  0.14371  0.02032  Biso   1.000  Pr
  O185     1.0000 0.87571  0.28916  0.91536  Biso   1.000  O
  O186     1.0000 0.83226  0.20362  0.96669  Biso   1.000  O
  O187     1.0000 0.57739  0.28236  0.08032  Biso   1.000  O
  O188     1.0000 0.64392  0.19787  0.06454  Biso   1.000  O
  N24      1.0000 0.73089  0.26984  0.00468  Biso   1.000  N
  C162     1.0000 0.83345  0.26318  0.95008  Biso   1.000  C
  C163     1.0000 0.77762  0.30429  0.97495  Biso   1.000  C
  C164     1.0000 0.77440  0.37140  0.96870  Biso   1.000  C
  H254     1.0000 0.80800  0.39440  0.94880  Biso   1.000  H
  C165     1.0000 0.72040  0.40350  0.99250  Biso   1.000  C
  H255     1.0000 0.71670  0.44850  0.98850  Biso   1.000  H
  C166     1.0000 0.67160  0.36770  0.02250  Biso   1.000  C
  H256     1.0000 0.63480  0.38840  0.03900  Biso   1.000  H
  C167     1.0000 0.67833  0.30120  0.02762  Biso   1.000  C
  C168     1.0000 0.62880  0.25774  0.06015  Biso   1.000  C
  O189     1.0000 0.79516  0.20095  0.11579  Biso   1.000  O
  O190     1.0000 0.83636  0.07383  0.05101  Biso   1.000  O
  O191     1.0000 0.66887  0.04635  0.00217  Biso   1.000  O
  O192     1.0000 0.66934  0.17141  0.92477  Biso   1.000  O
  H257     1.0000 0.86200  0.05500  0.02410  Biso   1.000  H
  H258     1.0000 0.67000  0.13880  0.89920  Biso   1.000  H
  H259     1.0000 0.83000  0.06000  0.08970  Biso   1.000  H
  H260     1.0000 0.65200  0.03200  0.03720  Biso   1.000  H
  H261     1.0000 0.65200  0.04000  0.96480  Biso   1.000  H
  H262     1.0000 0.78100  0.18700  0.15220  Biso   1.000  H
  H263     1.0000 0.82100  0.23350  0.11200  Biso   1.000  H
  H264     1.0000 0.67500  0.21020  0.91100  Biso   1.000  H
