data_ic5b00592_si_002_freeONLY
_audit_creation_date              2015-08-19
_audit_creation_method            'Materials Studio'
_symmetry_space_group_name_H-M    'P1'
_symmetry_Int_Tables_number       1
_symmetry_cell_setting            triclinic
loop_
_symmetry_equiv_pos_as_xyz
  x,y,z
_cell_length_a                    9.4483
_cell_length_b                    29.0420
_cell_length_c                    30.7500
_cell_angle_alpha                 90.0000
_cell_angle_beta                  90.0000
_cell_angle_gamma                 90.0000
loop_
_atom_site_label
_atom_site_type_symbol
_atom_site_fract_x
_atom_site_fract_y
_atom_site_fract_z
_atom_site_U_iso_or_equiv
_atom_site_adp_type
_atom_site_occupancy
Ni1    Ni    0.13960   0.73130   0.11138   0.01267  Uiso   1.00
Ni2    Ni    0.83550   0.96634   0.28698   0.01267  Uiso   1.00
Ni3    Ni    0.86040   0.23130   0.38862   0.01267  Uiso   1.00
Ni4    Ni    0.16450   0.46634   0.21302   0.01267  Uiso   1.00
H1     H     0.00760   0.51280   0.16590   0.01267  Uiso   1.00
H2     H     0.96010   0.58620   0.38610   0.01267  Uiso   1.00
H3     H     0.73990   0.11070   0.09460   0.01267  Uiso   1.00
H4     H     0.25000   0.61690   0.29630   0.01267  Uiso   1.00
H5     H     0.93020   0.81410   0.18050   0.01267  Uiso   1.00
H6     H     0.10810   0.20650   0.12530   0.01267  Uiso   1.00
H7     H     0.71990   0.29320   0.36070   0.01267  Uiso   1.00
H8     H     0.19320   0.65940   0.23410   0.01267  Uiso   1.00
H9     H     0.97180   0.61450   0.13290   0.01267  Uiso   1.00
H10    H     0.02710   0.87370   0.22660   0.01267  Uiso   1.00
H11    H     0.97290   0.37370   0.27340   0.01267  Uiso   1.00
H12    H     0.92870   0.44280   0.24140   0.01267  Uiso   1.00
H13    H     0.74830   0.40580   0.27860   0.01267  Uiso   1.00
H14    H     0.70900   0.70280   0.13710   0.01267  Uiso   1.00
H15    H     0.53640   0.53620   0.49640   0.01267  Uiso   1.00
H16    H     0.99960   0.17130   0.41530   0.01267  Uiso   1.00
H17    H     0.23550   0.65230   0.37250   0.01267  Uiso   1.00
H18    H     0.76310   0.00290   0.19980   0.01267  Uiso   1.00
H19    H     0.22600   0.34670   0.38290   0.01267  Uiso   1.00
H20    H     0.31760   0.55610   0.24720   0.01267  Uiso   1.00
H21    H     0.10560   0.25920   0.36830   0.01267  Uiso   1.00
H22    H     0.95020   0.16970   0.97590   0.01267  Uiso   1.00
H23    H     0.67530   0.23160   0.08810   0.01267  Uiso   1.00
H24    H     0.50040   0.55620   0.42320   0.01267  Uiso   1.00
H25    H     0.86660   0.35130   0.35160   0.01267  Uiso   1.00
H26    H     0.78260   0.17530   0.47600   0.01267  Uiso   1.00
H27    H     0.40760   0.58980   0.34430   0.01267  Uiso   1.00
H28    H     0.56820   0.60770   0.34550   0.01267  Uiso   1.00
H29    H     0.53390   0.85090   0.11350   0.01267  Uiso   1.00
H30    H     0.48170   0.23700   0.13550   0.01267  Uiso   1.00
H31    H     0.39160   0.48650   0.19060   0.01267  Uiso   1.00
H32    H     0.32470   0.73160   0.41190   0.01267  Uiso   1.00
H33    H     0.25320   0.63300   0.10760   0.01267  Uiso   1.00
H34    H     0.00040   0.67130   0.08470   0.01267  Uiso   1.00
H35    H     0.23690   0.50290   0.30020   0.01267  Uiso   1.00
H36    H     0.50300   0.80070   0.31810   0.01267  Uiso   1.00
H37    H     0.13340   0.85130   0.14840   0.01267  Uiso   1.00
H38    H     0.92880   0.94490   0.19880   0.01267  Uiso   1.00
H39    H     0.00860   0.37810   0.17920   0.01267  Uiso   1.00
H40    H     0.23180   0.06720   0.99130   0.01267  Uiso   1.00
H41    H     0.07120   0.44490   0.30120   0.01267  Uiso   1.00
H42    H     0.21940   0.22110   0.05440   0.01267  Uiso   1.00
H43    H     0.89440   0.75920   0.13170   0.01267  Uiso   1.00
H44    H     0.26950   0.94880   0.30490   0.01267  Uiso   1.00
H45    H     0.61370   0.71350   0.44310   0.01267  Uiso   1.00
H46    H     0.06980   0.31410   0.31950   0.01267  Uiso   1.00
H47    H     0.80680   0.15940   0.26590   0.01267  Uiso   1.00
H48    H     0.38630   0.21350   0.05690   0.01267  Uiso   1.00
H49    H     0.65220   0.45190   0.10710   0.01267  Uiso   1.00
H50    H     0.83620   0.90130   0.18450   0.01267  Uiso   1.00
H51    H     0.50670   0.15060   0.04980   0.01267  Uiso   1.00
H52    H     0.47380   0.08910   0.98880   0.01267  Uiso   1.00
H53    H     0.14600   0.18740   0.19870   0.01267  Uiso   1.00
H54    H     0.30740   0.74830   0.01610   0.01267  Uiso   1.00
H55    H     0.79430   0.31810   0.44390   0.01267  Uiso   1.00
H56    H     0.46610   0.35090   0.38650   0.01267  Uiso   1.00
H57    H     0.06740   0.16850   0.09000   0.01267  Uiso   1.00
H58    H     0.77400   0.84670   0.11710   0.01267  Uiso   1.00
H59    H     0.93870   0.93590   0.38370   0.01267  Uiso   1.00
H60    H     0.36980   0.54830   0.15180   0.01267  Uiso   1.00
H61    H     0.65140   0.96990   0.17620   0.01267  Uiso   1.00
H62    H     0.55770   0.43750   0.14860   0.01267  Uiso   1.00
H63    H     0.43180   0.10770   0.15450   0.01267  Uiso   1.00
H64    H     0.14000   0.12540   0.03860   0.01267  Uiso   1.00
H65    H     0.78060   0.72110   0.44560   0.01267  Uiso   1.00
H66    H     0.86220   0.12170   0.03070   0.01267  Uiso   1.00
H67    H     0.51830   0.73700   0.36450   0.01267  Uiso   1.00
H68    H     0.35030   0.98250   0.18390   0.01267  Uiso   1.00
H69    H     0.16380   0.40130   0.31550   0.01267  Uiso   1.00
H70    H     0.38310   0.03280   0.35670   0.01267  Uiso   1.00
H71    H     0.61690   0.53280   0.14330   0.01267  Uiso   1.00
H72    H     0.07550   0.79030   0.19610   0.01267  Uiso   1.00
H73    H     0.62300   0.20620   0.40700   0.01267  Uiso   1.00
H74    H     0.22400   0.09080   0.32690   0.01267  Uiso   1.00
H75    H     0.72650   0.64550   0.48750   0.01267  Uiso   1.00
H76    H     0.60780   0.48690   0.23750   0.01267  Uiso   1.00
H77    H     0.93260   0.66850   0.41000   0.01267  Uiso   1.00
H78    H     0.36130   0.65310   0.04320   0.01267  Uiso   1.00
H79    H     0.43120   0.93420   0.18500   0.01267  Uiso   1.00
H80    H     0.39220   0.98690   0.26250   0.01267  Uiso   1.00
H81    H     0.60840   0.98650   0.30940   0.01267  Uiso   1.00
H82    H     0.99140   0.87810   0.32080   0.01267  Uiso   1.00
H83    H     0.46360   0.03620   0.00360   0.01267  Uiso   1.00
H84    H     0.40620   0.26200   0.42410   0.01267  Uiso   1.00
H85    H     0.04980   0.66970   0.52410   0.01267  Uiso   1.00
H86    H     0.53040   0.04930   0.27490   0.01267  Uiso   1.00
H87    H     0.16400   0.22670   0.30460   0.01267  Uiso   1.00
H88    H     0.62430   0.07920   0.04900   0.01267  Uiso   1.00
H89    H     0.29280   0.10580   0.09800   0.01267  Uiso   1.00
H90    H     0.14690   0.61610   0.07060   0.01267  Uiso   1.00
H91    H     0.49960   0.05620   0.07680   0.01267  Uiso   1.00
H92    H     0.89190   0.70650   0.37470   0.01267  Uiso   1.00
H93    H     0.68240   0.05610   0.25280   0.01267  Uiso   1.00
H94    H     0.27350   0.14550   0.01250   0.01267  Uiso   1.00
H95    H     0.39990   0.34640   0.43460   0.01267  Uiso   1.00
H96    H     0.46130   0.73140   0.03120   0.01267  Uiso   1.00
H97    H     0.00350   0.21130   0.29750   0.01267  Uiso   1.00
H98    H     0.85480   0.38200   0.20080   0.01267  Uiso   1.00
H99    H     0.77600   0.59080   0.17310   0.01267  Uiso   1.00
H100   H     0.76330   0.27960   0.03330   0.01267  Uiso   1.00
H101   H     0.94210   0.47380   0.10720   0.01267  Uiso   1.00
H102   H     0.63870   0.15310   0.45680   0.01267  Uiso   1.00
H103   H     0.85400   0.68740   0.30130   0.01267  Uiso   1.00
H104   H     0.50160   0.27140   0.38160   0.01267  Uiso   1.00
H105   H     0.06130   0.43590   0.11630   0.01267  Uiso   1.00
H106   H     0.07950   0.63960   0.16550   0.01267  Uiso   1.00
H107   H     0.59240   0.08980   0.15570   0.01267  Uiso   1.00
H108   H     0.02820   0.11450   0.36710   0.01267  Uiso   1.00
H109   H     0.55190   0.64530   0.15850   0.01267  Uiso   1.00
H110   H     0.52620   0.58910   0.51120   0.01267  Uiso   1.00
H111   H     0.76200   0.99460   0.38580   0.01267  Uiso   1.00
H112   H     0.76820   0.56720   0.50870   0.01267  Uiso   1.00
H113   H     0.34860   0.46990   0.32380   0.01267  Uiso   1.00
H114   H     0.49890   0.94450   0.25630   0.01267  Uiso   1.00
H115   H     0.85870   0.04010   0.38540   0.01267  Uiso   1.00
H116   H     0.44810   0.14530   0.34150   0.01267  Uiso   1.00
H117   H     0.65320   0.65600   0.19880   0.01267  Uiso   1.00
H118   H     0.15030   0.29630   0.07330   0.01267  Uiso   1.00
H119   H     0.23800   0.49460   0.11420   0.01267  Uiso   1.00
H120   H     0.79310   0.49090   0.16860   0.01267  Uiso   1.00
H121   H     0.73050   0.44880   0.19510   0.01267  Uiso   1.00
H122   H     0.75160   0.55100   0.45920   0.01267  Uiso   1.00
H123   H     0.56880   0.43420   0.31500   0.01267  Uiso   1.00
H124   H     0.37700   0.70620   0.09300   0.01267  Uiso   1.00
H125   H     0.88630   0.86740   0.25590   0.01267  Uiso   1.00
H126   H     0.64970   0.48250   0.31610   0.01267  Uiso   1.00
H127   H     0.34780   0.95190   0.39290   0.01267  Uiso   1.00
H128   H     0.20570   0.81810   0.05610   0.01267  Uiso   1.00
H129   H     0.24840   0.05100   0.04080   0.01267  Uiso   1.00
H130   H     0.76450   0.15230   0.12750   0.01267  Uiso   1.00
H131   H     0.24940   0.15710   0.38950   0.01267  Uiso   1.00
H132   H     0.92050   0.13960   0.33450   0.01267  Uiso   1.00
H133   H     0.28010   0.79320   0.13930   0.01267  Uiso   1.00
H134   H     0.50110   0.44450   0.24370   0.01267  Uiso   1.00
H135   H     0.23550   0.56500   0.17930   0.01267  Uiso   1.00
H136   H     0.46960   0.54930   0.22510   0.01267  Uiso   1.00
H137   H     0.14520   0.88200   0.29920   0.01267  Uiso   1.00
H138   H     0.34680   0.15600   0.30120   0.01267  Uiso   1.00
H139   H     0.13780   0.62170   0.46930   0.01267  Uiso   1.00
H140   H     0.26010   0.61070   0.40540   0.01267  Uiso   1.00
H141   H     0.33050   0.41950   0.26410   0.01267  Uiso   1.00
H142   H     0.25170   0.90580   0.22140   0.01267  Uiso   1.00
H143   H     0.03990   0.08620   0.11390   0.01267  Uiso   1.00
H144   H     0.05790   0.97380   0.39280   0.01267  Uiso   1.00
H145   H     0.38500   0.18900   0.19120   0.01267  Uiso   1.00
H146   H     0.53870   0.23140   0.46880   0.01267  Uiso   1.00
H147   H     0.68820   0.34610   0.41330   0.01267  Uiso   1.00
H148   H     0.99650   0.71130   0.20250   0.01267  Uiso   1.00
H149   H     0.23670   0.77960   0.46670   0.01267  Uiso   1.00
H150   H     0.37570   0.57920   0.45100   0.01267  Uiso   1.00
H151   H     0.00070   0.03590   0.17210   0.01267  Uiso   1.00
H152   H     0.83440   0.86000   0.38030   0.01267  Uiso   1.00
H153   H     0.76450   0.06500   0.32070   0.01267  Uiso   1.00
H154   H     0.11370   0.36740   0.24410   0.01267  Uiso   1.00
H155   H     0.31180   0.84610   0.08670   0.01267  Uiso   1.00
H156   H     0.16560   0.36000   0.11970   0.01267  Uiso   1.00
H157   H     0.49330   0.65060   0.45020   0.01267  Uiso   1.00
H158   H     0.44230   0.93750   0.35140   0.01267  Uiso   1.00
H159   H     0.75060   0.65710   0.11050   0.01267  Uiso   1.00
H160   H     0.66950   0.91950   0.23590   0.01267  Uiso   1.00
H161   H     0.70720   0.60580   0.40200   0.01267  Uiso   1.00
H162   H     0.29100   0.20280   0.36290   0.01267  Uiso   1.00
H163   H     0.63020   0.04830   0.34820   0.01267  Uiso   1.00
H164   H     0.49840   0.77140   0.11840   0.01267  Uiso   1.00
H165   H     0.89320   0.63700   0.24310   0.01267  Uiso   1.00
H166   H     0.84970   0.79630   0.42670   0.01267  Uiso   1.00
H167   H     0.74680   0.13300   0.39240   0.01267  Uiso   1.00
H168   H     0.59380   0.76200   0.07590   0.01267  Uiso   1.00
H169   H     0.14130   0.54010   0.11460   0.01267  Uiso   1.00
H170   H     0.07130   0.94280   0.25860   0.01267  Uiso   1.00
H171   H     0.99930   0.53590   0.32790   0.01267  Uiso   1.00
H172   H     0.86000   0.62540   0.46140   0.01267  Uiso   1.00
H173   H     0.61500   0.68900   0.30880   0.01267  Uiso   1.00
H174   H     0.10680   0.13700   0.25690   0.01267  Uiso   1.00
H175   H     0.83600   0.72670   0.19540   0.01267  Uiso   1.00
H176   H     0.55820   0.73150   0.24650   0.01267  Uiso   1.00
H177   H     0.99240   0.01280   0.33410   0.01267  Uiso   1.00
H178   H     0.69260   0.24830   0.48390   0.01267  Uiso   1.00
H179   H     0.21740   0.67530   0.02400   0.01267  Uiso   1.00
H180   H     0.20690   0.99090   0.33140   0.01267  Uiso   1.00
H181   H     0.44180   0.23150   0.25350   0.01267  Uiso   1.00
H182   H     0.49700   0.30070   0.18190   0.01267  Uiso   1.00
H183   H     0.75000   0.11690   0.20370   0.01267  Uiso   1.00
H184   H     0.60010   0.84640   0.06540   0.01267  Uiso   1.00
H185   H     0.85310   0.11610   0.42940   0.01267  Uiso   1.00
H186   H     0.92450   0.29030   0.30390   0.01267  Uiso   1.00
H187   H     0.02840   0.83120   0.11210   0.01267  Uiso   1.00
H188   H     0.97160   0.33120   0.38790   0.01267  Uiso   1.00
C1     C     0.38600   0.53280   0.23680   0.01267  Uiso   1.00
C2     C     0.01400   0.79630   0.17070   0.01267  Uiso   1.00
C3     C     0.70000   0.71730   0.42530   0.01267  Uiso   1.00
C4     C     0.59110   0.83120   0.09400   0.01267  Uiso   1.00
C5     C     0.94650   0.59660   0.35700   0.01267  Uiso   1.00
C6     C     0.31250   0.64010   0.28620   0.01267  Uiso   1.00
C7     C     0.94800   0.89010   0.24130   0.01267  Uiso   1.00
C8     C     0.62970   0.19940   0.26550   0.01267  Uiso   1.00
C9     C     0.46800   0.61760   0.34630   0.01267  Uiso   1.00
C10    C     0.41750   0.26200   0.13230   0.01267  Uiso   1.00
C11    C     0.05010   0.08170   0.22000   0.01267  Uiso   1.00
C12    C     0.07780   0.21590   0.31970   0.01267  Uiso   1.00
C13    C     0.18780   0.64380   0.08460   0.01267  Uiso   1.00
C14    C     0.44190   0.06830   0.01230   0.01267  Uiso   1.00
C15    C     0.25390   0.17100   0.36010   0.01267  Uiso   1.00
C16    C     0.06200   0.90000   0.30930   0.01267  Uiso   1.00
C17    C     0.56220   0.14890   0.19160   0.01267  Uiso   1.00
C18    C     0.37120   0.95530   0.20230   0.01267  Uiso   1.00
C19    C     0.72140   0.31480   0.42100   0.01267  Uiso   1.00
C20    C     0.13500   0.72910   0.50060   0.01267  Uiso   1.00
C21    C     0.52940   0.68300   0.29360   0.01267  Uiso   1.00
C22    C     0.81220   0.14380   0.41540   0.01267  Uiso   1.00
C23    C     0.67500   0.87500   0.31640   0.01267  Uiso   1.00
C24    C     0.72120   0.16540   0.25070   0.01267  Uiso   1.00
C25    C     0.88350   0.65660   0.30670   0.01267  Uiso   1.00
C26    C     0.66100   0.22880   0.30120   0.01267  Uiso   1.00
C27    C     0.34960   0.14270   0.33080   0.01267  Uiso   1.00
C28    C     0.21660   0.74750   0.46720   0.01267  Uiso   1.00
C29    C     0.15780   0.65380   0.46870   0.01267  Uiso   1.00
C30    C     0.10560   0.68220   0.50130   0.01267  Uiso   1.00
C31    C     0.74610   0.67100   0.13990   0.01267  Uiso   1.00
C32    C     0.90670   0.62670   0.27210   0.01267  Uiso   1.00
C33    C     0.27860   0.81480   0.07900   0.01267  Uiso   1.00
C34    C     0.89440   0.18220   0.99870   0.01267  Uiso   1.00
C35    C     0.54400   0.47140   0.25840   0.01267  Uiso   1.00
C36    C     0.13050   0.17510   0.11490   0.01267  Uiso   1.00
C37    C     0.71800   0.03770   0.33350   0.01267  Uiso   1.00
C38    C     0.67850   0.63130   0.42200   0.01267  Uiso   1.00
C39    C     0.32150   0.13130   0.07800   0.01267  Uiso   1.00
C40    C     0.26890   0.71910   0.43470   0.01267  Uiso   1.00
C41    C     0.77930   0.79720   0.40470   0.01267  Uiso   1.00
C42    C     0.86610   0.92020   0.20970   0.01267  Uiso   1.00
C43    C     0.30000   0.21730   0.07470   0.01267  Uiso   1.00
C44    C     0.81560   0.01600   0.36690   0.01267  Uiso   1.00
C45    C     0.27340   0.66980   0.05080   0.01267  Uiso   1.00
C46    C     0.18440   0.51600   0.13310   0.01267  Uiso   1.00
C47    C     0.43780   0.64890   0.30840   0.01267  Uiso   1.00
C48    C     0.61400   0.03280   0.26320   0.01267  Uiso   1.00
C49    C     0.92220   0.71590   0.18030   0.01267  Uiso   1.00
C50    C     0.99400   0.45720   0.13040   0.01267  Uiso   1.00
C51    C     0.76050   0.17220   0.06460   0.01267  Uiso   1.00
C52    C     0.84220   0.15380   0.03130   0.01267  Uiso   1.00
C53    C     0.37000   0.95940   0.36230   0.01267  Uiso   1.00
C54    C     0.22070   0.29720   0.09530   0.01267  Uiso   1.00
C55    C     0.32500   0.37500   0.18360   0.01267  Uiso   1.00
C56    C     0.05200   0.39010   0.25870   0.01267  Uiso   1.00
C57    C     0.58250   0.76200   0.36770   0.01267  Uiso   1.00
C58    C     0.09670   0.14150   0.15090   0.01267  Uiso   1.00
C59    C     0.93800   0.40000   0.19070   0.01267  Uiso   1.00
C60    C     0.78340   0.24750   0.03280   0.01267  Uiso   1.00
C61    C     0.47880   0.58000   0.44530   0.01267  Uiso   1.00
C62    C     0.86500   0.22910   0.99940   0.01267  Uiso   1.00
C63    C     0.57340   0.79980   0.34010   0.01267  Uiso   1.00
C64    C     0.49560   0.70820   0.25660   0.01267  Uiso   1.00
C65    C     0.22980   0.33500   0.12290   0.01267  Uiso   1.00
C66    C     0.77020   0.83500   0.37710   0.01267  Uiso   1.00
C67    C     0.73110   0.21910   0.06530   0.01267  Uiso   1.00
C68    C     0.96980   0.56660   0.32250   0.01267  Uiso   1.00
C69    C     0.71880   0.57370   0.48100   0.01267  Uiso   1.00
C70    C     0.31450   0.26070   0.10010   0.01267  Uiso   1.00
C71    C     0.52580   0.78360   0.08950   0.01267  Uiso   1.00
C72    C     0.08300   0.76140   0.53140   0.01267  Uiso   1.00
C73    C     0.62880   0.45530   0.29770   0.01267  Uiso   1.00
C74    C     0.55810   0.56830   0.48770   0.01267  Uiso   1.00
C75    C     0.00730   0.64480   0.14270   0.01267  Uiso   1.00
C76    C     0.27880   0.66540   0.24930   0.01267  Uiso   1.00
C77    C     0.48120   0.12800   0.07310   0.01267  Uiso   1.00
C78    C     0.47420   0.28360   0.41050   0.01267  Uiso   1.00
C79    C     0.51880   0.62800   0.42690   0.01267  Uiso   1.00
C80    C     0.09420   0.82260   0.13580   0.01267  Uiso   1.00
C81    C     0.53200   0.11760   0.15370   0.01267  Uiso   1.00
C82    C     0.98600   0.29630   0.32930   0.01267  Uiso   1.00
C83    C     0.75650   0.62260   0.46560   0.01267  Uiso   1.00
C84    C     0.68550   0.76070   0.39990   0.01267  Uiso   1.00
C85    C     0.68750   0.14010   0.21380   0.01267  Uiso   1.00
C86    C     0.05350   0.09660   0.14300   0.01267  Uiso   1.00
C87    C     0.28830   0.64280   0.39890   0.01267  Uiso   1.00
C88    C     0.00600   0.95720   0.36960   0.01267  Uiso   1.00
C89    C     0.62920   0.24470   0.45850   0.01267  Uiso   1.00
C90    C     0.11650   0.15660   0.19330   0.01267  Uiso   1.00
C91    C     0.37030   0.69940   0.23450   0.01267  Uiso   1.00
C92    C     0.03020   0.06660   0.17750   0.01267  Uiso   1.00
C93    C     0.40890   0.33120   0.40600   0.01267  Uiso   1.00
C94    C     0.68500   0.98080   0.20490   0.01267  Uiso   1.00
C95    C     0.23950   0.67220   0.43540   0.01267  Uiso   1.00
C96    C     0.90330   0.64150   0.34910   0.01267  Uiso   1.00
C97    C     0.23800   0.95850   0.33420   0.01267  Uiso   1.00
C98    C     0.63000   0.45940   0.13770   0.01267  Uiso   1.00
C99    C     0.98900   0.55140   0.24550   0.01267  Uiso   1.00
C100   C     0.65040   0.64270   0.16920   0.01267  Uiso   1.00
C101   C     0.01100   0.05140   0.25450   0.01267  Uiso   1.00
C102   C     0.86950   0.67510   0.38510   0.01267  Uiso   1.00
C103   C     0.13390   0.42020   0.29030   0.01267  Uiso   1.00
C104   C     0.52120   0.08000   0.05470   0.01267  Uiso   1.00
C105   C     0.71170   0.14280   0.10110   0.01267  Uiso   1.00
C106   C     0.94990   0.58170   0.28000   0.01267  Uiso   1.00
C107   C     0.72660   0.16980   0.44920   0.01267  Uiso   1.00
C108   C     0.99270   0.14480   0.35730   0.01267  Uiso   1.00
C109   C     0.31500   0.48080   0.29510   0.01267  Uiso   1.00
C110   C     0.91700   0.26140   0.96860   0.01267  Uiso   1.00
C111   C     0.47060   0.18300   0.20640   0.01267  Uiso   1.00
C112   C     0.45600   0.97140   0.24160   0.01267  Uiso   1.00
C113   C     0.24350   0.12260   0.03440   0.01267  Uiso   1.00
C114   C     0.28120   0.07370   0.01900   0.01267  Uiso   1.00
C115   C     0.33280   0.33630   0.15510   0.01267  Uiso   1.00
C116   C     0.37080   0.74470   0.04150   0.01267  Uiso   1.00
C117   C     0.50440   0.20820   0.24340   0.01267  Uiso   1.00
C118   C     0.76200   0.45850   0.16580   0.01267  Uiso   1.00
C119   C     0.28200   0.53770   0.16650   0.01267  Uiso   1.00
C120   C     0.66720   0.83630   0.34490   0.01267  Uiso   1.00
C121   C     0.42660   0.29980   0.15990   0.01267  Uiso   1.00
C122   C     0.33900   0.72880   0.19880   0.01267  Uiso   1.00
C123   C     0.90580   0.32260   0.36420   0.01267  Uiso   1.00
C124   C     0.09330   0.12670   0.22790   0.01267  Uiso   1.00
N1     N     0.39680   0.78940   0.06100   0.01267  Uiso   1.00
N2     N     0.73950   0.94110   0.23000   0.01267  Uiso   1.00
N3     N     0.27780   0.17470   0.09930   0.01267  Uiso   1.00
N4     N     0.43860   0.64250   0.38790   0.01267  Uiso   1.00
N5     N     0.89160   0.67180   0.16020   0.01267  Uiso   1.00
N6     N     0.92690   0.99080   0.34280   0.01267  Uiso   1.00
N7     N     0.78930   0.29430   0.38210   0.01267  Uiso   1.00
N8     N     0.96960   0.75260   0.15020   0.01267  Uiso   1.00
N9     N     0.03040   0.25260   0.34980   0.01267  Uiso   1.00
N10    N     0.32040   0.50520   0.20170   0.01267  Uiso   1.00
N11    N     0.07150   0.66970   0.10560   0.01267  Uiso   1.00
N12    N     0.07310   0.49080   0.15720   0.01267  Uiso   1.00
N13    N     0.10630   0.93090   0.34390   0.01267  Uiso   1.00
N14    N     0.69520   0.21350   0.42640   0.01267  Uiso   1.00
N15    N     0.92850   0.16970   0.39440   0.01267  Uiso   1.00
N16    N     0.10840   0.17180   0.33980   0.01267  Uiso   1.00
N17    N     0.72220   0.67470   0.40070   0.01267  Uiso   1.00
N18    N     0.42990   0.50420   0.27300   0.01267  Uiso   1.00
N19    N     0.60320   0.28940   0.43900   0.01267  Uiso   1.00
N20    N     0.30480   0.71350   0.07360   0.01267  Uiso   1.00
N21    N     0.00100   0.92540   0.27200   0.01267  Uiso   1.00
N22    N     0.21070   0.79430   0.11790   0.01267  Uiso   1.00
N23    N     0.67960   0.00520   0.29830   0.01267  Uiso   1.00
N24    N     0.26050   0.44110   0.27000   0.01267  Uiso   1.00
N25    N     0.89370   0.43090   0.15610   0.01267  Uiso   1.00
N26    N     0.99900   0.42540   0.22800   0.01267  Uiso   1.00
N27    N     0.57010   0.00420   0.22700   0.01267  Uiso   1.00
N28    N     0.56140   0.14250   0.11210   0.01267  Uiso   1.00
O1     O     0.39720   0.37120   0.21980   0.01267  Uiso   1.00
O2     O     0.58060   0.50720   0.14200   0.01267  Uiso   1.00
O3     O     0.76280   0.43180   0.28800   0.01267  Uiso   1.00
O4     O     0.11270   0.79850   0.53500   0.01267  Uiso   1.00
O5     O     0.06690   0.51740   0.25170   0.01267  Uiso   1.00
O6     O     0.68760   0.59360   0.17190   0.01267  Uiso   1.00
O7     O     0.26180   0.41190   0.17710   0.01267  Uiso   1.00
O8     O     0.60280   0.87120   0.28020   0.01267  Uiso   1.00
O9     O     0.38520   0.76810   0.19180   0.01267  Uiso   1.00
O10    O     0.26900   0.32170   0.38700   0.01267  Uiso   1.00
O11    O     0.25480   0.70680   0.16630   0.01267  Uiso   1.00
O12    O     0.73820   0.91190   0.32290   0.01267  Uiso   1.00
O13    O     0.98540   0.74130   0.55620   0.01267  Uiso   1.00
O14    O     0.01460   0.24130   0.94380   0.01267  Uiso   1.00
O15    O     0.74520   0.20680   0.33370   0.01267  Uiso   1.00
O16    O     0.73100   0.82170   0.11300   0.01267  Uiso   1.00
O17    O     0.23720   0.93180   0.21200   0.01267  Uiso   1.00
O18    O     0.09070   0.05790   0.29220   0.01267  Uiso   1.00
O19    O     0.31240   0.09360   0.32810   0.01267  Uiso   1.00
O20    O     0.61480   0.26810   0.30820   0.01267  Uiso   1.00
O21    O     0.41940   0.00720   0.35800   0.01267  Uiso   1.00
O22    O     0.93310   0.01740   0.24830   0.01267  Uiso   1.00
O23    O     0.88730   0.29850   0.96500   0.01267  Uiso   1.00
O24    O     0.90930   0.55790   0.20780   0.01267  Uiso   1.00
Ni5    Ni    0.16450   0.53366   0.78698   0.01267  Uiso   1.00
Ni6    Ni    0.13960   0.26870   0.88862   0.01267  Uiso   1.00
Ni7    Ni    0.83550   0.03366   0.71302   0.01267  Uiso   1.00
Ni8    Ni    0.86040   0.76870   0.61138   0.01267  Uiso   1.00
H189   H     0.16560   0.64000   0.88030   0.01267  Uiso   1.00
H190   H     0.49330   0.34940   0.54980   0.01267  Uiso   1.00
H191   H     0.83620   0.09870   0.81550   0.01267  Uiso   1.00
H192   H     0.04980   0.33030   0.47590   0.01267  Uiso   1.00
H193   H     0.78060   0.27890   0.55440   0.01267  Uiso   1.00
H194   H     0.56880   0.56580   0.68500   0.01267  Uiso   1.00
H195   H     0.65320   0.34400   0.80120   0.01267  Uiso   1.00
H196   H     0.68820   0.65390   0.58670   0.01267  Uiso   1.00
H197   H     0.51830   0.26300   0.63550   0.01267  Uiso   1.00
H198   H     0.92870   0.55720   0.75860   0.01267  Uiso   1.00
H199   H     0.06980   0.68590   0.68050   0.01267  Uiso   1.00
H200   H     0.46960   0.45070   0.77490   0.01267  Uiso   1.00
H201   H     0.89440   0.24080   0.86830   0.01267  Uiso   1.00
H202   H     0.39160   0.51350   0.80940   0.01267  Uiso   1.00
H203   H     0.97160   0.66880   0.61210   0.01267  Uiso   1.00
H204   H     0.14520   0.11800   0.70080   0.01267  Uiso   1.00
H205   H     0.07550   0.20970   0.80390   0.01267  Uiso   1.00
H206   H     0.61500   0.31100   0.69120   0.01267  Uiso   1.00
H207   H     0.84970   0.20370   0.57330   0.01267  Uiso   1.00
H208   H     0.02820   0.88550   0.63290   0.01267  Uiso   1.00
H209   H     0.65220   0.54810   0.89290   0.01267  Uiso   1.00
H210   H     0.43180   0.89230   0.84550   0.01267  Uiso   1.00
H211   H     0.39220   0.01310   0.73750   0.01267  Uiso   1.00
H212   H     0.92880   0.05510   0.80120   0.01267  Uiso   1.00
H213   H     0.25170   0.09420   0.77860   0.01267  Uiso   1.00
H214   H     0.10680   0.86300   0.74310   0.01267  Uiso   1.00
H215   H     0.07130   0.05720   0.74140   0.01267  Uiso   1.00
H216   H     0.60840   0.01350   0.69060   0.01267  Uiso   1.00
H217   H     0.13780   0.37830   0.53070   0.01267  Uiso   1.00
H218   H     0.07120   0.55510   0.69880   0.01267  Uiso   1.00
H219   H     0.83440   0.14000   0.61970   0.01267  Uiso   1.00
H220   H     0.75160   0.44900   0.54080   0.01267  Uiso   1.00
H221   H     0.25320   0.36700   0.89240   0.01267  Uiso   1.00
H222   H     0.46610   0.64910   0.61350   0.01267  Uiso   1.00
H223   H     0.53870   0.76860   0.53120   0.01267  Uiso   1.00
H224   H     0.27350   0.85450   0.98750   0.01267  Uiso   1.00
H225   H     0.20690   0.00910   0.66860   0.01267  Uiso   1.00
H226   H     0.16400   0.77330   0.69540   0.01267  Uiso   1.00
H227   H     0.85480   0.61800   0.79920   0.01267  Uiso   1.00
H228   H     0.48170   0.76300   0.86450   0.01267  Uiso   1.00
H229   H     0.00350   0.78870   0.70250   0.01267  Uiso   1.00
H230   H     0.39990   0.65360   0.56540   0.01267  Uiso   1.00
H231   H     0.85870   0.95990   0.61460   0.01267  Uiso   1.00
H232   H     0.23800   0.50540   0.88580   0.01267  Uiso   1.00
H233   H     0.38310   0.96720   0.64330   0.01267  Uiso   1.00
H234   H     0.14000   0.87460   0.96140   0.01267  Uiso   1.00
H235   H     0.99240   0.98720   0.66590   0.01267  Uiso   1.00
H236   H     0.78260   0.82470   0.52400   0.01267  Uiso   1.00
H237   H     0.99650   0.28870   0.79750   0.01267  Uiso   1.00
H238   H     0.64970   0.51750   0.68390   0.01267  Uiso   1.00
H239   H     0.31760   0.44390   0.75280   0.01267  Uiso   1.00
H240   H     0.02840   0.16880   0.88790   0.01267  Uiso   1.00
H241   H     0.23550   0.34770   0.62750   0.01267  Uiso   1.00
H242   H     0.53390   0.14910   0.88650   0.01267  Uiso   1.00
H243   H     0.23690   0.49710   0.69980   0.01267  Uiso   1.00
H244   H     0.63870   0.84690   0.54320   0.01267  Uiso   1.00
H245   H     0.76330   0.72040   0.96670   0.01267  Uiso   1.00
H246   H     0.93020   0.18590   0.81950   0.01267  Uiso   1.00
H247   H     0.49840   0.22860   0.88160   0.01267  Uiso   1.00
H248   H     0.59240   0.91020   0.84430   0.01267  Uiso   1.00
H249   H     0.69260   0.75170   0.51610   0.01267  Uiso   1.00
H250   H     0.55770   0.56250   0.85140   0.01267  Uiso   1.00
H251   H     0.53640   0.46380   0.50360   0.01267  Uiso   1.00
H252   H     0.53040   0.95070   0.72510   0.01267  Uiso   1.00
H253   H     0.50670   0.84940   0.95020   0.01267  Uiso   1.00
H254   H     0.46360   0.96380   0.99640   0.01267  Uiso   1.00
H255   H     0.29100   0.79720   0.63710   0.01267  Uiso   1.00
H256   H     0.55820   0.26850   0.75350   0.01267  Uiso   1.00
H257   H     0.85400   0.31260   0.69870   0.01267  Uiso   1.00
H258   H     0.31180   0.15390   0.91330   0.01267  Uiso   1.00
H259   H     0.85310   0.88390   0.57060   0.01267  Uiso   1.00
H260   H     0.22400   0.90920   0.67310   0.01267  Uiso   1.00
H261   H     0.59380   0.23800   0.92410   0.01267  Uiso   1.00
H262   H     0.79310   0.50910   0.83140   0.01267  Uiso   1.00
H263   H     0.40620   0.73800   0.57590   0.01267  Uiso   1.00
H264   H     0.00860   0.62190   0.82080   0.01267  Uiso   1.00
H265   H     0.23670   0.22040   0.53330   0.01267  Uiso   1.00
H266   H     0.66950   0.08050   0.76410   0.01267  Uiso   1.00
H267   H     0.38500   0.81100   0.80880   0.01267  Uiso   1.00
H268   H     0.06130   0.56410   0.88370   0.01267  Uiso   1.00
H269   H     0.19320   0.34060   0.76590   0.01267  Uiso   1.00
H270   H     0.49960   0.94380   0.92320   0.01267  Uiso   1.00
H271   H     0.73990   0.88930   0.90540   0.01267  Uiso   1.00
H272   H     0.44230   0.06250   0.64860   0.01267  Uiso   1.00
H273   H     0.99140   0.12190   0.67920   0.01267  Uiso   1.00
H274   H     0.43120   0.06580   0.81500   0.01267  Uiso   1.00
H275   H     0.77400   0.15330   0.88290   0.01267  Uiso   1.00
H276   H     0.94210   0.52620   0.89280   0.01267  Uiso   1.00
H277   H     0.62300   0.79380   0.59300   0.01267  Uiso   1.00
H278   H     0.49890   0.05550   0.74370   0.01267  Uiso   1.00
H279   H     0.62430   0.92080   0.95100   0.01267  Uiso   1.00
H280   H     0.33050   0.58050   0.73590   0.01267  Uiso   1.00
H281   H     0.29280   0.89420   0.90200   0.01267  Uiso   1.00
H282   H     0.75060   0.34290   0.88950   0.01267  Uiso   1.00
H283   H     0.37570   0.42080   0.54900   0.01267  Uiso   1.00
H284   H     0.44810   0.85470   0.65850   0.01267  Uiso   1.00
H285   H     0.44180   0.76850   0.74650   0.01267  Uiso   1.00
H286   H     0.32470   0.26840   0.58810   0.01267  Uiso   1.00
H287   H     0.76450   0.93500   0.67930   0.01267  Uiso   1.00
H288   H     0.92050   0.86040   0.66550   0.01267  Uiso   1.00
H289   H     0.96010   0.41380   0.61390   0.01267  Uiso   1.00
H290   H     0.36130   0.34690   0.95680   0.01267  Uiso   1.00
H291   H     0.34860   0.53010   0.67620   0.01267  Uiso   1.00
H292   H     0.75000   0.88310   0.79630   0.01267  Uiso   1.00
H293   H     0.35030   0.01750   0.81610   0.01267  Uiso   1.00
H294   H     0.37700   0.29380   0.90700   0.01267  Uiso   1.00
H295   H     0.70720   0.39420   0.59800   0.01267  Uiso   1.00
H296   H     0.60780   0.51310   0.76250   0.01267  Uiso   1.00
H297   H     0.10560   0.74080   0.63170   0.01267  Uiso   1.00
H298   H     0.16380   0.59870   0.68450   0.01267  Uiso   1.00
H299   H     0.46130   0.26860   0.96880   0.01267  Uiso   1.00
H300   H     0.13340   0.14870   0.85160   0.01267  Uiso   1.00
H301   H     0.47380   0.91090   0.01120   0.01267  Uiso   1.00
H302   H     0.93870   0.06410   0.61630   0.01267  Uiso   1.00
H303   H     0.14130   0.45990   0.88540   0.01267  Uiso   1.00
H304   H     0.26950   0.05120   0.69510   0.01267  Uiso   1.00
H305   H     0.24940   0.84290   0.61050   0.01267  Uiso   1.00
H306   H     0.34780   0.04810   0.60710   0.01267  Uiso   1.00
H307   H     0.70900   0.29720   0.86290   0.01267  Uiso   1.00
H308   H     0.36980   0.45170   0.84820   0.01267  Uiso   1.00
H309   H     0.49700   0.69930   0.81810   0.01267  Uiso   1.00
H310   H     0.50300   0.19930   0.68190   0.01267  Uiso   1.00
H311   H     0.50110   0.55550   0.75630   0.01267  Uiso   1.00
H312   H     0.25000   0.38310   0.70370   0.01267  Uiso   1.00
H313   H     0.97180   0.38550   0.86710   0.01267  Uiso   1.00
H314   H     0.21940   0.77890   0.94560   0.01267  Uiso   1.00
H315   H     0.06740   0.83150   0.91000   0.01267  Uiso   1.00
H316   H     0.80680   0.84060   0.73410   0.01267  Uiso   1.00
H317   H     0.38630   0.78650   0.94310   0.01267  Uiso   1.00
H318   H     0.61370   0.28650   0.55690   0.01267  Uiso   1.00
H319   H     0.89190   0.29350   0.62530   0.01267  Uiso   1.00
H320   H     0.21740   0.32470   0.97600   0.01267  Uiso   1.00
H321   H     0.24840   0.94900   0.95920   0.01267  Uiso   1.00
H322   H     0.86000   0.37460   0.53860   0.01267  Uiso   1.00
H323   H     0.14690   0.38390   0.92940   0.01267  Uiso   1.00
H324   H     0.83600   0.27330   0.80460   0.01267  Uiso   1.00
H325   H     0.61690   0.46720   0.85670   0.01267  Uiso   1.00
H326   H     0.74680   0.86700   0.60760   0.01267  Uiso   1.00
H327   H     0.95020   0.83030   0.02410   0.01267  Uiso   1.00
H328   H     0.00070   0.96410   0.82790   0.01267  Uiso   1.00
H329   H     0.89320   0.36300   0.75690   0.01267  Uiso   1.00
H330   H     0.52620   0.41090   0.48880   0.01267  Uiso   1.00
H331   H     0.76310   0.99710   0.80020   0.01267  Uiso   1.00
H332   H     0.55190   0.35470   0.84150   0.01267  Uiso   1.00
H333   H     0.50040   0.44380   0.57680   0.01267  Uiso   1.00
H334   H     0.79430   0.68190   0.55610   0.01267  Uiso   1.00
H335   H     0.86660   0.64870   0.64840   0.01267  Uiso   1.00
H336   H     0.07950   0.36040   0.83450   0.01267  Uiso   1.00
H337   H     0.99930   0.46410   0.67210   0.01267  Uiso   1.00
H338   H     0.60010   0.15360   0.93460   0.01267  Uiso   1.00
H339   H     0.76450   0.84770   0.87250   0.01267  Uiso   1.00
H340   H     0.23180   0.93280   0.00870   0.01267  Uiso   1.00
H341   H     0.93260   0.33150   0.59000   0.01267  Uiso   1.00
H342   H     0.63020   0.95170   0.65180   0.01267  Uiso   1.00
H343   H     0.92450   0.70970   0.69610   0.01267  Uiso   1.00
H344   H     0.65140   0.03010   0.82380   0.01267  Uiso   1.00
H345   H     0.15030   0.70370   0.92670   0.01267  Uiso   1.00
H346   H     0.77600   0.40920   0.82690   0.01267  Uiso   1.00
H347   H     0.28010   0.20680   0.86070   0.01267  Uiso   1.00
H348   H     0.03990   0.91380   0.88610   0.01267  Uiso   1.00
H349   H     0.99960   0.82870   0.58470   0.01267  Uiso   1.00
H350   H     0.72650   0.35450   0.51250   0.01267  Uiso   1.00
H351   H     0.10810   0.79350   0.87470   0.01267  Uiso   1.00
H352   H     0.11370   0.63260   0.75590   0.01267  Uiso   1.00
H353   H     0.22600   0.65330   0.61710   0.01267  Uiso   1.00
H354   H     0.73050   0.55120   0.80490   0.01267  Uiso   1.00
H355   H     0.88630   0.13260   0.74410   0.01267  Uiso   1.00
H356   H     0.26010   0.38930   0.59460   0.01267  Uiso   1.00
H357   H     0.00040   0.32870   0.91530   0.01267  Uiso   1.00
H358   H     0.30740   0.25170   0.98390   0.01267  Uiso   1.00
H359   H     0.40760   0.41020   0.65570   0.01267  Uiso   1.00
H360   H     0.86220   0.87830   0.96930   0.01267  Uiso   1.00
H361   H     0.50160   0.72860   0.61840   0.01267  Uiso   1.00
H362   H     0.76200   0.00540   0.61420   0.01267  Uiso   1.00
H363   H     0.76820   0.43280   0.49130   0.01267  Uiso   1.00
H364   H     0.68240   0.94390   0.74720   0.01267  Uiso   1.00
H365   H     0.23550   0.43500   0.82070   0.01267  Uiso   1.00
H366   H     0.97290   0.62630   0.72660   0.01267  Uiso   1.00
H367   H     0.74830   0.59420   0.72140   0.01267  Uiso   1.00
H368   H     0.56820   0.39230   0.65450   0.01267  Uiso   1.00
H369   H     0.71990   0.70680   0.63930   0.01267  Uiso   1.00
H370   H     0.34680   0.84400   0.69880   0.01267  Uiso   1.00
H371   H     0.14600   0.81260   0.80130   0.01267  Uiso   1.00
H372   H     0.02710   0.12630   0.77340   0.01267  Uiso   1.00
H373   H     0.20570   0.18190   0.94390   0.01267  Uiso   1.00
H374   H     0.67530   0.76840   0.91190   0.01267  Uiso   1.00
H375   H     0.00760   0.48720   0.83410   0.01267  Uiso   1.00
H376   H     0.05790   0.02620   0.60720   0.01267  Uiso   1.00
C125   C     0.47060   0.81700   0.79360   0.01267  Uiso   1.00
C126   C     0.96980   0.43340   0.67750   0.01267  Uiso   1.00
C127   C     0.76200   0.54150   0.83420   0.01267  Uiso   1.00
C128   C     0.55810   0.43170   0.51230   0.01267  Uiso   1.00
C129   C     0.13500   0.27090   0.49940   0.01267  Uiso   1.00
C130   C     0.76050   0.82780   0.93540   0.01267  Uiso   1.00
C131   C     0.43780   0.35110   0.69160   0.01267  Uiso   1.00
C132   C     0.98600   0.70370   0.67070   0.01267  Uiso   1.00
C133   C     0.62920   0.75530   0.54150   0.01267  Uiso   1.00
C134   C     0.67850   0.36870   0.57800   0.01267  Uiso   1.00
C135   C     0.11650   0.84340   0.80670   0.01267  Uiso   1.00
C136   C     0.31250   0.35990   0.71380   0.01267  Uiso   1.00
C137   C     0.94800   0.10990   0.75870   0.01267  Uiso   1.00
C138   C     0.81220   0.85620   0.58460   0.01267  Uiso   1.00
C139   C     0.48120   0.87200   0.92690   0.01267  Uiso   1.00
C140   C     0.28120   0.92630   0.98100   0.01267  Uiso   1.00
C141   C     0.65040   0.35730   0.83080   0.01267  Uiso   1.00
C142   C     0.71800   0.96230   0.66650   0.01267  Uiso   1.00
C143   C     0.46800   0.38240   0.65370   0.01267  Uiso   1.00
C144   C     0.49560   0.29180   0.74340   0.01267  Uiso   1.00
C145   C     0.72120   0.83460   0.74930   0.01267  Uiso   1.00
C146   C     0.52120   0.92000   0.94530   0.01267  Uiso   1.00
C147   C     0.05350   0.90340   0.85700   0.01267  Uiso   1.00
C148   C     0.98900   0.44860   0.75450   0.01267  Uiso   1.00
C149   C     0.07780   0.78410   0.68030   0.01267  Uiso   1.00
C150   C     0.61400   0.96720   0.73680   0.01267  Uiso   1.00
C151   C     0.67500   0.12500   0.68360   0.01267  Uiso   1.00
C152   C     0.78340   0.75250   0.96720   0.01267  Uiso   1.00
C153   C     0.68500   0.01920   0.79510   0.01267  Uiso   1.00
C154   C     0.72140   0.68520   0.57900   0.01267  Uiso   1.00
C155   C     0.99270   0.85520   0.64270   0.01267  Uiso   1.00
C156   C     0.00730   0.35520   0.85730   0.01267  Uiso   1.00
C157   C     0.52580   0.21640   0.91050   0.01267  Uiso   1.00
C158   C     0.44190   0.93170   0.98770   0.01267  Uiso   1.00
C159   C     0.37030   0.30060   0.76550   0.01267  Uiso   1.00
C160   C     0.01400   0.20370   0.82930   0.01267  Uiso   1.00
C161   C     0.23950   0.32780   0.56460   0.01267  Uiso   1.00
C162   C     0.77020   0.16500   0.62290   0.01267  Uiso   1.00
C163   C     0.68550   0.23930   0.60010   0.01267  Uiso   1.00
C164   C     0.62970   0.80060   0.73450   0.01267  Uiso   1.00
C165   C     0.84220   0.84620   0.96870   0.01267  Uiso   1.00
C166   C     0.27860   0.18520   0.92100   0.01267  Uiso   1.00
C167   C     0.09330   0.87330   0.77210   0.01267  Uiso   1.00
C168   C     0.81560   0.98400   0.63310   0.01267  Uiso   1.00
C169   C     0.01100   0.94860   0.74550   0.01267  Uiso   1.00
C170   C     0.21660   0.25250   0.53280   0.01267  Uiso   1.00
C171   C     0.54400   0.52860   0.74160   0.01267  Uiso   1.00
C172   C     0.38600   0.46720   0.76320   0.01267  Uiso   1.00
C173   C     0.51880   0.37200   0.57310   0.01267  Uiso   1.00
C174   C     0.89440   0.81780   0.00130   0.01267  Uiso   1.00
C175   C     0.33280   0.66370   0.84490   0.01267  Uiso   1.00
C176   C     0.30000   0.78270   0.92530   0.01267  Uiso   1.00
C177   C     0.41750   0.73800   0.86770   0.01267  Uiso   1.00
C178   C     0.25390   0.82900   0.63990   0.01267  Uiso   1.00
C179   C     0.63000   0.54060   0.86230   0.01267  Uiso   1.00
C180   C     0.42660   0.70020   0.84010   0.01267  Uiso   1.00
C181   C     0.22980   0.66500   0.87710   0.01267  Uiso   1.00
C182   C     0.18440   0.48400   0.86690   0.01267  Uiso   1.00
C183   C     0.15780   0.34620   0.53130   0.01267  Uiso   1.00
C184   C     0.37120   0.04470   0.79770   0.01267  Uiso   1.00
C185   C     0.66100   0.77120   0.69880   0.01267  Uiso   1.00
C186   C     0.86500   0.77090   0.00060   0.01267  Uiso   1.00
C187   C     0.18780   0.35620   0.91540   0.01267  Uiso   1.00
C188   C     0.86610   0.07980   0.79030   0.01267  Uiso   1.00
C189   C     0.77930   0.20280   0.59530   0.01267  Uiso   1.00
C190   C     0.09420   0.17740   0.86420   0.01267  Uiso   1.00
C191   C     0.47880   0.42000   0.55470   0.01267  Uiso   1.00
C192   C     0.91700   0.73860   0.03140   0.01267  Uiso   1.00
C193   C     0.86950   0.32490   0.61490   0.01267  Uiso   1.00
C194   C     0.73110   0.78090   0.93470   0.01267  Uiso   1.00
C195   C     0.28200   0.46230   0.83350   0.01267  Uiso   1.00
C196   C     0.58250   0.23800   0.63230   0.01267  Uiso   1.00
C197   C     0.94990   0.41830   0.72000   0.01267  Uiso   1.00
C198   C     0.10560   0.31780   0.49870   0.01267  Uiso   1.00
C199   C     0.34960   0.85730   0.66920   0.01267  Uiso   1.00
C200   C     0.31500   0.51920   0.70490   0.01267  Uiso   1.00
C201   C     0.99400   0.54280   0.86960   0.01267  Uiso   1.00
C202   C     0.57340   0.20020   0.65990   0.01267  Uiso   1.00
C203   C     0.50440   0.79180   0.75660   0.01267  Uiso   1.00
C204   C     0.05010   0.91830   0.78000   0.01267  Uiso   1.00
C205   C     0.93800   0.60000   0.80930   0.01267  Uiso   1.00
C206   C     0.70000   0.28270   0.57470   0.01267  Uiso   1.00
C207   C     0.52940   0.31700   0.70640   0.01267  Uiso   1.00
C208   C     0.74610   0.32900   0.86010   0.01267  Uiso   1.00
C209   C     0.28830   0.35720   0.60110   0.01267  Uiso   1.00
C210   C     0.27880   0.33460   0.75070   0.01267  Uiso   1.00
C211   C     0.32500   0.62500   0.81640   0.01267  Uiso   1.00
C212   C     0.92220   0.28410   0.81970   0.01267  Uiso   1.00
C213   C     0.05200   0.60990   0.74130   0.01267  Uiso   1.00
C214   C     0.13050   0.82490   0.88510   0.01267  Uiso   1.00
C215   C     0.62880   0.54470   0.70230   0.01267  Uiso   1.00
C216   C     0.68750   0.85990   0.78620   0.01267  Uiso   1.00
C217   C     0.71170   0.85720   0.89890   0.01267  Uiso   1.00
C218   C     0.32150   0.86870   0.92200   0.01267  Uiso   1.00
C219   C     0.08300   0.23860   0.46860   0.01267  Uiso   1.00
C220   C     0.88350   0.34340   0.69330   0.01267  Uiso   1.00
C221   C     0.37000   0.04060   0.63770   0.01267  Uiso   1.00
C222   C     0.66720   0.16370   0.65510   0.01267  Uiso   1.00
C223   C     0.90670   0.37330   0.72790   0.01267  Uiso   1.00
C224   C     0.94650   0.40340   0.64300   0.01267  Uiso   1.00
C225   C     0.27340   0.33020   0.94920   0.01267  Uiso   1.00
C226   C     0.26890   0.28090   0.56530   0.01267  Uiso   1.00
C227   C     0.56220   0.85110   0.80840   0.01267  Uiso   1.00
C228   C     0.31450   0.73930   0.89990   0.01267  Uiso   1.00
C229   C     0.40890   0.66880   0.59400   0.01267  Uiso   1.00
C230   C     0.90580   0.67740   0.63580   0.01267  Uiso   1.00
C231   C     0.47420   0.71640   0.58950   0.01267  Uiso   1.00
C232   C     0.90330   0.35850   0.65090   0.01267  Uiso   1.00
C233   C     0.45600   0.02860   0.75840   0.01267  Uiso   1.00
C234   C     0.09670   0.85850   0.84910   0.01267  Uiso   1.00
C235   C     0.71880   0.42630   0.51900   0.01267  Uiso   1.00
C236   C     0.23800   0.04150   0.66580   0.01267  Uiso   1.00
C237   C     0.22070   0.70280   0.90470   0.01267  Uiso   1.00
C238   C     0.13390   0.57980   0.70970   0.01267  Uiso   1.00
C239   C     0.06200   0.10000   0.69070   0.01267  Uiso   1.00
C240   C     0.03020   0.93340   0.82250   0.01267  Uiso   1.00
C241   C     0.72660   0.83020   0.55080   0.01267  Uiso   1.00
C242   C     0.59110   0.16880   0.90600   0.01267  Uiso   1.00
C243   C     0.37080   0.25530   0.95850   0.01267  Uiso   1.00
C244   C     0.00600   0.04280   0.63040   0.01267  Uiso   1.00
C245   C     0.24350   0.87740   0.96560   0.01267  Uiso   1.00
C246   C     0.53200   0.88240   0.84630   0.01267  Uiso   1.00
C247   C     0.33900   0.27120   0.80120   0.01267  Uiso   1.00
C248   C     0.75650   0.37740   0.53440   0.01267  Uiso   1.00
N29    N     0.56140   0.85750   0.88790   0.01267  Uiso   1.00
N30    N     0.73950   0.05890   0.77000   0.01267  Uiso   1.00
N31    N     0.57010   0.99580   0.77300   0.01267  Uiso   1.00
N32    N     0.99900   0.57460   0.77200   0.01267  Uiso   1.00
N33    N     0.27780   0.82530   0.90070   0.01267  Uiso   1.00
N34    N     0.67960   0.99480   0.70170   0.01267  Uiso   1.00
N35    N     0.21070   0.20570   0.88210   0.01267  Uiso   1.00
N36    N     0.07150   0.33030   0.89440   0.01267  Uiso   1.00
N37    N     0.00100   0.07460   0.72800   0.01267  Uiso   1.00
N38    N     0.03040   0.74740   0.65020   0.01267  Uiso   1.00
N39    N     0.39680   0.21060   0.93900   0.01267  Uiso   1.00
N40    N     0.30480   0.28650   0.92640   0.01267  Uiso   1.00
N41    N     0.10630   0.06910   0.65610   0.01267  Uiso   1.00
N42    N     0.89160   0.32820   0.83980   0.01267  Uiso   1.00
N43    N     0.69520   0.78650   0.57360   0.01267  Uiso   1.00
N44    N     0.96960   0.24740   0.84980   0.01267  Uiso   1.00
N45    N     0.43860   0.35750   0.61210   0.01267  Uiso   1.00
N46    N     0.78930   0.70570   0.61790   0.01267  Uiso   1.00
N47    N     0.72220   0.32530   0.59930   0.01267  Uiso   1.00
N48    N     0.92850   0.83030   0.60560   0.01267  Uiso   1.00
N49    N     0.32040   0.49480   0.79830   0.01267  Uiso   1.00
N50    N     0.07310   0.50920   0.84280   0.01267  Uiso   1.00
N51    N     0.10840   0.82820   0.66020   0.01267  Uiso   1.00
N52    N     0.42990   0.49580   0.72700   0.01267  Uiso   1.00
N53    N     0.26050   0.55890   0.73000   0.01267  Uiso   1.00
N54    N     0.89370   0.56910   0.84390   0.01267  Uiso   1.00
N55    N     0.92690   0.00920   0.65720   0.01267  Uiso   1.00
N56    N     0.60320   0.71060   0.56100   0.01267  Uiso   1.00
O25    O     0.98540   0.25870   0.44380   0.01267  Uiso   1.00
O26    O     0.25480   0.29320   0.83370   0.01267  Uiso   1.00
O27    O     0.11270   0.20150   0.46500   0.01267  Uiso   1.00
O28    O     0.74520   0.79320   0.66630   0.01267  Uiso   1.00
O29    O     0.73100   0.17830   0.88700   0.01267  Uiso   1.00
O30    O     0.41940   0.99280   0.64200   0.01267  Uiso   1.00
O31    O     0.61480   0.73190   0.69180   0.01267  Uiso   1.00
O32    O     0.68760   0.40640   0.82810   0.01267  Uiso   1.00
O33    O     0.90930   0.44210   0.79220   0.01267  Uiso   1.00
O34    O     0.38520   0.23190   0.80820   0.01267  Uiso   1.00
O35    O     0.60280   0.12880   0.71980   0.01267  Uiso   1.00
O36    O     0.06690   0.48260   0.74830   0.01267  Uiso   1.00
O37    O     0.39720   0.62880   0.78020   0.01267  Uiso   1.00
O38    O     0.31240   0.90640   0.67190   0.01267  Uiso   1.00
O39    O     0.76280   0.56820   0.71200   0.01267  Uiso   1.00
O40    O     0.88730   0.70150   0.03500   0.01267  Uiso   1.00
O41    O     0.26900   0.67830   0.61300   0.01267  Uiso   1.00
O42    O     0.01460   0.75870   0.05620   0.01267  Uiso   1.00
O43    O     0.09070   0.94210   0.70780   0.01267  Uiso   1.00
O44    O     0.26180   0.58810   0.82290   0.01267  Uiso   1.00
O45    O     0.73820   0.08810   0.67710   0.01267  Uiso   1.00
O46    O     0.93310   0.98260   0.75170   0.01267  Uiso   1.00
O47    O     0.23720   0.06820   0.78800   0.01267  Uiso   1.00
O48    O     0.58060   0.49280   0.85800   0.01267  Uiso   1.00
