data_image0
_cell_length_a       31.215
_cell_length_b       31.215
_cell_length_c       31.215
_cell_angle_alpha    109.471
_cell_angle_beta     109.471
_cell_angle_gamma    109.471

_symmetry_space_group_name_H-M    P 1
_symmetry_int_tables_number       1

loop_
  _symmetry_equiv_pos_as_xyz
  'x, y, z'

loop_
  _atom_site_label
  _atom_site_occupancy
  _atom_site_fract_x
  _atom_site_fract_y
  _atom_site_fract_z
  _atom_site_thermal_displace_type
  _atom_site_B_iso_or_equiv
  _atom_site_type_symbol
  Zn1      1.0000 0.25000  0.85928  0.60928  Biso   1.000  Zn
  Zn2      1.0000 0.75000  0.64072  0.89072  Biso   1.000  Zn
  Zn3      1.0000 0.39072  0.75000  0.14072  Biso   1.000  Zn
  Zn4      1.0000 0.10928  0.25000  0.35928  Biso   1.000  Zn
  Zn5      1.0000 0.64072  0.39072  0.25000  Biso   1.000  Zn
  Zn6      1.0000 0.85928  0.10928  0.75000  Biso   1.000  Zn
  Zn7      1.0000 0.64072  0.25000  0.89072  Biso   1.000  Zn
  Zn8      1.0000 0.85928  0.75000  0.60928  Biso   1.000  Zn
  Zn9      1.0000 0.75000  0.10928  0.35928  Biso   1.000  Zn
  Zn10     1.0000 0.25000  0.39072  0.14072  Biso   1.000  Zn
  Zn11     1.0000 0.10928  0.85928  0.25000  Biso   1.000  Zn
  Zn12     1.0000 0.39072  0.64072  0.75000  Biso   1.000  Zn
  Zn13     1.0000 0.00131  0.75131  0.50262  Biso   1.000  Zn
  Zn14     1.0000 0.74869  0.49869  0.99738  Biso   1.000  Zn
  Zn15     1.0000 0.75131  0.74869  0.75000  Biso   1.000  Zn
  Zn16     1.0000 0.49869  0.00131  0.75000  Biso   1.000  Zn
  Zn17     1.0000 0.25000  0.75131  0.24869  Biso   1.000  Zn
  Zn18     1.0000 0.25000  0.49869  0.50131  Biso   1.000  Zn
  Zn19     1.0000 0.00262  0.00131  0.25131  Biso   1.000  Zn
  Zn20     1.0000 0.49738  0.74869  0.99869  Biso   1.000  Zn
  Zn21     1.0000 0.49869  0.49738  0.24869  Biso   1.000  Zn
  Zn22     1.0000 0.75131  0.00262  0.50131  Biso   1.000  Zn
  Zn23     1.0000 0.00131  0.25000  0.99869  Biso   1.000  Zn
  Zn24     1.0000 0.74869  0.25000  0.25131  Biso   1.000  Zn
  H1       1.0000 0.11380  0.99620  0.52580  Biso   1.000  H
  H2       1.0000 0.35550  0.84830  0.41280  Biso   1.000  H
  H3       1.0000 0.35660  0.89480  0.55020  Biso   1.000  H
  H4       1.0000 0.02180  0.92300  0.54660  Biso   1.000  H
  H5       1.0000 0.43160  0.92610  0.55070  Biso   1.000  H
  H6       1.0000 0.16850  0.97070  0.57240  Biso   1.000  H
  H7       1.0000 0.09580  0.84840  0.58500  Biso   1.000  H
  H8       1.0000 0.21990  0.80030  0.41380  Biso   1.000  H
  H9       1.0000 0.97040  0.58800  0.97420  Biso   1.000  H
  H10      1.0000 0.93550  0.94270  0.08720  Biso   1.000  H
  H11      1.0000 0.84460  0.80640  0.94980  Biso   1.000  H
  H12      1.0000 0.87640  0.47520  0.95340  Biso   1.000  H
  H13      1.0000 0.87540  0.88090  0.94930  Biso   1.000  H
  H14      1.0000 0.89830  0.59610  0.92760  Biso   1.000  H
  H15      1.0000 0.76340  0.51080  0.91500  Biso   1.000  H
  H16      1.0000 0.88650  0.80610  0.08620  Biso   1.000  H
  H17      1.0000 0.52960  0.50380  0.61760  Biso   1.000  H
  H18      1.0000 0.56450  0.65170  0.00720  Biso   1.000  H
  H19      1.0000 0.65540  0.60520  0.96180  Biso   1.000  H
  H20      1.0000 0.62360  0.57700  0.59880  Biso   1.000  H
  H21      1.0000 0.62460  0.57390  0.00550  Biso   1.000  H
  H22      1.0000 0.60170  0.52930  0.69780  Biso   1.000  H
  H23      1.0000 0.73660  0.65160  0.74740  Biso   1.000  H
  H24      1.0000 0.61350  0.69970  0.91960  Biso   1.000  H
  H25      1.0000 0.38620  0.91200  0.88240  Biso   1.000  H
  H26      1.0000 0.14450  0.55730  0.49280  Biso   1.000  H
  H27      1.0000 0.14340  0.69360  0.53820  Biso   1.000  H
  H28      1.0000 0.47820  0.02480  0.90120  Biso   1.000  H
  H29      1.0000 0.06840  0.61910  0.49450  Biso   1.000  H
  H30      1.0000 0.33150  0.90390  0.80220  Biso   1.000  H
  H31      1.0000 0.40420  0.98920  0.75260  Biso   1.000  H
  H32      1.0000 0.28010  0.69390  0.58040  Biso   1.000  H
  H33      1.0000 0.11760  0.52960  0.00380  Biso   1.000  H
  H34      1.0000 0.50720  0.56450  0.15170  Biso   1.000  H
  H35      1.0000 0.46180  0.65540  0.10520  Biso   1.000  H
  H36      1.0000 0.09880  0.62360  0.07700  Biso   1.000  H
  H37      1.0000 0.50550  0.62460  0.07390  Biso   1.000  H
  H38      1.0000 0.19780  0.60170  0.02930  Biso   1.000  H
  H39      1.0000 0.24740  0.73660  0.15160  Biso   1.000  H
  H40      1.0000 0.41960  0.61350  0.19970  Biso   1.000  H
  H41      1.0000 0.38240  0.38620  0.41200  Biso   1.000  H
  H42      1.0000 0.99280  0.14450  0.05730  Biso   1.000  H
  H43      1.0000 0.03820  0.14340  0.19360  Biso   1.000  H
  H44      1.0000 0.40120  0.47820  0.52480  Biso   1.000  H
  H45      1.0000 0.99450  0.06840  0.11910  Biso   1.000  H
  H46      1.0000 0.30220  0.33150  0.40390  Biso   1.000  H
  H47      1.0000 0.25260  0.40420  0.48920  Biso   1.000  H
  H48      1.0000 0.08040  0.28010  0.19390  Biso   1.000  H
  H49      1.0000 0.02580  0.11380  0.49620  Biso   1.000  H
  H50      1.0000 0.91280  0.35550  0.34830  Biso   1.000  H
  H51      1.0000 0.05020  0.35660  0.39480  Biso   1.000  H
  H52      1.0000 0.04660  0.02180  0.42300  Biso   1.000  H
  H53      1.0000 0.05070  0.43160  0.42610  Biso   1.000  H
  H54      1.0000 0.07240  0.16850  0.47070  Biso   1.000  H
  H55      1.0000 0.08500  0.09580  0.34840  Biso   1.000  H
  H56      1.0000 0.91380  0.21990  0.30030  Biso   1.000  H
  H57      1.0000 0.47420  0.97040  0.08800  Biso   1.000  H
  H58      1.0000 0.58720  0.93550  0.44270  Biso   1.000  H
  H59      1.0000 0.44980  0.84460  0.30640  Biso   1.000  H
  H60      1.0000 0.45340  0.87640  0.97520  Biso   1.000  H
  H61      1.0000 0.44930  0.87540  0.38090  Biso   1.000  H
  H62      1.0000 0.42760  0.89830  0.09610  Biso   1.000  H
  H63      1.0000 0.41500  0.76340  0.01080  Biso   1.000  H
  H64      1.0000 0.58620  0.88650  0.30610  Biso   1.000  H
  H65      1.0000 0.58800  0.47420  0.47040  Biso   1.000  H
  H66      1.0000 0.94270  0.58720  0.43550  Biso   1.000  H
  H67      1.0000 0.80640  0.44980  0.34460  Biso   1.000  H
  H68      1.0000 0.47520  0.45340  0.37640  Biso   1.000  H
  H69      1.0000 0.88090  0.44930  0.37540  Biso   1.000  H
  H70      1.0000 0.59610  0.42760  0.39830  Biso   1.000  H
  H71      1.0000 0.51080  0.41500  0.26340  Biso   1.000  H
  H72      1.0000 0.80610  0.58620  0.38650  Biso   1.000  H
  H73      1.0000 0.99620  0.02580  0.61380  Biso   1.000  H
  H74      1.0000 0.84830  0.91280  0.85550  Biso   1.000  H
  H75      1.0000 0.89480  0.05020  0.85660  Biso   1.000  H
  H76      1.0000 0.92300  0.04660  0.52180  Biso   1.000  H
  H77      1.0000 0.92610  0.05070  0.93160  Biso   1.000  H
  H78      1.0000 0.97070  0.07240  0.66850  Biso   1.000  H
  H79      1.0000 0.84840  0.08500  0.59580  Biso   1.000  H
  H80      1.0000 0.80030  0.91380  0.71990  Biso   1.000  H
  H81      1.0000 0.91200  0.38240  0.88620  Biso   1.000  H
  H82      1.0000 0.55730  0.99280  0.64450  Biso   1.000  H
  H83      1.0000 0.69360  0.03820  0.64340  Biso   1.000  H
  H84      1.0000 0.02480  0.40120  0.97820  Biso   1.000  H
  H85      1.0000 0.61910  0.99450  0.56840  Biso   1.000  H
  H86      1.0000 0.90390  0.30220  0.83150  Biso   1.000  H
  H87      1.0000 0.98920  0.25260  0.90420  Biso   1.000  H
  H88      1.0000 0.69390  0.08040  0.78010  Biso   1.000  H
  H89      1.0000 0.50380  0.11760  0.02960  Biso   1.000  H
  H90      1.0000 0.65170  0.50720  0.06450  Biso   1.000  H
  H91      1.0000 0.60520  0.46180  0.15540  Biso   1.000  H
  H92      1.0000 0.57700  0.09880  0.12360  Biso   1.000  H
  H93      1.0000 0.57390  0.50550  0.12460  Biso   1.000  H
  H94      1.0000 0.52930  0.19780  0.10170  Biso   1.000  H
  H95      1.0000 0.65160  0.24740  0.23660  Biso   1.000  H
  H96      1.0000 0.69970  0.41960  0.11350  Biso   1.000  H
  H97      1.0000 0.50380  0.38620  0.97420  Biso   1.000  H
  H98      1.0000 0.65170  0.14450  0.08720  Biso   1.000  H
  H99      1.0000 0.60520  0.14340  0.94980  Biso   1.000  H
  H100     1.0000 0.57700  0.47820  0.95340  Biso   1.000  H
  H101     1.0000 0.57390  0.06840  0.94930  Biso   1.000  H
  H102     1.0000 0.52930  0.33150  0.92760  Biso   1.000  H
  H103     1.0000 0.65160  0.40420  0.91500  Biso   1.000  H
  H104     1.0000 0.69970  0.28010  0.08620  Biso   1.000  H
  H105     1.0000 0.91200  0.52960  0.52580  Biso   1.000  H
  H106     1.0000 0.55730  0.56450  0.41280  Biso   1.000  H
  H107     1.0000 0.69360  0.65540  0.55020  Biso   1.000  H
  H108     1.0000 0.02480  0.62360  0.54660  Biso   1.000  H
  H109     1.0000 0.61910  0.62460  0.55070  Biso   1.000  H
  H110     1.0000 0.90390  0.60170  0.57240  Biso   1.000  H
  H111     1.0000 0.98920  0.73660  0.58500  Biso   1.000  H
  H112     1.0000 0.69390  0.61350  0.41380  Biso   1.000  H
  H113     1.0000 0.99620  0.97040  0.88240  Biso   1.000  H
  H114     1.0000 0.84830  0.93550  0.49280  Biso   1.000  H
  H115     1.0000 0.89480  0.84460  0.53820  Biso   1.000  H
  H116     1.0000 0.92300  0.87640  0.90120  Biso   1.000  H
  H117     1.0000 0.92610  0.87540  0.49450  Biso   1.000  H
  H118     1.0000 0.97070  0.89830  0.80220  Biso   1.000  H
  H119     1.0000 0.84840  0.76340  0.75260  Biso   1.000  H
  H120     1.0000 0.80030  0.88650  0.58040  Biso   1.000  H
  H121     1.0000 0.58800  0.11380  0.61760  Biso   1.000  H
  H122     1.0000 0.94270  0.35550  0.00720  Biso   1.000  H
  H123     1.0000 0.80640  0.35660  0.96180  Biso   1.000  H
  H124     1.0000 0.47520  0.02180  0.59880  Biso   1.000  H
  H125     1.0000 0.88090  0.43160  0.00550  Biso   1.000  H
  H126     1.0000 0.59610  0.16850  0.69780  Biso   1.000  H
  H127     1.0000 0.51080  0.09580  0.74740  Biso   1.000  H
  H128     1.0000 0.80610  0.21990  0.91960  Biso   1.000  H
  H129     1.0000 0.97040  0.38240  0.49620  Biso   1.000  H
  H130     1.0000 0.93550  0.99280  0.34830  Biso   1.000  H
  H131     1.0000 0.84460  0.03820  0.39480  Biso   1.000  H
  H132     1.0000 0.87640  0.40120  0.42300  Biso   1.000  H
  H133     1.0000 0.87540  0.99450  0.42610  Biso   1.000  H
  H134     1.0000 0.89830  0.30220  0.47070  Biso   1.000  H
  H135     1.0000 0.76340  0.25260  0.34840  Biso   1.000  H
  H136     1.0000 0.88650  0.08040  0.30030  Biso   1.000  H
  H137     1.0000 0.11380  0.11760  0.08800  Biso   1.000  H
  H138     1.0000 0.35550  0.50720  0.44270  Biso   1.000  H
  H139     1.0000 0.35660  0.46180  0.30640  Biso   1.000  H
  H140     1.0000 0.02180  0.09880  0.97520  Biso   1.000  H
  H141     1.0000 0.43160  0.50550  0.38090  Biso   1.000  H
  H142     1.0000 0.16850  0.19780  0.09610  Biso   1.000  H
  H143     1.0000 0.09580  0.24740  0.01080  Biso   1.000  H
  H144     1.0000 0.21990  0.41960  0.30610  Biso   1.000  H
  H145     1.0000 0.38620  0.47420  0.00380  Biso   1.000  H
  H146     1.0000 0.14450  0.58720  0.15170  Biso   1.000  H
  H147     1.0000 0.14340  0.44980  0.10520  Biso   1.000  H
  H148     1.0000 0.47820  0.45340  0.07700  Biso   1.000  H
  H149     1.0000 0.06840  0.44930  0.07390  Biso   1.000  H
  H150     1.0000 0.33150  0.42760  0.02930  Biso   1.000  H
  H151     1.0000 0.40420  0.41500  0.15160  Biso   1.000  H
  H152     1.0000 0.28010  0.58620  0.19970  Biso   1.000  H
  H153     1.0000 0.52960  0.02580  0.41200  Biso   1.000  H
  H154     1.0000 0.56450  0.91280  0.05730  Biso   1.000  H
  H155     1.0000 0.65540  0.05020  0.19360  Biso   1.000  H
  H156     1.0000 0.62360  0.04660  0.52480  Biso   1.000  H
  H157     1.0000 0.62460  0.05070  0.11910  Biso   1.000  H
  H158     1.0000 0.60170  0.07240  0.40390  Biso   1.000  H
  H159     1.0000 0.73660  0.08500  0.48920  Biso   1.000  H
  H160     1.0000 0.61350  0.91380  0.19390  Biso   1.000  H
  H161     1.0000 0.02580  0.91200  0.02960  Biso   1.000  H
  H162     1.0000 0.91280  0.55730  0.06450  Biso   1.000  H
  H163     1.0000 0.05020  0.69360  0.15540  Biso   1.000  H
  H164     1.0000 0.04660  0.02480  0.12360  Biso   1.000  H
  H165     1.0000 0.05070  0.61910  0.12460  Biso   1.000  H
  H166     1.0000 0.07240  0.90390  0.10170  Biso   1.000  H
  H167     1.0000 0.08500  0.98920  0.23660  Biso   1.000  H
  H168     1.0000 0.91380  0.69390  0.11350  Biso   1.000  H
  H169     1.0000 0.47420  0.50380  0.88620  Biso   1.000  H
  H170     1.0000 0.58720  0.65170  0.64450  Biso   1.000  H
  H171     1.0000 0.44980  0.60520  0.64340  Biso   1.000  H
  H172     1.0000 0.45340  0.57700  0.97820  Biso   1.000  H
  H173     1.0000 0.44930  0.57390  0.56840  Biso   1.000  H
  H174     1.0000 0.42760  0.52930  0.83150  Biso   1.000  H
  H175     1.0000 0.41500  0.65160  0.90420  Biso   1.000  H
  H176     1.0000 0.58620  0.69970  0.78010  Biso   1.000  H
  H177     1.0000 0.11760  0.58800  0.61380  Biso   1.000  H
  H178     1.0000 0.50720  0.94270  0.85550  Biso   1.000  H
  H179     1.0000 0.46180  0.80640  0.85660  Biso   1.000  H
  H180     1.0000 0.09880  0.47520  0.52180  Biso   1.000  H
  H181     1.0000 0.50550  0.88090  0.93160  Biso   1.000  H
  H182     1.0000 0.19780  0.59610  0.66850  Biso   1.000  H
  H183     1.0000 0.24740  0.51080  0.59580  Biso   1.000  H
  H184     1.0000 0.41960  0.80610  0.71990  Biso   1.000  H
  H185     1.0000 0.38240  0.99620  0.47040  Biso   1.000  H
  H186     1.0000 0.99280  0.84830  0.43550  Biso   1.000  H
  H187     1.0000 0.03820  0.89480  0.34460  Biso   1.000  H
  H188     1.0000 0.40120  0.92300  0.37640  Biso   1.000  H
  H189     1.0000 0.99450  0.92610  0.37540  Biso   1.000  H
  H190     1.0000 0.30220  0.97070  0.39830  Biso   1.000  H
  H191     1.0000 0.25260  0.84840  0.26340  Biso   1.000  H
  H192     1.0000 0.08040  0.80030  0.38650  Biso   1.000  H
  C1       1.0000 0.13860  0.90745  0.58039  Biso   1.000  C
  C2       1.0000 0.06610  0.01423  0.53917  Biso   1.000  C
  C3       1.0000 0.45923  0.91758  0.50627  Biso   1.000  C
  C4       1.0000 0.28291  0.84549  0.48654  Biso   1.000  C
  C5       1.0000 0.28335  0.82143  0.40546  Biso   1.000  C
  C6       1.0000 0.36558  0.87750  0.48670  Biso   1.000  C
  C7       1.0000 0.33771  0.84881  0.43150  Biso   1.000  C
  C8       1.0000 0.33833  0.87584  0.51377  Biso   1.000  C
  C9       1.0000 0.05150  0.91941  0.55477  Biso   1.000  C
  C10      1.0000 0.05301  0.88196  0.56803  Biso   1.000  C
  C11      1.0000 0.18612  0.90300  0.59368  Biso   1.000  C
  C12      1.0000 0.13835  0.94710  0.56929  Biso   1.000  C
  C13      1.0000 0.09612  0.87556  0.57874  Biso   1.000  C
  C14      1.0000 0.09308  0.95190  0.55336  Biso   1.000  C
  C15      1.0000 0.25635  0.81941  0.43228  Biso   1.000  C
  C16      1.0000 0.25570  0.84186  0.51888  Biso   1.000  C
  C17      1.0000 0.25390  0.79140  0.34510  Biso   1.000  C
  C18      1.0000 0.00370  0.84550  0.56680  Biso   1.000  C
  C19      1.0000 0.82706  0.55821  0.91961  Biso   1.000  C
  C20      1.0000 0.97506  0.52693  0.96083  Biso   1.000  C
  C21      1.0000 0.91131  0.95296  0.99373  Biso   1.000  C
  C22      1.0000 0.85895  0.79637  0.01346  Biso   1.000  C
  C23      1.0000 0.91597  0.87789  0.09454  Biso   1.000  C
  C24      1.0000 0.89080  0.87888  0.01330  Biso   1.000  C
  C25      1.0000 0.91731  0.90621  0.06850  Biso   1.000  C
  C26      1.0000 0.86207  0.82456  0.98623  Biso   1.000  C
  C27      1.0000 0.86464  0.49673  0.94523  Biso   1.000  C
  C28      1.0000 0.81393  0.48498  0.93197  Biso   1.000  C
  C29      1.0000 0.80932  0.59244  0.90632  Biso   1.000  C
  C30      1.0000 0.87781  0.56906  0.93071  Biso   1.000  C
  C31      1.0000 0.79682  0.51738  0.92126  Biso   1.000  C
  C32      1.0000 0.89854  0.53972  0.94664  Biso   1.000  C
  C33      1.0000 0.88713  0.82407  0.06772  Biso   1.000  C
  C34      1.0000 0.82298  0.73682  0.98112  Biso   1.000  C
  C35      1.0000 0.94630  0.90880  0.15490  Biso   1.000  C
  C36      1.0000 0.77870  0.43690  0.93320  Biso   1.000  C
  C37      1.0000 0.67294  0.59255  0.73115  Biso   1.000  C
  C38      1.0000 0.52494  0.48577  0.55187  Biso   1.000  C
  C39      1.0000 0.58869  0.58242  0.04165  Biso   1.000  C
  C40      1.0000 0.64105  0.65451  0.93742  Biso   1.000  C
  C41      1.0000 0.58403  0.67857  0.96192  Biso   1.000  C
  C42      1.0000 0.60920  0.62250  0.98808  Biso   1.000  C
  C43      1.0000 0.58269  0.65119  0.98890  Biso   1.000  C
  C44      1.0000 0.63793  0.62416  0.96249  Biso   1.000  C
  C45      1.0000 0.63536  0.58059  0.63209  Biso   1.000  C
  C46      1.0000 0.68607  0.61804  0.67105  Biso   1.000  C
  C47      1.0000 0.69068  0.59700  0.78312  Biso   1.000  C
  C48      1.0000 0.62219  0.55290  0.69125  Biso   1.000  C
  C49      1.0000 0.70318  0.62444  0.72056  Biso   1.000  C
  C50      1.0000 0.60146  0.54810  0.64118  Biso   1.000  C
  C51      1.0000 0.61287  0.68059  0.93694  Biso   1.000  C
  C52      1.0000 0.67702  0.65814  0.91384  Biso   1.000  C
  C53      1.0000 0.55370  0.70860  0.96250  Biso   1.000  C
  C54      1.0000 0.72130  0.65450  0.65820  Biso   1.000  C
  C55      1.0000 0.36140  0.94179  0.76885  Biso   1.000  C
  C56      1.0000 0.43390  0.97307  0.94813  Biso   1.000  C
  C57      1.0000 0.04077  0.54704  0.45835  Biso   1.000  C
  C58      1.0000 0.21709  0.70363  0.56258  Biso   1.000  C
  C59      1.0000 0.21665  0.62211  0.53808  Biso   1.000  C
  C60      1.0000 0.13442  0.62112  0.51192  Biso   1.000  C
  C61      1.0000 0.16229  0.59379  0.51110  Biso   1.000  C
  C62      1.0000 0.16167  0.67544  0.53751  Biso   1.000  C
  C63      1.0000 0.44850  0.00327  0.86791  Biso   1.000  C
  C64      1.0000 0.44699  0.01502  0.82895  Biso   1.000  C
  C65      1.0000 0.31388  0.90756  0.71688  Biso   1.000  C
  C66      1.0000 0.36165  0.93094  0.80875  Biso   1.000  C
  C67      1.0000 0.40388  0.98262  0.77944  Biso   1.000  C
  C68      1.0000 0.40692  0.96028  0.85882  Biso   1.000  C
  C69      1.0000 0.24365  0.67593  0.56306  Biso   1.000  C
  C70      1.0000 0.24430  0.76318  0.58616  Biso   1.000  C
  C71      1.0000 0.24610  0.59120  0.53750  Biso   1.000  C
  C72      1.0000 0.49630  0.06310  0.84180  Biso   1.000  C
  C73      1.0000 0.23115  0.67294  0.09255  Biso   1.000  C
  C74      1.0000 0.05187  0.52494  0.98577  Biso   1.000  C
  C75      1.0000 0.54165  0.58869  0.08242  Biso   1.000  C
  C76      1.0000 0.43742  0.64105  0.15451  Biso   1.000  C
  C77      1.0000 0.46192  0.58403  0.17857  Biso   1.000  C
  C78      1.0000 0.48808  0.60920  0.12250  Biso   1.000  C
  C79      1.0000 0.48890  0.58269  0.15119  Biso   1.000  C
  C80      1.0000 0.46249  0.63793  0.12416  Biso   1.000  C
  C81      1.0000 0.13209  0.63536  0.08059  Biso   1.000  C
  C82      1.0000 0.17105  0.68607  0.11804  Biso   1.000  C
  C83      1.0000 0.28312  0.69068  0.09700  Biso   1.000  C
  C84      1.0000 0.19125  0.62219  0.05290  Biso   1.000  C
  C85      1.0000 0.22056  0.70318  0.12444  Biso   1.000  C
  C86      1.0000 0.14118  0.60146  0.04810  Biso   1.000  C
  C87      1.0000 0.43694  0.61287  0.18059  Biso   1.000  C
  C88      1.0000 0.41384  0.67702  0.15814  Biso   1.000  C
  C89      1.0000 0.46250  0.55370  0.20860  Biso   1.000  C
  C90      1.0000 0.15820  0.72130  0.15450  Biso   1.000  C
  C91      1.0000 0.26885  0.36140  0.44179  Biso   1.000  C
  C92      1.0000 0.44813  0.43390  0.47307  Biso   1.000  C
  C93      1.0000 0.95835  0.04077  0.04704  Biso   1.000  C
  C94      1.0000 0.06258  0.21709  0.20363  Biso   1.000  C
  C95      1.0000 0.03808  0.21665  0.12211  Biso   1.000  C
  C96      1.0000 0.01192  0.13442  0.12112  Biso   1.000  C
  C97      1.0000 0.01110  0.16229  0.09379  Biso   1.000  C
  C98      1.0000 0.03751  0.16167  0.17544  Biso   1.000  C
  C99      1.0000 0.36791  0.44850  0.50327  Biso   1.000  C
  C100     1.0000 0.32895  0.44699  0.51502  Biso   1.000  C
  C101     1.0000 0.21688  0.31388  0.40756  Biso   1.000  C
  C102     1.0000 0.30875  0.36165  0.43094  Biso   1.000  C
  C103     1.0000 0.27944  0.40388  0.48262  Biso   1.000  C
  C104     1.0000 0.35882  0.40692  0.46028  Biso   1.000  C
  C105     1.0000 0.06306  0.24365  0.17593  Biso   1.000  C
  C106     1.0000 0.08616  0.24430  0.26318  Biso   1.000  C
  C107     1.0000 0.03750  0.24610  0.09120  Biso   1.000  C
  C108     1.0000 0.34180  0.49630  0.56310  Biso   1.000  C
  C109     1.0000 0.08039  0.13860  0.40745  Biso   1.000  C
  C110     1.0000 0.03917  0.06610  0.51423  Biso   1.000  C
  C111     1.0000 0.00627  0.45923  0.41758  Biso   1.000  C
  C112     1.0000 0.98654  0.28291  0.34549  Biso   1.000  C
  C113     1.0000 0.90546  0.28335  0.32143  Biso   1.000  C
  C114     1.0000 0.98670  0.36558  0.37750  Biso   1.000  C
  C115     1.0000 0.93150  0.33771  0.34881  Biso   1.000  C
  C116     1.0000 0.01377  0.33833  0.37584  Biso   1.000  C
  C117     1.0000 0.05477  0.05150  0.41941  Biso   1.000  C
  C118     1.0000 0.06803  0.05301  0.38196  Biso   1.000  C
  C119     1.0000 0.09368  0.18612  0.40300  Biso   1.000  C
  C120     1.0000 0.06929  0.13835  0.44710  Biso   1.000  C
  C121     1.0000 0.07874  0.09612  0.37556  Biso   1.000  C
  C122     1.0000 0.05336  0.09308  0.45190  Biso   1.000  C
  C123     1.0000 0.93228  0.25635  0.31941  Biso   1.000  C
  C124     1.0000 0.01888  0.25570  0.34186  Biso   1.000  C
  C125     1.0000 0.84510  0.25390  0.29140  Biso   1.000  C
  C126     1.0000 0.06680  0.00370  0.34550  Biso   1.000  C
  C127     1.0000 0.41961  0.82706  0.05821  Biso   1.000  C
  C128     1.0000 0.46083  0.97506  0.02693  Biso   1.000  C
  C129     1.0000 0.49373  0.91131  0.45296  Biso   1.000  C
  C130     1.0000 0.51346  0.85895  0.29637  Biso   1.000  C
  C131     1.0000 0.59454  0.91597  0.37789  Biso   1.000  C
  C132     1.0000 0.51330  0.89080  0.37888  Biso   1.000  C
  C133     1.0000 0.56850  0.91731  0.40621  Biso   1.000  C
  C134     1.0000 0.48623  0.86207  0.32456  Biso   1.000  C
  C135     1.0000 0.44523  0.86464  0.99673  Biso   1.000  C
  C136     1.0000 0.43197  0.81393  0.98498  Biso   1.000  C
  C137     1.0000 0.40632  0.80932  0.09244  Biso   1.000  C
  C138     1.0000 0.43071  0.87781  0.06906  Biso   1.000  C
  C139     1.0000 0.42126  0.79682  0.01738  Biso   1.000  C
  C140     1.0000 0.44664  0.89854  0.03972  Biso   1.000  C
  C141     1.0000 0.56772  0.88713  0.32407  Biso   1.000  C
  C142     1.0000 0.48112  0.82298  0.23682  Biso   1.000  C
  C143     1.0000 0.65490  0.94630  0.40880  Biso   1.000  C
  C144     1.0000 0.43320  0.77870  0.93690  Biso   1.000  C
  C145     1.0000 0.55821  0.41961  0.32706  Biso   1.000  C
  C146     1.0000 0.52693  0.46083  0.47506  Biso   1.000  C
  C147     1.0000 0.95296  0.49373  0.41131  Biso   1.000  C
  C148     1.0000 0.79637  0.51346  0.35895  Biso   1.000  C
  C149     1.0000 0.87789  0.59454  0.41597  Biso   1.000  C
  C150     1.0000 0.87888  0.51330  0.39080  Biso   1.000  C
  C151     1.0000 0.90621  0.56850  0.41731  Biso   1.000  C
  C152     1.0000 0.82456  0.48623  0.36207  Biso   1.000  C
  C153     1.0000 0.49673  0.44523  0.36464  Biso   1.000  C
  C154     1.0000 0.48498  0.43197  0.31393  Biso   1.000  C
  C155     1.0000 0.59244  0.40632  0.30932  Biso   1.000  C
  C156     1.0000 0.56906  0.43071  0.37781  Biso   1.000  C
  C157     1.0000 0.51738  0.42126  0.29682  Biso   1.000  C
  C158     1.0000 0.53972  0.44664  0.39854  Biso   1.000  C
  C159     1.0000 0.82407  0.56772  0.38713  Biso   1.000  C
  C160     1.0000 0.73682  0.48112  0.32298  Biso   1.000  C
  C161     1.0000 0.90880  0.65490  0.44630  Biso   1.000  C
  C162     1.0000 0.43690  0.43320  0.27870  Biso   1.000  C
  C163     1.0000 0.90745  0.08039  0.63860  Biso   1.000  C
  C164     1.0000 0.01423  0.03917  0.56610  Biso   1.000  C
  C165     1.0000 0.91758  0.00627  0.95923  Biso   1.000  C
  C166     1.0000 0.84549  0.98654  0.78291  Biso   1.000  C
  C167     1.0000 0.82143  0.90546  0.78335  Biso   1.000  C
  C168     1.0000 0.87750  0.98670  0.86558  Biso   1.000  C
  C169     1.0000 0.84881  0.93150  0.83771  Biso   1.000  C
  C170     1.0000 0.87584  0.01377  0.83833  Biso   1.000  C
  C171     1.0000 0.91941  0.05477  0.55150  Biso   1.000  C
  C172     1.0000 0.88196  0.06803  0.55301  Biso   1.000  C
  C173     1.0000 0.90300  0.09368  0.68612  Biso   1.000  C
  C174     1.0000 0.94710  0.06929  0.63835  Biso   1.000  C
  C175     1.0000 0.87556  0.07874  0.59612  Biso   1.000  C
  C176     1.0000 0.95190  0.05336  0.59308  Biso   1.000  C
  C177     1.0000 0.81941  0.93228  0.75635  Biso   1.000  C
  C178     1.0000 0.84186  0.01888  0.75570  Biso   1.000  C
  C179     1.0000 0.79140  0.84510  0.75390  Biso   1.000  C
  C180     1.0000 0.84550  0.06680  0.50370  Biso   1.000  C
  C181     1.0000 0.94179  0.26885  0.86140  Biso   1.000  C
  C182     1.0000 0.97307  0.44813  0.93390  Biso   1.000  C
  C183     1.0000 0.54704  0.95835  0.54077  Biso   1.000  C
  C184     1.0000 0.70363  0.06258  0.71709  Biso   1.000  C
  C185     1.0000 0.62211  0.03808  0.71665  Biso   1.000  C
  C186     1.0000 0.62112  0.01192  0.63442  Biso   1.000  C
  C187     1.0000 0.59379  0.01110  0.66229  Biso   1.000  C
  C188     1.0000 0.67544  0.03751  0.66167  Biso   1.000  C
  C189     1.0000 0.00327  0.36791  0.94850  Biso   1.000  C
  C190     1.0000 0.01502  0.32895  0.94699  Biso   1.000  C
  C191     1.0000 0.90756  0.21688  0.81388  Biso   1.000  C
  C192     1.0000 0.93094  0.30875  0.86165  Biso   1.000  C
  C193     1.0000 0.98262  0.27944  0.90388  Biso   1.000  C
  C194     1.0000 0.96028  0.35882  0.90692  Biso   1.000  C
  C195     1.0000 0.67593  0.06306  0.74365  Biso   1.000  C
  C196     1.0000 0.76318  0.08616  0.74430  Biso   1.000  C
  C197     1.0000 0.59120  0.03750  0.74610  Biso   1.000  C
  C198     1.0000 0.06310  0.34180  0.99630  Biso   1.000  C
  C199     1.0000 0.59255  0.23115  0.17294  Biso   1.000  C
  C200     1.0000 0.48577  0.05187  0.02494  Biso   1.000  C
  C201     1.0000 0.58242  0.54165  0.08869  Biso   1.000  C
  C202     1.0000 0.65451  0.43742  0.14105  Biso   1.000  C
  C203     1.0000 0.67857  0.46192  0.08403  Biso   1.000  C
  C204     1.0000 0.62250  0.48808  0.10920  Biso   1.000  C
  C205     1.0000 0.65119  0.48890  0.08269  Biso   1.000  C
  C206     1.0000 0.62416  0.46249  0.13793  Biso   1.000  C
  C207     1.0000 0.58059  0.13209  0.13536  Biso   1.000  C
  C208     1.0000 0.61804  0.17105  0.18607  Biso   1.000  C
  C209     1.0000 0.59700  0.28312  0.19068  Biso   1.000  C
  C210     1.0000 0.55290  0.19125  0.12219  Biso   1.000  C
  C211     1.0000 0.62444  0.22056  0.20318  Biso   1.000  C
  C212     1.0000 0.54810  0.14118  0.10146  Biso   1.000  C
  C213     1.0000 0.68059  0.43694  0.11287  Biso   1.000  C
  C214     1.0000 0.65814  0.41384  0.17702  Biso   1.000  C
  C215     1.0000 0.70860  0.46250  0.05370  Biso   1.000  C
  C216     1.0000 0.65450  0.15820  0.22130  Biso   1.000  C
  C217     1.0000 0.59255  0.36140  0.91961  Biso   1.000  C
  C218     1.0000 0.48577  0.43390  0.96083  Biso   1.000  C
  C219     1.0000 0.58242  0.04077  0.99373  Biso   1.000  C
  C220     1.0000 0.65451  0.21709  0.01346  Biso   1.000  C
  C221     1.0000 0.67857  0.21665  0.09454  Biso   1.000  C
  C222     1.0000 0.62250  0.13442  0.01330  Biso   1.000  C
  C223     1.0000 0.65119  0.16229  0.06850  Biso   1.000  C
  C224     1.0000 0.62416  0.16167  0.98623  Biso   1.000  C
  C225     1.0000 0.58059  0.44850  0.94523  Biso   1.000  C
  C226     1.0000 0.61804  0.44699  0.93197  Biso   1.000  C
  C227     1.0000 0.59700  0.31388  0.90632  Biso   1.000  C
  C228     1.0000 0.55290  0.36165  0.93071  Biso   1.000  C
  C229     1.0000 0.62444  0.40388  0.92126  Biso   1.000  C
  C230     1.0000 0.54810  0.40692  0.94664  Biso   1.000  C
  C231     1.0000 0.68059  0.24365  0.06772  Biso   1.000  C
  C232     1.0000 0.65814  0.24430  0.98112  Biso   1.000  C
  C233     1.0000 0.70860  0.24610  0.15490  Biso   1.000  C
  C234     1.0000 0.65450  0.49630  0.93320  Biso   1.000  C
  C235     1.0000 0.94179  0.67294  0.58039  Biso   1.000  C
  C236     1.0000 0.97307  0.52494  0.53917  Biso   1.000  C
  C237     1.0000 0.54704  0.58869  0.50627  Biso   1.000  C
  C238     1.0000 0.70363  0.64105  0.48654  Biso   1.000  C
  C239     1.0000 0.62211  0.58403  0.40546  Biso   1.000  C
  C240     1.0000 0.62112  0.60920  0.48670  Biso   1.000  C
  C241     1.0000 0.59379  0.58269  0.43150  Biso   1.000  C
  C242     1.0000 0.67544  0.63793  0.51377  Biso   1.000  C
  C243     1.0000 0.00327  0.63536  0.55477  Biso   1.000  C
  C244     1.0000 0.01502  0.68607  0.56803  Biso   1.000  C
  C245     1.0000 0.90756  0.69068  0.59368  Biso   1.000  C
  C246     1.0000 0.93094  0.62219  0.56929  Biso   1.000  C
  C247     1.0000 0.98262  0.70318  0.57874  Biso   1.000  C
  C248     1.0000 0.96028  0.60146  0.55336  Biso   1.000  C
  C249     1.0000 0.67593  0.61287  0.43228  Biso   1.000  C
  C250     1.0000 0.76318  0.67702  0.51888  Biso   1.000  C
  C251     1.0000 0.59120  0.55370  0.34510  Biso   1.000  C
  C252     1.0000 0.06310  0.72130  0.56680  Biso   1.000  C
  C253     1.0000 0.90745  0.82706  0.76885  Biso   1.000  C
  C254     1.0000 0.01423  0.97506  0.94813  Biso   1.000  C
  C255     1.0000 0.91758  0.91131  0.45835  Biso   1.000  C
  C256     1.0000 0.84549  0.85895  0.56258  Biso   1.000  C
  C257     1.0000 0.82143  0.91597  0.53808  Biso   1.000  C
  C258     1.0000 0.87750  0.89080  0.51192  Biso   1.000  C
  C259     1.0000 0.84881  0.91731  0.51110  Biso   1.000  C
  C260     1.0000 0.87584  0.86207  0.53751  Biso   1.000  C
  C261     1.0000 0.91941  0.86464  0.86791  Biso   1.000  C
  C262     1.0000 0.88196  0.81393  0.82895  Biso   1.000  C
  C263     1.0000 0.90300  0.80932  0.71688  Biso   1.000  C
  C264     1.0000 0.94710  0.87781  0.80875  Biso   1.000  C
  C265     1.0000 0.87556  0.79682  0.77944  Biso   1.000  C
  C266     1.0000 0.95190  0.89854  0.85882  Biso   1.000  C
  C267     1.0000 0.81941  0.88713  0.56306  Biso   1.000  C
  C268     1.0000 0.84186  0.82298  0.58616  Biso   1.000  C
  C269     1.0000 0.79140  0.94630  0.53750  Biso   1.000  C
  C270     1.0000 0.84550  0.77870  0.84180  Biso   1.000  C
  C271     1.0000 0.55821  0.13860  0.73115  Biso   1.000  C
  C272     1.0000 0.52693  0.06610  0.55187  Biso   1.000  C
  C273     1.0000 0.95296  0.45923  0.04165  Biso   1.000  C
  C274     1.0000 0.79637  0.28291  0.93742  Biso   1.000  C
  C275     1.0000 0.87789  0.28335  0.96192  Biso   1.000  C
  C276     1.0000 0.87888  0.36558  0.98808  Biso   1.000  C
  C277     1.0000 0.90621  0.33771  0.98890  Biso   1.000  C
  C278     1.0000 0.82456  0.33833  0.96249  Biso   1.000  C
  C279     1.0000 0.49673  0.05150  0.63209  Biso   1.000  C
  C280     1.0000 0.48498  0.05301  0.67105  Biso   1.000  C
  C281     1.0000 0.59244  0.18612  0.78312  Biso   1.000  C
  C282     1.0000 0.56906  0.13835  0.69125  Biso   1.000  C
  C283     1.0000 0.51738  0.09612  0.72056  Biso   1.000  C
  C284     1.0000 0.53972  0.09308  0.64118  Biso   1.000  C
  C285     1.0000 0.82407  0.25635  0.93694  Biso   1.000  C
  C286     1.0000 0.73682  0.25570  0.91384  Biso   1.000  C
  C287     1.0000 0.90880  0.25390  0.96250  Biso   1.000  C
  C288     1.0000 0.43690  0.00370  0.65820  Biso   1.000  C
  C289     1.0000 0.82706  0.26885  0.40745  Biso   1.000  C
  C290     1.0000 0.97506  0.44813  0.51423  Biso   1.000  C
  C291     1.0000 0.91131  0.95835  0.41758  Biso   1.000  C
  C292     1.0000 0.85895  0.06258  0.34549  Biso   1.000  C
  C293     1.0000 0.91597  0.03808  0.32143  Biso   1.000  C
  C294     1.0000 0.89080  0.01192  0.37750  Biso   1.000  C
  C295     1.0000 0.91731  0.01110  0.34881  Biso   1.000  C
  C296     1.0000 0.86207  0.03751  0.37584  Biso   1.000  C
  C297     1.0000 0.86464  0.36791  0.41941  Biso   1.000  C
  C298     1.0000 0.81393  0.32895  0.38196  Biso   1.000  C
  C299     1.0000 0.80932  0.21688  0.40300  Biso   1.000  C
  C300     1.0000 0.87781  0.30875  0.44710  Biso   1.000  C
  C301     1.0000 0.79682  0.27944  0.37556  Biso   1.000  C
  C302     1.0000 0.89854  0.35882  0.45190  Biso   1.000  C
  C303     1.0000 0.88713  0.06306  0.31941  Biso   1.000  C
  C304     1.0000 0.82298  0.08616  0.34186  Biso   1.000  C
  C305     1.0000 0.94630  0.03750  0.29140  Biso   1.000  C
  C306     1.0000 0.77870  0.34180  0.34550  Biso   1.000  C
  C307     1.0000 0.13860  0.23115  0.05821  Biso   1.000  C
  C308     1.0000 0.06610  0.05187  0.02693  Biso   1.000  C
  C309     1.0000 0.45923  0.54165  0.45296  Biso   1.000  C
  C310     1.0000 0.28291  0.43742  0.29637  Biso   1.000  C
  C311     1.0000 0.28335  0.46192  0.37789  Biso   1.000  C
  C312     1.0000 0.36558  0.48808  0.37888  Biso   1.000  C
  C313     1.0000 0.33771  0.48890  0.40621  Biso   1.000  C
  C314     1.0000 0.33833  0.46249  0.32456  Biso   1.000  C
  C315     1.0000 0.05150  0.13209  0.99673  Biso   1.000  C
  C316     1.0000 0.05301  0.17105  0.98498  Biso   1.000  C
  C317     1.0000 0.18612  0.28312  0.09244  Biso   1.000  C
  C318     1.0000 0.13835  0.19125  0.06906  Biso   1.000  C
  C319     1.0000 0.09612  0.22056  0.01738  Biso   1.000  C
  C320     1.0000 0.09308  0.14118  0.03972  Biso   1.000  C
  C321     1.0000 0.25635  0.43694  0.32407  Biso   1.000  C
  C322     1.0000 0.25570  0.41384  0.23682  Biso   1.000  C
  C323     1.0000 0.25390  0.46250  0.40880  Biso   1.000  C
  C324     1.0000 0.00370  0.15820  0.93690  Biso   1.000  C
  C325     1.0000 0.36140  0.41961  0.09255  Biso   1.000  C
  C326     1.0000 0.43390  0.46083  0.98577  Biso   1.000  C
  C327     1.0000 0.04077  0.49373  0.08242  Biso   1.000  C
  C328     1.0000 0.21709  0.51346  0.15451  Biso   1.000  C
  C329     1.0000 0.21665  0.59454  0.17857  Biso   1.000  C
  C330     1.0000 0.13442  0.51330  0.12250  Biso   1.000  C
  C331     1.0000 0.16229  0.56850  0.15119  Biso   1.000  C
  C332     1.0000 0.16167  0.48623  0.12416  Biso   1.000  C
  C333     1.0000 0.44850  0.44523  0.08059  Biso   1.000  C
  C334     1.0000 0.44699  0.43197  0.11804  Biso   1.000  C
  C335     1.0000 0.31388  0.40632  0.09700  Biso   1.000  C
  C336     1.0000 0.36165  0.43071  0.05290  Biso   1.000  C
  C337     1.0000 0.40388  0.42126  0.12444  Biso   1.000  C
  C338     1.0000 0.40692  0.44664  0.04810  Biso   1.000  C
  C339     1.0000 0.24365  0.56772  0.18059  Biso   1.000  C
  C340     1.0000 0.24430  0.48112  0.15814  Biso   1.000  C
  C341     1.0000 0.24610  0.65490  0.20860  Biso   1.000  C
  C342     1.0000 0.49630  0.43320  0.15450  Biso   1.000  C
  C343     1.0000 0.67294  0.08039  0.44179  Biso   1.000  C
  C344     1.0000 0.52494  0.03917  0.47307  Biso   1.000  C
  C345     1.0000 0.58869  0.00627  0.04704  Biso   1.000  C
  C346     1.0000 0.64105  0.98654  0.20363  Biso   1.000  C
  C347     1.0000 0.58403  0.90546  0.12211  Biso   1.000  C
  C348     1.0000 0.60920  0.98670  0.12112  Biso   1.000  C
  C349     1.0000 0.58269  0.93150  0.09379  Biso   1.000  C
  C350     1.0000 0.63793  0.01377  0.17544  Biso   1.000  C
  C351     1.0000 0.63536  0.05477  0.50327  Biso   1.000  C
  C352     1.0000 0.68607  0.06803  0.51502  Biso   1.000  C
  C353     1.0000 0.69068  0.09368  0.40756  Biso   1.000  C
  C354     1.0000 0.62219  0.06929  0.43094  Biso   1.000  C
  C355     1.0000 0.70318  0.07874  0.48262  Biso   1.000  C
  C356     1.0000 0.60146  0.05336  0.46028  Biso   1.000  C
  C357     1.0000 0.61287  0.93228  0.17593  Biso   1.000  C
  C358     1.0000 0.67702  0.01888  0.26318  Biso   1.000  C
  C359     1.0000 0.55370  0.84510  0.09120  Biso   1.000  C
  C360     1.0000 0.72130  0.06680  0.56310  Biso   1.000  C
  C361     1.0000 0.08039  0.94179  0.17294  Biso   1.000  C
  C362     1.0000 0.03917  0.97307  0.02494  Biso   1.000  C
  C363     1.0000 0.00627  0.54704  0.08869  Biso   1.000  C
  C364     1.0000 0.98654  0.70363  0.14105  Biso   1.000  C
  C365     1.0000 0.90546  0.62211  0.08403  Biso   1.000  C
  C366     1.0000 0.98670  0.62112  0.10920  Biso   1.000  C
  C367     1.0000 0.93150  0.59379  0.08269  Biso   1.000  C
  C368     1.0000 0.01377  0.67544  0.13793  Biso   1.000  C
  C369     1.0000 0.05477  0.00327  0.13536  Biso   1.000  C
  C370     1.0000 0.06803  0.01502  0.18607  Biso   1.000  C
  C371     1.0000 0.09368  0.90756  0.19068  Biso   1.000  C
  C372     1.0000 0.06929  0.93094  0.12219  Biso   1.000  C
  C373     1.0000 0.07874  0.98262  0.20318  Biso   1.000  C
  C374     1.0000 0.05336  0.96028  0.10146  Biso   1.000  C
  C375     1.0000 0.93228  0.67593  0.11287  Biso   1.000  C
  C376     1.0000 0.01888  0.76318  0.17702  Biso   1.000  C
  C377     1.0000 0.84510  0.59120  0.05370  Biso   1.000  C
  C378     1.0000 0.06680  0.06310  0.22130  Biso   1.000  C
  C379     1.0000 0.41961  0.59255  0.86140  Biso   1.000  C
  C380     1.0000 0.46083  0.48577  0.93390  Biso   1.000  C
  C381     1.0000 0.49373  0.58242  0.54077  Biso   1.000  C
  C382     1.0000 0.51346  0.65451  0.71709  Biso   1.000  C
  C383     1.0000 0.59454  0.67857  0.71665  Biso   1.000  C
  C384     1.0000 0.51330  0.62250  0.63442  Biso   1.000  C
  C385     1.0000 0.56850  0.65119  0.66229  Biso   1.000  C
  C386     1.0000 0.48623  0.62416  0.66167  Biso   1.000  C
  C387     1.0000 0.44523  0.58059  0.94850  Biso   1.000  C
  C388     1.0000 0.43197  0.61804  0.94699  Biso   1.000  C
  C389     1.0000 0.40632  0.59700  0.81388  Biso   1.000  C
  C390     1.0000 0.43071  0.55290  0.86165  Biso   1.000  C
  C391     1.0000 0.42126  0.62444  0.90388  Biso   1.000  C
  C392     1.0000 0.44664  0.54810  0.90692  Biso   1.000  C
  C393     1.0000 0.56772  0.68059  0.74365  Biso   1.000  C
  C394     1.0000 0.48112  0.65814  0.74430  Biso   1.000  C
  C395     1.0000 0.65490  0.70860  0.74610  Biso   1.000  C
  C396     1.0000 0.43320  0.65450  0.99630  Biso   1.000  C
  C397     1.0000 0.23115  0.55821  0.63860  Biso   1.000  C
  C398     1.0000 0.05187  0.52693  0.56610  Biso   1.000  C
  C399     1.0000 0.54165  0.95296  0.95923  Biso   1.000  C
  C400     1.0000 0.43742  0.79637  0.78291  Biso   1.000  C
  C401     1.0000 0.46192  0.87789  0.78335  Biso   1.000  C
  C402     1.0000 0.48808  0.87888  0.86558  Biso   1.000  C
  C403     1.0000 0.48890  0.90621  0.83771  Biso   1.000  C
  C404     1.0000 0.46249  0.82456  0.83833  Biso   1.000  C
  C405     1.0000 0.13209  0.49673  0.55150  Biso   1.000  C
  C406     1.0000 0.17105  0.48498  0.55301  Biso   1.000  C
  C407     1.0000 0.28312  0.59244  0.68612  Biso   1.000  C
  C408     1.0000 0.19125  0.56906  0.63835  Biso   1.000  C
  C409     1.0000 0.22056  0.51738  0.59612  Biso   1.000  C
  C410     1.0000 0.14118  0.53972  0.59308  Biso   1.000  C
  C411     1.0000 0.43694  0.82407  0.75635  Biso   1.000  C
  C412     1.0000 0.41384  0.73682  0.75570  Biso   1.000  C
  C413     1.0000 0.46250  0.90880  0.75390  Biso   1.000  C
  C414     1.0000 0.15820  0.43690  0.50370  Biso   1.000  C
  C415     1.0000 0.26885  0.90745  0.32706  Biso   1.000  C
  C416     1.0000 0.44813  0.01423  0.47506  Biso   1.000  C
  C417     1.0000 0.95835  0.91758  0.41131  Biso   1.000  C
  C418     1.0000 0.06258  0.84549  0.35895  Biso   1.000  C
  C419     1.0000 0.03808  0.82143  0.41597  Biso   1.000  C
  C420     1.0000 0.01192  0.87750  0.39080  Biso   1.000  C
  C421     1.0000 0.01110  0.84881  0.41731  Biso   1.000  C
  C422     1.0000 0.03751  0.87584  0.36207  Biso   1.000  C
  C423     1.0000 0.36791  0.91941  0.36464  Biso   1.000  C
  C424     1.0000 0.32895  0.88196  0.31393  Biso   1.000  C
  C425     1.0000 0.21688  0.90300  0.30932  Biso   1.000  C
  C426     1.0000 0.30875  0.94710  0.37781  Biso   1.000  C
  C427     1.0000 0.27944  0.87556  0.29682  Biso   1.000  C
  C428     1.0000 0.35882  0.95190  0.39854  Biso   1.000  C
  C429     1.0000 0.06306  0.81941  0.38713  Biso   1.000  C
  C430     1.0000 0.08616  0.84186  0.32298  Biso   1.000  C
  C431     1.0000 0.03750  0.79140  0.44630  Biso   1.000  C
  C432     1.0000 0.34180  0.84550  0.27870  Biso   1.000  C
  N1       1.0000 0.06679  0.04035  0.51250  Biso   1.000  N
  N2       1.0000 0.44948  0.89915  0.45787  Biso   1.000  N
  N3       1.0000 0.09315  0.98851  0.53802  Biso   1.000  N
  N4       1.0000 0.42057  0.90894  0.51771  Biso   1.000  N
  N5       1.0000 0.02785  0.55429  0.98750  Biso   1.000  N
  N6       1.0000 0.94128  0.99161  0.04213  Biso   1.000  N
  N7       1.0000 0.95049  0.55513  0.96198  Biso   1.000  N
  N8       1.0000 0.89123  0.90286  0.98229  Biso   1.000  N
  N9       1.0000 0.47215  0.45965  0.52644  Biso   1.000  N
  N10      1.0000 0.55872  0.60085  0.05033  Biso   1.000  N
  N11      1.0000 0.54951  0.51149  0.60464  Biso   1.000  N
  N12      1.0000 0.60877  0.59106  0.01163  Biso   1.000  N
  N13      1.0000 0.43321  0.94571  0.97356  Biso   1.000  N
  N14      1.0000 0.05052  0.50839  0.44967  Biso   1.000  N
  N15      1.0000 0.40685  0.94487  0.89536  Biso   1.000  N
  N16      1.0000 0.07943  0.59714  0.48837  Biso   1.000  N
  N17      1.0000 0.02644  0.47215  0.95965  Biso   1.000  N
  N18      1.0000 0.55033  0.55872  0.10085  Biso   1.000  N
  N19      1.0000 0.10464  0.54951  0.01149  Biso   1.000  N
  N20      1.0000 0.51163  0.60877  0.09106  Biso   1.000  N
  N21      1.0000 0.47356  0.43321  0.44571  Biso   1.000  N
  N22      1.0000 0.94967  0.05052  0.00839  Biso   1.000  N
  N23      1.0000 0.39536  0.40685  0.44487  Biso   1.000  N
  N24      1.0000 0.98837  0.07943  0.09714  Biso   1.000  N
  N25      1.0000 0.01250  0.06679  0.54035  Biso   1.000  N
  N26      1.0000 0.95787  0.44948  0.39915  Biso   1.000  N
  N27      1.0000 0.03802  0.09315  0.48851  Biso   1.000  N
  N28      1.0000 0.01771  0.42057  0.40894  Biso   1.000  N
  N29      1.0000 0.48750  0.02785  0.05429  Biso   1.000  N
  N30      1.0000 0.54213  0.94128  0.49161  Biso   1.000  N
  N31      1.0000 0.46198  0.95049  0.05513  Biso   1.000  N
  N32      1.0000 0.48229  0.89123  0.40286  Biso   1.000  N
  N33      1.0000 0.55429  0.48750  0.52785  Biso   1.000  N
  N34      1.0000 0.99161  0.54213  0.44128  Biso   1.000  N
  N35      1.0000 0.55513  0.46198  0.45049  Biso   1.000  N
  N36      1.0000 0.90286  0.48229  0.39123  Biso   1.000  N
  N37      1.0000 0.04035  0.01250  0.56679  Biso   1.000  N
  N38      1.0000 0.89915  0.95787  0.94948  Biso   1.000  N
  N39      1.0000 0.98851  0.03802  0.59315  Biso   1.000  N
  N40      1.0000 0.90894  0.01771  0.92057  Biso   1.000  N
  N41      1.0000 0.94571  0.47356  0.93321  Biso   1.000  N
  N42      1.0000 0.50839  0.94967  0.55052  Biso   1.000  N
  N43      1.0000 0.94487  0.39536  0.90685  Biso   1.000  N
  N44      1.0000 0.59714  0.98837  0.57943  Biso   1.000  N
  N45      1.0000 0.45965  0.02644  0.97215  Biso   1.000  N
  N46      1.0000 0.60085  0.55033  0.05872  Biso   1.000  N
  N47      1.0000 0.51149  0.10464  0.04951  Biso   1.000  N
  N48      1.0000 0.59106  0.51163  0.10877  Biso   1.000  N
  N49      1.0000 0.45965  0.43321  0.98750  Biso   1.000  N
  N50      1.0000 0.60085  0.05052  0.04213  Biso   1.000  N
  N51      1.0000 0.51149  0.40685  0.96198  Biso   1.000  N
  N52      1.0000 0.59106  0.07943  0.98229  Biso   1.000  N
  N53      1.0000 0.94571  0.47215  0.51250  Biso   1.000  N
  N54      1.0000 0.50839  0.55872  0.45787  Biso   1.000  N
  N55      1.0000 0.94487  0.54951  0.53802  Biso   1.000  N
  N56      1.0000 0.59714  0.60877  0.51771  Biso   1.000  N
  N57      1.0000 0.04035  0.02785  0.97356  Biso   1.000  N
  N58      1.0000 0.89915  0.94128  0.44967  Biso   1.000  N
  N59      1.0000 0.98851  0.95049  0.89536  Biso   1.000  N
  N60      1.0000 0.90894  0.89123  0.48837  Biso   1.000  N
  N61      1.0000 0.55429  0.06679  0.52644  Biso   1.000  N
  N62      1.0000 0.99161  0.44948  0.05033  Biso   1.000  N
  N63      1.0000 0.55513  0.09315  0.60464  Biso   1.000  N
  N64      1.0000 0.90286  0.42057  0.01163  Biso   1.000  N
  N65      1.0000 0.02785  0.47356  0.54035  Biso   1.000  N
  N66      1.0000 0.94128  0.94967  0.39915  Biso   1.000  N
  N67      1.0000 0.95049  0.39536  0.48851  Biso   1.000  N
  N68      1.0000 0.89123  0.98837  0.40894  Biso   1.000  N
  N69      1.0000 0.06679  0.02644  0.05429  Biso   1.000  N
  N70      1.0000 0.44948  0.55033  0.49161  Biso   1.000  N
  N71      1.0000 0.09315  0.10464  0.05513  Biso   1.000  N
  N72      1.0000 0.42057  0.51163  0.40286  Biso   1.000  N
  N73      1.0000 0.43321  0.48750  0.95965  Biso   1.000  N
  N74      1.0000 0.05052  0.54213  0.10085  Biso   1.000  N
  N75      1.0000 0.40685  0.46198  0.01149  Biso   1.000  N
  N76      1.0000 0.07943  0.48229  0.09106  Biso   1.000  N
  N77      1.0000 0.47215  0.01250  0.44571  Biso   1.000  N
  N78      1.0000 0.55872  0.95787  0.00839  Biso   1.000  N
  N79      1.0000 0.54951  0.03802  0.44487  Biso   1.000  N
  N80      1.0000 0.60877  0.01771  0.09714  Biso   1.000  N
  N81      1.0000 0.01250  0.94571  0.97215  Biso   1.000  N
  N82      1.0000 0.95787  0.50839  0.05872  Biso   1.000  N
  N83      1.0000 0.03802  0.94487  0.04951  Biso   1.000  N
  N84      1.0000 0.01771  0.59714  0.10877  Biso   1.000  N
  N85      1.0000 0.48750  0.45965  0.93321  Biso   1.000  N
  N86      1.0000 0.54213  0.60085  0.55052  Biso   1.000  N
  N87      1.0000 0.46198  0.51149  0.90685  Biso   1.000  N
  N88      1.0000 0.48229  0.59106  0.57943  Biso   1.000  N
  N89      1.0000 0.02644  0.55429  0.56679  Biso   1.000  N
  N90      1.0000 0.55033  0.99161  0.94948  Biso   1.000  N
  N91      1.0000 0.10464  0.55513  0.59315  Biso   1.000  N
  N92      1.0000 0.51163  0.90286  0.92057  Biso   1.000  N
  N93      1.0000 0.47356  0.04035  0.52785  Biso   1.000  N
  N94      1.0000 0.94967  0.89915  0.44128  Biso   1.000  N
  N95      1.0000 0.39536  0.98851  0.45049  Biso   1.000  N
  N96      1.0000 0.98837  0.90894  0.39123  Biso   1.000  N
  O1       1.0000 0.18327  0.86041  0.59352  Biso   1.000  O
  O2       1.0000 0.99114  0.79897  0.55289  Biso   1.000  O
  O3       1.0000 0.28379  0.87001  0.56778  Biso   1.000  O
  O4       1.0000 0.20801  0.81385  0.49532  Biso   1.000  O
  O5       1.0000 0.27884  0.78052  0.32354  Biso   1.000  O
  O6       1.0000 0.22984  0.94063  0.60693  Biso   1.000  O
  O7       1.0000 0.20908  0.78157  0.32327  Biso   1.000  O
  O8       1.0000 0.98627  0.87117  0.59110  Biso   1.000  O
  O9       1.0000 0.76689  0.58975  0.90648  Biso   1.000  O
  O10      1.0000 0.74608  0.43825  0.94711  Biso   1.000  O
  O11      1.0000 0.80223  0.71601  0.93222  Biso   1.000  O
  O12      1.0000 0.81853  0.71269  0.00468  Biso   1.000  O
  O13      1.0000 0.95698  0.95530  0.17646  Biso   1.000  O
  O14      1.0000 0.83370  0.62291  0.89307  Biso   1.000  O
  O15      1.0000 0.95830  0.88581  0.17673  Biso   1.000  O
  O16      1.0000 0.78007  0.39517  0.90890  Biso   1.000  O
  O17      1.0000 0.73311  0.63959  0.82286  Biso   1.000  O
  O18      1.0000 0.75392  0.70103  0.69217  Biso   1.000  O
  O19      1.0000 0.69777  0.62999  0.91378  Biso   1.000  O
  O20      1.0000 0.68147  0.68615  0.89416  Biso   1.000  O
  O21      1.0000 0.54302  0.71948  0.99832  Biso   1.000  O
  O22      1.0000 0.66630  0.55937  0.78921  Biso   1.000  O
  O23      1.0000 0.54170  0.71843  0.92751  Biso   1.000  O
  O24      1.0000 0.71993  0.62883  0.61510  Biso   1.000  O
  O25      1.0000 0.31673  0.91025  0.67714  Biso   1.000  O
  O26      1.0000 0.50886  0.06175  0.80783  Biso   1.000  O
  O27      1.0000 0.21621  0.78399  0.58622  Biso   1.000  O
  O28      1.0000 0.29199  0.78731  0.60584  Biso   1.000  O
  O29      1.0000 0.22116  0.54470  0.50168  Biso   1.000  O
  O30      1.0000 0.27016  0.87709  0.71079  Biso   1.000  O
  O31      1.0000 0.29092  0.61419  0.57249  Biso   1.000  O
  O32      1.0000 0.51373  0.10483  0.88490  Biso   1.000  O
  O33      1.0000 0.32286  0.73311  0.13959  Biso   1.000  O
  O34      1.0000 0.19217  0.75392  0.20103  Biso   1.000  O
  O35      1.0000 0.41378  0.69777  0.12999  Biso   1.000  O
  O36      1.0000 0.39416  0.68147  0.18615  Biso   1.000  O
  O37      1.0000 0.49832  0.54302  0.21948  Biso   1.000  O
  O38      1.0000 0.28921  0.66630  0.05937  Biso   1.000  O
  O39      1.0000 0.42751  0.54170  0.21843  Biso   1.000  O
  O40      1.0000 0.11510  0.71993  0.12883  Biso   1.000  O
  O41      1.0000 0.17714  0.31673  0.41025  Biso   1.000  O
  O42      1.0000 0.30783  0.50886  0.56175  Biso   1.000  O
  O43      1.0000 0.08622  0.21621  0.28399  Biso   1.000  O
  O44      1.0000 0.10584  0.29199  0.28731  Biso   1.000  O
  O45      1.0000 0.00168  0.22116  0.04470  Biso   1.000  O
  O46      1.0000 0.21079  0.27016  0.37709  Biso   1.000  O
  O47      1.0000 0.07249  0.29092  0.11419  Biso   1.000  O
  O48      1.0000 0.38490  0.51373  0.60483  Biso   1.000  O
  O49      1.0000 0.09352  0.18327  0.36041  Biso   1.000  O
  O50      1.0000 0.05289  0.99114  0.29897  Biso   1.000  O
  O51      1.0000 0.06778  0.28379  0.37001  Biso   1.000  O
  O52      1.0000 0.99532  0.20801  0.31385  Biso   1.000  O
  O53      1.0000 0.82354  0.27884  0.28052  Biso   1.000  O
  O54      1.0000 0.10693  0.22984  0.44063  Biso   1.000  O
  O55      1.0000 0.82327  0.20908  0.28157  Biso   1.000  O
  O56      1.0000 0.09110  0.98627  0.37117  Biso   1.000  O
  O57      1.0000 0.40648  0.76689  0.08975  Biso   1.000  O
  O58      1.0000 0.44711  0.74608  0.93825  Biso   1.000  O
  O59      1.0000 0.43222  0.80223  0.21601  Biso   1.000  O
  O60      1.0000 0.50468  0.81853  0.21269  Biso   1.000  O
  O61      1.0000 0.67646  0.95698  0.45530  Biso   1.000  O
  O62      1.0000 0.39307  0.83370  0.12291  Biso   1.000  O
  O63      1.0000 0.67673  0.95830  0.38581  Biso   1.000  O
  O64      1.0000 0.40890  0.78007  0.89517  Biso   1.000  O
  O65      1.0000 0.58975  0.40648  0.26689  Biso   1.000  O
  O66      1.0000 0.43825  0.44711  0.24608  Biso   1.000  O
  O67      1.0000 0.71601  0.43222  0.30223  Biso   1.000  O
  O68      1.0000 0.71269  0.50468  0.31853  Biso   1.000  O
  O69      1.0000 0.95530  0.67646  0.45698  Biso   1.000  O
  O70      1.0000 0.62291  0.39307  0.33370  Biso   1.000  O
  O71      1.0000 0.88581  0.67673  0.45830  Biso   1.000  O
  O72      1.0000 0.39517  0.40890  0.28007  Biso   1.000  O
  O73      1.0000 0.86041  0.09352  0.68327  Biso   1.000  O
  O74      1.0000 0.79897  0.05289  0.49114  Biso   1.000  O
  O75      1.0000 0.87001  0.06778  0.78379  Biso   1.000  O
  O76      1.0000 0.81385  0.99532  0.70801  Biso   1.000  O
  O77      1.0000 0.78052  0.82354  0.77884  Biso   1.000  O
  O78      1.0000 0.94063  0.10693  0.72984  Biso   1.000  O
  O79      1.0000 0.78157  0.82327  0.70908  Biso   1.000  O
  O80      1.0000 0.87117  0.09110  0.48627  Biso   1.000  O
  O81      1.0000 0.91025  0.17714  0.81673  Biso   1.000  O
  O82      1.0000 0.06175  0.30783  0.00886  Biso   1.000  O
  O83      1.0000 0.78399  0.08622  0.71621  Biso   1.000  O
  O84      1.0000 0.78731  0.10584  0.79199  Biso   1.000  O
  O85      1.0000 0.54470  0.00168  0.72116  Biso   1.000  O
  O86      1.0000 0.87709  0.21079  0.77016  Biso   1.000  O
  O87      1.0000 0.61419  0.07249  0.79092  Biso   1.000  O
  O88      1.0000 0.10483  0.38490  0.01373  Biso   1.000  O
  O89      1.0000 0.63959  0.32286  0.23311  Biso   1.000  O
  O90      1.0000 0.70103  0.19217  0.25392  Biso   1.000  O
  O91      1.0000 0.62999  0.41378  0.19777  Biso   1.000  O
  O92      1.0000 0.68615  0.39416  0.18147  Biso   1.000  O
  O93      1.0000 0.71948  0.49832  0.04302  Biso   1.000  O
  O94      1.0000 0.55937  0.28921  0.16630  Biso   1.000  O
  O95      1.0000 0.71843  0.42751  0.04170  Biso   1.000  O
  O96      1.0000 0.62883  0.11510  0.21993  Biso   1.000  O
  O97      1.0000 0.63959  0.31673  0.90648  Biso   1.000  O
  O98      1.0000 0.70103  0.50886  0.94711  Biso   1.000  O
  O99      1.0000 0.62999  0.21621  0.93222  Biso   1.000  O
  O100     1.0000 0.68615  0.29199  0.00468  Biso   1.000  O
  O101     1.0000 0.71948  0.22116  0.17646  Biso   1.000  O
  O102     1.0000 0.55937  0.27016  0.89307  Biso   1.000  O
  O103     1.0000 0.71843  0.29092  0.17673  Biso   1.000  O
  O104     1.0000 0.62883  0.51373  0.90890  Biso   1.000  O
  O105     1.0000 0.91025  0.73311  0.59352  Biso   1.000  O
  O106     1.0000 0.06175  0.75392  0.55289  Biso   1.000  O
  O107     1.0000 0.78399  0.69777  0.56778  Biso   1.000  O
  O108     1.0000 0.78731  0.68147  0.49532  Biso   1.000  O
  O109     1.0000 0.54470  0.54302  0.32354  Biso   1.000  O
  O110     1.0000 0.87709  0.66630  0.60693  Biso   1.000  O
  O111     1.0000 0.61419  0.54170  0.32327  Biso   1.000  O
  O112     1.0000 0.10483  0.71993  0.59110  Biso   1.000  O
  O113     1.0000 0.86041  0.76689  0.67714  Biso   1.000  O
  O114     1.0000 0.79897  0.74608  0.80783  Biso   1.000  O
  O115     1.0000 0.87001  0.80223  0.58622  Biso   1.000  O
  O116     1.0000 0.81385  0.81853  0.60584  Biso   1.000  O
  O117     1.0000 0.78052  0.95698  0.50168  Biso   1.000  O
  O118     1.0000 0.94063  0.83370  0.71079  Biso   1.000  O
  O119     1.0000 0.78157  0.95830  0.57249  Biso   1.000  O
  O120     1.0000 0.87117  0.78007  0.88490  Biso   1.000  O
  O121     1.0000 0.58975  0.18327  0.82286  Biso   1.000  O
  O122     1.0000 0.43825  0.99114  0.69217  Biso   1.000  O
  O123     1.0000 0.71601  0.28379  0.91378  Biso   1.000  O
  O124     1.0000 0.71269  0.20801  0.89416  Biso   1.000  O
  O125     1.0000 0.95530  0.27884  0.99832  Biso   1.000  O
  O126     1.0000 0.62291  0.22984  0.78921  Biso   1.000  O
  O127     1.0000 0.88581  0.20908  0.92751  Biso   1.000  O
  O128     1.0000 0.39517  0.98627  0.61510  Biso   1.000  O
  O129     1.0000 0.76689  0.17714  0.36041  Biso   1.000  O
  O130     1.0000 0.74608  0.30783  0.29897  Biso   1.000  O
  O131     1.0000 0.80223  0.08622  0.37001  Biso   1.000  O
  O132     1.0000 0.81853  0.10584  0.31385  Biso   1.000  O
  O133     1.0000 0.95698  0.00168  0.28052  Biso   1.000  O
  O134     1.0000 0.83370  0.21079  0.44063  Biso   1.000  O
  O135     1.0000 0.95830  0.07249  0.28157  Biso   1.000  O
  O136     1.0000 0.78007  0.38490  0.37117  Biso   1.000  O
  O137     1.0000 0.18327  0.32286  0.08975  Biso   1.000  O
  O138     1.0000 0.99114  0.19217  0.93825  Biso   1.000  O
  O139     1.0000 0.28379  0.41378  0.21601  Biso   1.000  O
  O140     1.0000 0.20801  0.39416  0.21269  Biso   1.000  O
  O141     1.0000 0.27884  0.49832  0.45530  Biso   1.000  O
  O142     1.0000 0.22984  0.28921  0.12291  Biso   1.000  O
  O143     1.0000 0.20908  0.42751  0.38581  Biso   1.000  O
  O144     1.0000 0.98627  0.11510  0.89517  Biso   1.000  O
  O145     1.0000 0.31673  0.40648  0.13959  Biso   1.000  O
  O146     1.0000 0.50886  0.44711  0.20103  Biso   1.000  O
  O147     1.0000 0.21621  0.43222  0.12999  Biso   1.000  O
  O148     1.0000 0.29199  0.50468  0.18615  Biso   1.000  O
  O149     1.0000 0.22116  0.67646  0.21948  Biso   1.000  O
  O150     1.0000 0.27016  0.39307  0.05937  Biso   1.000  O
  O151     1.0000 0.29092  0.67673  0.21843  Biso   1.000  O
  O152     1.0000 0.51373  0.40890  0.12883  Biso   1.000  O
  O153     1.0000 0.73311  0.09352  0.41025  Biso   1.000  O
  O154     1.0000 0.75392  0.05289  0.56175  Biso   1.000  O
  O155     1.0000 0.69777  0.06778  0.28399  Biso   1.000  O
  O156     1.0000 0.68147  0.99532  0.28731  Biso   1.000  O
  O157     1.0000 0.54302  0.82354  0.04470  Biso   1.000  O
  O158     1.0000 0.66630  0.10693  0.37709  Biso   1.000  O
  O159     1.0000 0.54170  0.82327  0.11419  Biso   1.000  O
  O160     1.0000 0.71993  0.09110  0.60483  Biso   1.000  O
  O161     1.0000 0.09352  0.91025  0.23311  Biso   1.000  O
  O162     1.0000 0.05289  0.06175  0.25392  Biso   1.000  O
  O163     1.0000 0.06778  0.78399  0.19777  Biso   1.000  O
  O164     1.0000 0.99532  0.78731  0.18147  Biso   1.000  O
  O165     1.0000 0.82354  0.54470  0.04302  Biso   1.000  O
  O166     1.0000 0.10693  0.87709  0.16630  Biso   1.000  O
  O167     1.0000 0.82327  0.61419  0.04170  Biso   1.000  O
  O168     1.0000 0.09110  0.10483  0.21993  Biso   1.000  O
  O169     1.0000 0.40648  0.63959  0.81673  Biso   1.000  O
  O170     1.0000 0.44711  0.70103  0.00886  Biso   1.000  O
  O171     1.0000 0.43222  0.62999  0.71621  Biso   1.000  O
  O172     1.0000 0.50468  0.68615  0.79199  Biso   1.000  O
  O173     1.0000 0.67646  0.71948  0.72116  Biso   1.000  O
  O174     1.0000 0.39307  0.55937  0.77016  Biso   1.000  O
  O175     1.0000 0.67673  0.71843  0.79092  Biso   1.000  O
  O176     1.0000 0.40890  0.62883  0.01373  Biso   1.000  O
  O177     1.0000 0.32286  0.58975  0.68327  Biso   1.000  O
  O178     1.0000 0.19217  0.43825  0.49114  Biso   1.000  O
  O179     1.0000 0.41378  0.71601  0.78379  Biso   1.000  O
  O180     1.0000 0.39416  0.71269  0.70801  Biso   1.000  O
  O181     1.0000 0.49832  0.95530  0.77884  Biso   1.000  O
  O182     1.0000 0.28921  0.62291  0.72984  Biso   1.000  O
  O183     1.0000 0.42751  0.88581  0.70908  Biso   1.000  O
  O184     1.0000 0.11510  0.39517  0.48627  Biso   1.000  O
  O185     1.0000 0.17714  0.86041  0.26689  Biso   1.000  O
  O186     1.0000 0.30783  0.79897  0.24608  Biso   1.000  O
  O187     1.0000 0.08622  0.87001  0.30223  Biso   1.000  O
  O188     1.0000 0.10584  0.81385  0.31853  Biso   1.000  O
  O189     1.0000 0.00168  0.78052  0.45698  Biso   1.000  O
  O190     1.0000 0.21079  0.94063  0.33370  Biso   1.000  O
  O191     1.0000 0.07249  0.78157  0.45830  Biso   1.000  O
  O192     1.0000 0.38490  0.87117  0.28007  Biso   1.000  O
