data_image0
_cell_length_a       31.1162
_cell_length_b       31.1162
_cell_length_c       31.1162
_cell_angle_alpha    109.471
_cell_angle_beta     109.471
_cell_angle_gamma    109.471

_symmetry_space_group_name_H-M    P 1
_symmetry_int_tables_number       1

loop_
  _symmetry_equiv_pos_as_xyz
  'x, y, z'

loop_
  _atom_site_label
  _atom_site_occupancy
  _atom_site_fract_x
  _atom_site_fract_y
  _atom_site_fract_z
  _atom_site_thermal_displace_type
  _atom_site_B_iso_or_equiv
  _atom_site_type_symbol
  Zn1      1.0000 0.89039  0.75000  0.64039  Biso   1.000  Zn
  Zn2      1.0000 0.60961  0.25000  0.85961  Biso   1.000  Zn
  Zn3      1.0000 0.14039  0.89039  0.25000  Biso   1.000  Zn
  Zn4      1.0000 0.35961  0.60961  0.75000  Biso   1.000  Zn
  Zn5      1.0000 0.25000  0.35961  0.10961  Biso   1.000  Zn
  Zn6      1.0000 0.75000  0.14039  0.39039  Biso   1.000  Zn
  Zn7      1.0000 0.75000  0.60961  0.85961  Biso   1.000  Zn
  Zn8      1.0000 0.25000  0.89039  0.64039  Biso   1.000  Zn
  Zn9      1.0000 0.60961  0.35961  0.25000  Biso   1.000  Zn
  Zn10     1.0000 0.89039  0.14039  0.75000  Biso   1.000  Zn
  Zn11     1.0000 0.14039  0.25000  0.39039  Biso   1.000  Zn
  Zn12     1.0000 0.35961  0.75000  0.10961  Biso   1.000  Zn
  Zn13     1.0000 0.75000  0.50064  0.49936  Biso   1.000  Zn
  Zn14     1.0000 0.50128  0.25064  0.00064  Biso   1.000  Zn
  Zn15     1.0000 0.99872  0.99936  0.74936  Biso   1.000  Zn
  Zn16     1.0000 0.75000  0.24936  0.75064  Biso   1.000  Zn
  Zn17     1.0000 0.24936  0.99872  0.49936  Biso   1.000  Zn
  Zn18     1.0000 0.25064  0.75000  0.74936  Biso   1.000  Zn
  Zn19     1.0000 0.99936  0.75000  0.00064  Biso   1.000  Zn
  Zn20     1.0000 0.50064  0.50128  0.75064  Biso   1.000  Zn
  Zn21     1.0000 0.25064  0.50064  0.00128  Biso   1.000  Zn
  Zn22     1.0000 0.50064  0.99936  0.25000  Biso   1.000  Zn
  Zn23     1.0000 0.24936  0.25064  0.25000  Biso   1.000  Zn
  Zn24     1.0000 0.99936  0.24936  0.49872  Biso   1.000  Zn
  H1       1.0000 0.61790  0.61530  0.58740  Biso   1.000  H
  H2       1.0000 0.92150  0.72050  0.80760  Biso   1.000  H
  H3       1.0000 0.00570  0.93120  0.88030  Biso   1.000  H
  H4       1.0000 0.00450  0.85560  0.94190  Biso   1.000  H
  H5       1.0000 0.59960  0.52240  0.47640  Biso   1.000  H
  H6       1.0000 0.69700  0.66790  0.59610  Biso   1.000  H
  H7       1.0000 0.96320  0.85630  0.80730  Biso   1.000  H
  H8       1.0000 0.74900  0.59520  0.51440  Biso   1.000  H
  H9       1.0000 0.52790  0.03050  0.91260  Biso   1.000  H
  H10      1.0000 0.41290  0.11390  0.69240  Biso   1.000  H
  H11      1.0000 0.55090  0.12540  0.61970  Biso   1.000  H
  H12      1.0000 0.41370  0.06260  0.55810  Biso   1.000  H
  H13      1.0000 0.54600  0.12320  0.02360  Biso   1.000  H
  H14      1.0000 0.57180  0.10090  0.90390  Biso   1.000  H
  H15      1.0000 0.54900  0.15590  0.69270  Biso   1.000  H
  H16      1.0000 0.58080  0.23460  0.98560  Biso   1.000  H
  H17      1.0000 0.97210  0.88470  0.50260  Biso   1.000  H
  H18      1.0000 0.08710  0.77950  0.70100  Biso   1.000  H
  H19      1.0000 0.94910  0.56880  0.57450  Biso   1.000  H
  H20      1.0000 0.08630  0.64440  0.64890  Biso   1.000  H
  H21      1.0000 0.95400  0.97760  0.57720  Biso   1.000  H
  H22      1.0000 0.92820  0.83210  0.52910  Biso   1.000  H
  H23      1.0000 0.95100  0.64370  0.60690  Biso   1.000  H
  H24      1.0000 0.91920  0.90480  0.65380  Biso   1.000  H
  H25      1.0000 0.88210  0.46950  0.99740  Biso   1.000  H
  H26      1.0000 0.57850  0.38610  0.79900  Biso   1.000  H
  H27      1.0000 0.49430  0.37460  0.92550  Biso   1.000  H
  H28      1.0000 0.49550  0.43740  0.85110  Biso   1.000  H
  H29      1.0000 0.90040  0.37680  0.92280  Biso   1.000  H
  H30      1.0000 0.80300  0.39910  0.97090  Biso   1.000  H
  H31      1.0000 0.53680  0.34410  0.89310  Biso   1.000  H
  H32      1.0000 0.75100  0.26540  0.84620  Biso   1.000  H
  H33      1.0000 0.00260  0.97210  0.38470  Biso   1.000  H
  H34      1.0000 0.20100  0.08710  0.27950  Biso   1.000  H
  H35      1.0000 0.07450  0.94910  0.06880  Biso   1.000  H
  H36      1.0000 0.14890  0.08630  0.14440  Biso   1.000  H
  H37      1.0000 0.07720  0.95400  0.47760  Biso   1.000  H
  H38      1.0000 0.02910  0.92820  0.33210  Biso   1.000  H
  H39      1.0000 0.10690  0.95100  0.14370  Biso   1.000  H
  H40      1.0000 0.15380  0.91920  0.40480  Biso   1.000  H
  H41      1.0000 0.49740  0.88210  0.96950  Biso   1.000  H
  H42      1.0000 0.29900  0.57850  0.88610  Biso   1.000  H
  H43      1.0000 0.42550  0.49430  0.87460  Biso   1.000  H
  H44      1.0000 0.35110  0.49550  0.93740  Biso   1.000  H
  H45      1.0000 0.42280  0.90040  0.87680  Biso   1.000  H
  H46      1.0000 0.47090  0.80300  0.89910  Biso   1.000  H
  H47      1.0000 0.39310  0.53680  0.84410  Biso   1.000  H
  H48      1.0000 0.34620  0.75100  0.76540  Biso   1.000  H
  H49      1.0000 0.08740  0.61790  0.11530  Biso   1.000  H
  H50      1.0000 0.30760  0.92150  0.22050  Biso   1.000  H
  H51      1.0000 0.38030  0.00570  0.43120  Biso   1.000  H
  H52      1.0000 0.44190  0.00450  0.35560  Biso   1.000  H
  H53      1.0000 0.97640  0.59960  0.02240  Biso   1.000  H
  H54      1.0000 0.09610  0.69700  0.16790  Biso   1.000  H
  H55      1.0000 0.30730  0.96320  0.35630  Biso   1.000  H
  H56      1.0000 0.01440  0.74900  0.09520  Biso   1.000  H
  H57      1.0000 0.41260  0.52790  0.53050  Biso   1.000  H
  H58      1.0000 0.19240  0.41290  0.61390  Biso   1.000  H
  H59      1.0000 0.11970  0.55090  0.62540  Biso   1.000  H
  H60      1.0000 0.05810  0.41370  0.56260  Biso   1.000  H
  H61      1.0000 0.52360  0.54600  0.62320  Biso   1.000  H
  H62      1.0000 0.40390  0.57180  0.60090  Biso   1.000  H
  H63      1.0000 0.19270  0.54900  0.65590  Biso   1.000  H
  H64      1.0000 0.48560  0.58080  0.73460  Biso   1.000  H
  H65      1.0000 0.03050  0.41260  0.02790  Biso   1.000  H
  H66      1.0000 0.11390  0.19240  0.91290  Biso   1.000  H
  H67      1.0000 0.12540  0.11970  0.05090  Biso   1.000  H
  H68      1.0000 0.06260  0.05810  0.91370  Biso   1.000  H
  H69      1.0000 0.12320  0.52360  0.04600  Biso   1.000  H
  H70      1.0000 0.10090  0.40390  0.07180  Biso   1.000  H
  H71      1.0000 0.15590  0.19270  0.04900  Biso   1.000  H
  H72      1.0000 0.23460  0.48560  0.08080  Biso   1.000  H
  H73      1.0000 0.61530  0.08740  0.11790  Biso   1.000  H
  H74      1.0000 0.72050  0.30760  0.42150  Biso   1.000  H
  H75      1.0000 0.93120  0.38030  0.50570  Biso   1.000  H
  H76      1.0000 0.85560  0.44190  0.50450  Biso   1.000  H
  H77      1.0000 0.52240  0.97640  0.09960  Biso   1.000  H
  H78      1.0000 0.66790  0.09610  0.19700  Biso   1.000  H
  H79      1.0000 0.85630  0.30730  0.46320  Biso   1.000  H
  H80      1.0000 0.59520  0.01440  0.24900  Biso   1.000  H
  H81      1.0000 0.46950  0.49740  0.38210  Biso   1.000  H
  H82      1.0000 0.38610  0.29900  0.07850  Biso   1.000  H
  H83      1.0000 0.37460  0.42550  0.99430  Biso   1.000  H
  H84      1.0000 0.43740  0.35110  0.99550  Biso   1.000  H
  H85      1.0000 0.37680  0.42280  0.40040  Biso   1.000  H
  H86      1.0000 0.39910  0.47090  0.30300  Biso   1.000  H
  H87      1.0000 0.34410  0.39310  0.03680  Biso   1.000  H
  H88      1.0000 0.26540  0.34620  0.25100  Biso   1.000  H
  H89      1.0000 0.88470  0.00260  0.47210  Biso   1.000  H
  H90      1.0000 0.77950  0.20100  0.58710  Biso   1.000  H
  H91      1.0000 0.56880  0.07450  0.44910  Biso   1.000  H
  H92      1.0000 0.64440  0.14890  0.58630  Biso   1.000  H
  H93      1.0000 0.97760  0.07720  0.45400  Biso   1.000  H
  H94      1.0000 0.83210  0.02910  0.42820  Biso   1.000  H
  H95      1.0000 0.64370  0.10690  0.45100  Biso   1.000  H
  H96      1.0000 0.90480  0.15380  0.41920  Biso   1.000  H
  H97      1.0000 0.88470  0.88210  0.91260  Biso   1.000  H
  H98      1.0000 0.77950  0.57850  0.69240  Biso   1.000  H
  H99      1.0000 0.56880  0.49430  0.61970  Biso   1.000  H
  H100     1.0000 0.64440  0.49550  0.55810  Biso   1.000  H
  H101     1.0000 0.97760  0.90040  0.02360  Biso   1.000  H
  H102     1.0000 0.83210  0.80300  0.90390  Biso   1.000  H
  H103     1.0000 0.64370  0.53680  0.69270  Biso   1.000  H
  H104     1.0000 0.90480  0.75100  0.98560  Biso   1.000  H
  H105     1.0000 0.46950  0.97210  0.58740  Biso   1.000  H
  H106     1.0000 0.38610  0.08710  0.80760  Biso   1.000  H
  H107     1.0000 0.37460  0.94910  0.88030  Biso   1.000  H
  H108     1.0000 0.43740  0.08630  0.94190  Biso   1.000  H
  H109     1.0000 0.37680  0.95400  0.47640  Biso   1.000  H
  H110     1.0000 0.39910  0.92820  0.59610  Biso   1.000  H
  H111     1.0000 0.34410  0.95100  0.80730  Biso   1.000  H
  H112     1.0000 0.26540  0.91920  0.51440  Biso   1.000  H
  H113     1.0000 0.61530  0.52790  0.99740  Biso   1.000  H
  H114     1.0000 0.72050  0.41290  0.79900  Biso   1.000  H
  H115     1.0000 0.93120  0.55090  0.92550  Biso   1.000  H
  H116     1.0000 0.85560  0.41370  0.85110  Biso   1.000  H
  H117     1.0000 0.52240  0.54600  0.92280  Biso   1.000  H
  H118     1.0000 0.66790  0.57180  0.97090  Biso   1.000  H
  H119     1.0000 0.85630  0.54900  0.89310  Biso   1.000  H
  H120     1.0000 0.59520  0.58080  0.84620  Biso   1.000  H
  H121     1.0000 0.03050  0.61790  0.50260  Biso   1.000  H
  H122     1.0000 0.11390  0.92150  0.70100  Biso   1.000  H
  H123     1.0000 0.12540  0.00570  0.57450  Biso   1.000  H
  H124     1.0000 0.06260  0.00450  0.64890  Biso   1.000  H
  H125     1.0000 0.12320  0.59960  0.57720  Biso   1.000  H
  H126     1.0000 0.10090  0.69700  0.52910  Biso   1.000  H
  H127     1.0000 0.15590  0.96320  0.60690  Biso   1.000  H
  H128     1.0000 0.23460  0.74900  0.65380  Biso   1.000  H
  H129     1.0000 0.52790  0.49740  0.11530  Biso   1.000  H
  H130     1.0000 0.41290  0.29900  0.22050  Biso   1.000  H
  H131     1.0000 0.55090  0.42550  0.43120  Biso   1.000  H
  H132     1.0000 0.41370  0.35110  0.35560  Biso   1.000  H
  H133     1.0000 0.54600  0.42280  0.02240  Biso   1.000  H
  H134     1.0000 0.57180  0.47090  0.16790  Biso   1.000  H
  H135     1.0000 0.54900  0.39310  0.35630  Biso   1.000  H
  H136     1.0000 0.58080  0.34620  0.09520  Biso   1.000  H
  H137     1.0000 0.61790  0.00260  0.53050  Biso   1.000  H
  H138     1.0000 0.92150  0.20100  0.61390  Biso   1.000  H
  H139     1.0000 0.00570  0.07450  0.62540  Biso   1.000  H
  H140     1.0000 0.00450  0.14890  0.56260  Biso   1.000  H
  H141     1.0000 0.59960  0.07720  0.62320  Biso   1.000  H
  H142     1.0000 0.69700  0.02910  0.60090  Biso   1.000  H
  H143     1.0000 0.96320  0.10690  0.65590  Biso   1.000  H
  H144     1.0000 0.74900  0.15380  0.73460  Biso   1.000  H
  H145     1.0000 0.88210  0.41260  0.38470  Biso   1.000  H
  H146     1.0000 0.57850  0.19240  0.27950  Biso   1.000  H
  H147     1.0000 0.49430  0.11970  0.06880  Biso   1.000  H
  H148     1.0000 0.49550  0.05810  0.14440  Biso   1.000  H
  H149     1.0000 0.90040  0.52360  0.47760  Biso   1.000  H
  H150     1.0000 0.80300  0.40390  0.33210  Biso   1.000  H
  H151     1.0000 0.53680  0.19270  0.14370  Biso   1.000  H
  H152     1.0000 0.75100  0.48560  0.40480  Biso   1.000  H
  H153     1.0000 0.97210  0.08740  0.96950  Biso   1.000  H
  H154     1.0000 0.08710  0.30760  0.88610  Biso   1.000  H
  H155     1.0000 0.94910  0.38030  0.87460  Biso   1.000  H
  H156     1.0000 0.08630  0.44190  0.93740  Biso   1.000  H
  H157     1.0000 0.95400  0.97640  0.87680  Biso   1.000  H
  H158     1.0000 0.92820  0.09610  0.89910  Biso   1.000  H
  H159     1.0000 0.95100  0.30730  0.84410  Biso   1.000  H
  H160     1.0000 0.91920  0.01440  0.76540  Biso   1.000  H
  H161     1.0000 0.08740  0.46950  0.47210  Biso   1.000  H
  H162     1.0000 0.30760  0.38610  0.58710  Biso   1.000  H
  H163     1.0000 0.38030  0.37460  0.44910  Biso   1.000  H
  H164     1.0000 0.44190  0.43740  0.58630  Biso   1.000  H
  H165     1.0000 0.97640  0.37680  0.45400  Biso   1.000  H
  H166     1.0000 0.09610  0.39910  0.42820  Biso   1.000  H
  H167     1.0000 0.30730  0.34410  0.45100  Biso   1.000  H
  H168     1.0000 0.01440  0.26540  0.41920  Biso   1.000  H
  H169     1.0000 0.41260  0.88470  0.38210  Biso   1.000  H
  H170     1.0000 0.19240  0.77950  0.07850  Biso   1.000  H
  H171     1.0000 0.11970  0.56880  0.99430  Biso   1.000  H
  H172     1.0000 0.05810  0.64440  0.99550  Biso   1.000  H
  H173     1.0000 0.52360  0.97760  0.40040  Biso   1.000  H
  H174     1.0000 0.40390  0.83210  0.30300  Biso   1.000  H
  H175     1.0000 0.19270  0.64370  0.03680  Biso   1.000  H
  H176     1.0000 0.48560  0.90480  0.25100  Biso   1.000  H
  H177     1.0000 0.00260  0.03050  0.11790  Biso   1.000  H
  H178     1.0000 0.20100  0.11390  0.42150  Biso   1.000  H
  H179     1.0000 0.07450  0.12540  0.50570  Biso   1.000  H
  H180     1.0000 0.14890  0.06260  0.50450  Biso   1.000  H
  H181     1.0000 0.07720  0.12320  0.09960  Biso   1.000  H
  H182     1.0000 0.02910  0.10090  0.19700  Biso   1.000  H
  H183     1.0000 0.10690  0.15590  0.46320  Biso   1.000  H
  H184     1.0000 0.15380  0.23460  0.24900  Biso   1.000  H
  H185     1.0000 0.49740  0.61530  0.02790  Biso   1.000  H
  H186     1.0000 0.29900  0.72050  0.91290  Biso   1.000  H
  H187     1.0000 0.42550  0.93120  0.05090  Biso   1.000  H
  H188     1.0000 0.35110  0.85560  0.91370  Biso   1.000  H
  H189     1.0000 0.42280  0.52240  0.04600  Biso   1.000  H
  H190     1.0000 0.47090  0.66790  0.07180  Biso   1.000  H
  H191     1.0000 0.39310  0.85630  0.04900  Biso   1.000  H
  H192     1.0000 0.34620  0.59520  0.08080  Biso   1.000  H
  C1       1.0000 0.98769  0.86635  0.87892  Biso   1.000  C
  C2       1.0000 0.93801  0.75700  0.82529  Biso   1.000  C
  C3       1.0000 0.91447  0.75699  0.73794  Biso   1.000  C
  C4       1.0000 0.55192  0.56596  0.52674  Biso   1.000  C
  C5       1.0000 0.98731  0.83793  0.90532  Biso   1.000  C
  C6       1.0000 0.63294  0.55217  0.49739  Biso   1.000  C
  C7       1.0000 0.64110  0.59377  0.53927  Biso   1.000  C
  C8       1.0000 0.96107  0.78290  0.87699  Biso   1.000  C
  C9       1.0000 0.69068  0.63816  0.56862  Biso   1.000  C
  C10      1.0000 0.96308  0.83790  0.82554  Biso   1.000  C
  C11      1.0000 0.67008  0.55169  0.48483  Biso   1.000  C
  C12      1.0000 0.72145  0.59635  0.51932  Biso   1.000  C
  C13      1.0000 0.73149  0.63999  0.55858  Biso   1.000  C
  C14      1.0000 0.04179  0.95936  0.95283  Biso   1.000  C
  C15      1.0000 0.78319  0.68688  0.59219  Biso   1.000  C
  C16      1.0000 0.93764  0.78305  0.79613  Biso   1.000  C
  C17      1.0000 0.66009  0.50392  0.43943  Biso   1.000  C
  C18      1.0000 0.96076  0.75276  0.90780  Biso   1.000  C
  C19      1.0000 0.48743  0.10877  0.62108  Biso   1.000  C
  C20      1.0000 0.43171  0.11272  0.67471  Biso   1.000  C
  C21      1.0000 0.51905  0.17653  0.76206  Biso   1.000  C
  C22      1.0000 0.53922  0.02518  0.97326  Biso   1.000  C
  C23      1.0000 0.43261  0.08199  0.59468  Biso   1.000  C
  C24      1.0000 0.55478  0.13555  0.00261  Biso   1.000  C
  C25      1.0000 0.55450  0.10183  0.96073  Biso   1.000  C
  C26      1.0000 0.40591  0.08408  0.62301  Biso   1.000  C
  C27      1.0000 0.56954  0.12206  0.93138  Biso   1.000  C
  C28      1.0000 0.51236  0.13754  0.67446  Biso   1.000  C
  C29      1.0000 0.56686  0.18525  0.01517  Biso   1.000  C
  C30      1.0000 0.57703  0.20213  0.98068  Biso   1.000  C
  C31      1.0000 0.58141  0.17291  0.94142  Biso   1.000  C
  C32      1.0000 0.50653  0.08896  0.54717  Biso   1.000  C
  C33      1.0000 0.59469  0.19100  0.90781  Biso   1.000  C
  C34      1.0000 0.48692  0.14151  0.70387  Biso   1.000  C
  C35      1.0000 0.56449  0.22066  0.06057  Biso   1.000  C
  C36      1.0000 0.34496  0.05296  0.59220  Biso   1.000  C
  C37      1.0000 0.01257  0.63365  0.62134  Biso   1.000  C
  C38      1.0000 0.06829  0.74300  0.68101  Biso   1.000  C
  C39      1.0000 0.98095  0.74301  0.65748  Biso   1.000  C
  C40      1.0000 0.96078  0.93404  0.48596  Biso   1.000  C
  C41      1.0000 0.06739  0.66207  0.64938  Biso   1.000  C
  C42      1.0000 0.94522  0.94783  0.58077  Biso   1.000  C
  C43      1.0000 0.94550  0.90623  0.54733  Biso   1.000  C
  C44      1.0000 0.09409  0.71710  0.67817  Biso   1.000  C
  C45      1.0000 0.93046  0.86184  0.55252  Biso   1.000  C
  C46      1.0000 0.98764  0.66210  0.62518  Biso   1.000  C
  C47      1.0000 0.93314  0.94831  0.61839  Biso   1.000  C
  C48      1.0000 0.92297  0.90365  0.62510  Biso   1.000  C
  C49      1.0000 0.91859  0.86001  0.59150  Biso   1.000  C
  C50      1.0000 0.99347  0.54064  0.58243  Biso   1.000  C
  C51      1.0000 0.90531  0.81312  0.59631  Biso   1.000  C
  C52      1.0000 0.01308  0.71695  0.65459  Biso   1.000  C
  C53      1.0000 0.93551  0.99608  0.65617  Biso   1.000  C
  C54      1.0000 0.15504  0.74724  0.70800  Biso   1.000  C
  C55      1.0000 0.51231  0.39123  0.87866  Biso   1.000  C
  C56      1.0000 0.56199  0.38728  0.81899  Biso   1.000  C
  C57      1.0000 0.58553  0.32347  0.84252  Biso   1.000  C
  C58      1.0000 0.94808  0.47482  0.01404  Biso   1.000  C
  C59      1.0000 0.51269  0.41801  0.85062  Biso   1.000  C
  C60      1.0000 0.86706  0.36445  0.91923  Biso   1.000  C
  C61      1.0000 0.85890  0.39817  0.95267  Biso   1.000  C
  C62      1.0000 0.53893  0.41592  0.82183  Biso   1.000  C
  C63      1.0000 0.80932  0.37794  0.94748  Biso   1.000  C
  C64      1.0000 0.53692  0.36246  0.87482  Biso   1.000  C
  C65      1.0000 0.82992  0.31475  0.88161  Biso   1.000  C
  C66      1.0000 0.77855  0.29787  0.87490  Biso   1.000  C
  C67      1.0000 0.76851  0.32709  0.90850  Biso   1.000  C
  C68      1.0000 0.45821  0.41104  0.91757  Biso   1.000  C
  C69      1.0000 0.71681  0.30900  0.90369  Biso   1.000  C
  C70      1.0000 0.56236  0.35849  0.84541  Biso   1.000  C
  C71      1.0000 0.83991  0.27934  0.84383  Biso   1.000  C
  C72      1.0000 0.53924  0.44704  0.79200  Biso   1.000  C
  C73      1.0000 0.12134  0.01257  0.13365  Biso   1.000  C
  C74      1.0000 0.18101  0.06829  0.24300  Biso   1.000  C
  C75      1.0000 0.15748  0.98095  0.24301  Biso   1.000  C
  C76      1.0000 0.98596  0.96078  0.43404  Biso   1.000  C
  C77      1.0000 0.14938  0.06739  0.16207  Biso   1.000  C
  C78      1.0000 0.08077  0.94522  0.44783  Biso   1.000  C
  C79      1.0000 0.04733  0.94550  0.40623  Biso   1.000  C
  C80      1.0000 0.17817  0.09409  0.21710  Biso   1.000  C
  C81      1.0000 0.05252  0.93046  0.36184  Biso   1.000  C
  C82      1.0000 0.12518  0.98764  0.16210  Biso   1.000  C
  C83      1.0000 0.11839  0.93314  0.44831  Biso   1.000  C
  C84      1.0000 0.12510  0.92297  0.40365  Biso   1.000  C
  C85      1.0000 0.09150  0.91859  0.36001  Biso   1.000  C
  C86      1.0000 0.08243  0.99347  0.04064  Biso   1.000  C
  C87      1.0000 0.09631  0.90531  0.31312  Biso   1.000  C
  C88      1.0000 0.15459  0.01308  0.21695  Biso   1.000  C
  C89      1.0000 0.15617  0.93551  0.49608  Biso   1.000  C
  C90      1.0000 0.20800  0.15504  0.24724  Biso   1.000  C
  C91      1.0000 0.37866  0.51231  0.89123  Biso   1.000  C
  C92      1.0000 0.31899  0.56199  0.88728  Biso   1.000  C
  C93      1.0000 0.34252  0.58553  0.82347  Biso   1.000  C
  C94      1.0000 0.51404  0.94808  0.97482  Biso   1.000  C
  C95      1.0000 0.35062  0.51269  0.91801  Biso   1.000  C
  C96      1.0000 0.41923  0.86706  0.86445  Biso   1.000  C
  C97      1.0000 0.45267  0.85890  0.89817  Biso   1.000  C
  C98      1.0000 0.32183  0.53893  0.91592  Biso   1.000  C
  C99      1.0000 0.44748  0.80932  0.87794  Biso   1.000  C
  C100     1.0000 0.37482  0.53692  0.86246  Biso   1.000  C
  C101     1.0000 0.38161  0.82992  0.81475  Biso   1.000  C
  C102     1.0000 0.37490  0.77855  0.79787  Biso   1.000  C
  C103     1.0000 0.40850  0.76851  0.82709  Biso   1.000  C
  C104     1.0000 0.41757  0.45821  0.91104  Biso   1.000  C
  C105     1.0000 0.40369  0.71681  0.80900  Biso   1.000  C
  C106     1.0000 0.34541  0.56236  0.85849  Biso   1.000  C
  C107     1.0000 0.34383  0.83991  0.77934  Biso   1.000  C
  C108     1.0000 0.29200  0.53924  0.94704  Biso   1.000  C
  C109     1.0000 0.37892  0.98769  0.36635  Biso   1.000  C
  C110     1.0000 0.32529  0.93801  0.25700  Biso   1.000  C
  C111     1.0000 0.23794  0.91447  0.25699  Biso   1.000  C
  C112     1.0000 0.02674  0.55192  0.06596  Biso   1.000  C
  C113     1.0000 0.40532  0.98731  0.33793  Biso   1.000  C
  C114     1.0000 0.99739  0.63294  0.05217  Biso   1.000  C
  C115     1.0000 0.03927  0.64110  0.09377  Biso   1.000  C
  C116     1.0000 0.37699  0.96107  0.28290  Biso   1.000  C
  C117     1.0000 0.06862  0.69068  0.13816  Biso   1.000  C
  C118     1.0000 0.32554  0.96308  0.33790  Biso   1.000  C
  C119     1.0000 0.98483  0.67008  0.05169  Biso   1.000  C
  C120     1.0000 0.01932  0.72145  0.09635  Biso   1.000  C
  C121     1.0000 0.05858  0.73149  0.13999  Biso   1.000  C
  C122     1.0000 0.45283  0.04179  0.45936  Biso   1.000  C
  C123     1.0000 0.09219  0.78319  0.18688  Biso   1.000  C
  C124     1.0000 0.29613  0.93764  0.28305  Biso   1.000  C
  C125     1.0000 0.93943  0.66009  0.00392  Biso   1.000  C
  C126     1.0000 0.40780  0.96076  0.25276  Biso   1.000  C
  C127     1.0000 0.12108  0.48743  0.60877  Biso   1.000  C
  C128     1.0000 0.17471  0.43171  0.61272  Biso   1.000  C
  C129     1.0000 0.26206  0.51905  0.67653  Biso   1.000  C
  C130     1.0000 0.47326  0.53922  0.52518  Biso   1.000  C
  C131     1.0000 0.09468  0.43261  0.58199  Biso   1.000  C
  C132     1.0000 0.50261  0.55478  0.63555  Biso   1.000  C
  C133     1.0000 0.46073  0.55450  0.60183  Biso   1.000  C
  C134     1.0000 0.12301  0.40591  0.58408  Biso   1.000  C
  C135     1.0000 0.43138  0.56954  0.62206  Biso   1.000  C
  C136     1.0000 0.17446  0.51236  0.63754  Biso   1.000  C
  C137     1.0000 0.51517  0.56686  0.68525  Biso   1.000  C
  C138     1.0000 0.48068  0.57703  0.70213  Biso   1.000  C
  C139     1.0000 0.44142  0.58141  0.67291  Biso   1.000  C
  C140     1.0000 0.04717  0.50653  0.58896  Biso   1.000  C
  C141     1.0000 0.40781  0.59469  0.69100  Biso   1.000  C
  C142     1.0000 0.20387  0.48692  0.64151  Biso   1.000  C
  C143     1.0000 0.56057  0.56449  0.72066  Biso   1.000  C
  C144     1.0000 0.09220  0.34496  0.55296  Biso   1.000  C
  C145     1.0000 0.10877  0.12108  0.98743  Biso   1.000  C
  C146     1.0000 0.11272  0.17471  0.93171  Biso   1.000  C
  C147     1.0000 0.17653  0.26206  0.01905  Biso   1.000  C
  C148     1.0000 0.02518  0.47326  0.03922  Biso   1.000  C
  C149     1.0000 0.08199  0.09468  0.93261  Biso   1.000  C
  C150     1.0000 0.13555  0.50261  0.05478  Biso   1.000  C
  C151     1.0000 0.10183  0.46073  0.05450  Biso   1.000  C
  C152     1.0000 0.08408  0.12301  0.90591  Biso   1.000  C
  C153     1.0000 0.12206  0.43138  0.06954  Biso   1.000  C
  C154     1.0000 0.13754  0.17446  0.01236  Biso   1.000  C
  C155     1.0000 0.18525  0.51517  0.06686  Biso   1.000  C
  C156     1.0000 0.20213  0.48068  0.07703  Biso   1.000  C
  C157     1.0000 0.17291  0.44142  0.08141  Biso   1.000  C
  C158     1.0000 0.08896  0.04717  0.00653  Biso   1.000  C
  C159     1.0000 0.19100  0.40781  0.09469  Biso   1.000  C
  C160     1.0000 0.14151  0.20387  0.98692  Biso   1.000  C
  C161     1.0000 0.22066  0.56057  0.06449  Biso   1.000  C
  C162     1.0000 0.05296  0.09220  0.84496  Biso   1.000  C
  C163     1.0000 0.86635  0.37892  0.48769  Biso   1.000  C
  C164     1.0000 0.75700  0.32529  0.43801  Biso   1.000  C
  C165     1.0000 0.75699  0.23794  0.41447  Biso   1.000  C
  C166     1.0000 0.56596  0.02674  0.05192  Biso   1.000  C
  C167     1.0000 0.83793  0.40532  0.48731  Biso   1.000  C
  C168     1.0000 0.55217  0.99739  0.13294  Biso   1.000  C
  C169     1.0000 0.59377  0.03927  0.14110  Biso   1.000  C
  C170     1.0000 0.78290  0.37699  0.46107  Biso   1.000  C
  C171     1.0000 0.63816  0.06862  0.19068  Biso   1.000  C
  C172     1.0000 0.83790  0.32554  0.46308  Biso   1.000  C
  C173     1.0000 0.55169  0.98483  0.17008  Biso   1.000  C
  C174     1.0000 0.59635  0.01932  0.22145  Biso   1.000  C
  C175     1.0000 0.63999  0.05858  0.23149  Biso   1.000  C
  C176     1.0000 0.95936  0.45283  0.54179  Biso   1.000  C
  C177     1.0000 0.68688  0.09219  0.28319  Biso   1.000  C
  C178     1.0000 0.78305  0.29613  0.43764  Biso   1.000  C
  C179     1.0000 0.50392  0.93943  0.16009  Biso   1.000  C
  C180     1.0000 0.75276  0.40780  0.46076  Biso   1.000  C
  C181     1.0000 0.39123  0.37866  0.01231  Biso   1.000  C
  C182     1.0000 0.38728  0.31899  0.06199  Biso   1.000  C
  C183     1.0000 0.32347  0.34252  0.08553  Biso   1.000  C
  C184     1.0000 0.47482  0.51404  0.44808  Biso   1.000  C
  C185     1.0000 0.41801  0.35062  0.01269  Biso   1.000  C
  C186     1.0000 0.36445  0.41923  0.36706  Biso   1.000  C
  C187     1.0000 0.39817  0.45267  0.35890  Biso   1.000  C
  C188     1.0000 0.41592  0.32183  0.03893  Biso   1.000  C
  C189     1.0000 0.37794  0.44748  0.30932  Biso   1.000  C
  C190     1.0000 0.36246  0.37482  0.03692  Biso   1.000  C
  C191     1.0000 0.31475  0.38161  0.32992  Biso   1.000  C
  C192     1.0000 0.29787  0.37490  0.27855  Biso   1.000  C
  C193     1.0000 0.32709  0.40850  0.26851  Biso   1.000  C
  C194     1.0000 0.41104  0.41757  0.95821  Biso   1.000  C
  C195     1.0000 0.30900  0.40369  0.21681  Biso   1.000  C
  C196     1.0000 0.35849  0.34541  0.06236  Biso   1.000  C
  C197     1.0000 0.27934  0.34383  0.33991  Biso   1.000  C
  C198     1.0000 0.44704  0.29200  0.03924  Biso   1.000  C
  C199     1.0000 0.63365  0.12134  0.51257  Biso   1.000  C
  C200     1.0000 0.74300  0.18101  0.56829  Biso   1.000  C
  C201     1.0000 0.74301  0.15748  0.48095  Biso   1.000  C
  C202     1.0000 0.93404  0.98596  0.46078  Biso   1.000  C
  C203     1.0000 0.66207  0.14938  0.56739  Biso   1.000  C
  C204     1.0000 0.94783  0.08077  0.44522  Biso   1.000  C
  C205     1.0000 0.90623  0.04733  0.44550  Biso   1.000  C
  C206     1.0000 0.71710  0.17817  0.59409  Biso   1.000  C
  C207     1.0000 0.86184  0.05252  0.43046  Biso   1.000  C
  C208     1.0000 0.66210  0.12518  0.48764  Biso   1.000  C
  C209     1.0000 0.94831  0.11839  0.43314  Biso   1.000  C
  C210     1.0000 0.90365  0.12510  0.42297  Biso   1.000  C
  C211     1.0000 0.86001  0.09150  0.41859  Biso   1.000  C
  C212     1.0000 0.54064  0.08243  0.49347  Biso   1.000  C
  C213     1.0000 0.81312  0.09631  0.40531  Biso   1.000  C
  C214     1.0000 0.71695  0.15459  0.51308  Biso   1.000  C
  C215     1.0000 0.99608  0.15617  0.43551  Biso   1.000  C
  C216     1.0000 0.74724  0.20800  0.65504  Biso   1.000  C
  C217     1.0000 0.63365  0.51231  0.62108  Biso   1.000  C
  C218     1.0000 0.74300  0.56199  0.67471  Biso   1.000  C
  C219     1.0000 0.74301  0.58553  0.76206  Biso   1.000  C
  C220     1.0000 0.93404  0.94808  0.97326  Biso   1.000  C
  C221     1.0000 0.66207  0.51269  0.59468  Biso   1.000  C
  C222     1.0000 0.94783  0.86706  0.00261  Biso   1.000  C
  C223     1.0000 0.90623  0.85890  0.96073  Biso   1.000  C
  C224     1.0000 0.71710  0.53893  0.62301  Biso   1.000  C
  C225     1.0000 0.86184  0.80932  0.93138  Biso   1.000  C
  C226     1.0000 0.66210  0.53692  0.67446  Biso   1.000  C
  C227     1.0000 0.94831  0.82992  0.01517  Biso   1.000  C
  C228     1.0000 0.90365  0.77855  0.98068  Biso   1.000  C
  C229     1.0000 0.86001  0.76851  0.94142  Biso   1.000  C
  C230     1.0000 0.54064  0.45821  0.54717  Biso   1.000  C
  C231     1.0000 0.81312  0.71681  0.90781  Biso   1.000  C
  C232     1.0000 0.71695  0.56236  0.70387  Biso   1.000  C
  C233     1.0000 0.99608  0.83991  0.06057  Biso   1.000  C
  C234     1.0000 0.74724  0.53924  0.59220  Biso   1.000  C
  C235     1.0000 0.39123  0.01257  0.87892  Biso   1.000  C
  C236     1.0000 0.38728  0.06829  0.82529  Biso   1.000  C
  C237     1.0000 0.32347  0.98095  0.73794  Biso   1.000  C
  C238     1.0000 0.47482  0.96078  0.52674  Biso   1.000  C
  C239     1.0000 0.41801  0.06739  0.90532  Biso   1.000  C
  C240     1.0000 0.36445  0.94522  0.49739  Biso   1.000  C
  C241     1.0000 0.39817  0.94550  0.53927  Biso   1.000  C
  C242     1.0000 0.41592  0.09409  0.87699  Biso   1.000  C
  C243     1.0000 0.37794  0.93046  0.56862  Biso   1.000  C
  C244     1.0000 0.36246  0.98764  0.82554  Biso   1.000  C
  C245     1.0000 0.31475  0.93314  0.48483  Biso   1.000  C
  C246     1.0000 0.29787  0.92297  0.51932  Biso   1.000  C
  C247     1.0000 0.32709  0.91859  0.55858  Biso   1.000  C
  C248     1.0000 0.41104  0.99347  0.95283  Biso   1.000  C
  C249     1.0000 0.30900  0.90531  0.59219  Biso   1.000  C
  C250     1.0000 0.35849  0.01308  0.79613  Biso   1.000  C
  C251     1.0000 0.27934  0.93551  0.43943  Biso   1.000  C
  C252     1.0000 0.44704  0.15504  0.90780  Biso   1.000  C
  C253     1.0000 0.86635  0.48743  0.87866  Biso   1.000  C
  C254     1.0000 0.75700  0.43171  0.81899  Biso   1.000  C
  C255     1.0000 0.75699  0.51905  0.84252  Biso   1.000  C
  C256     1.0000 0.56596  0.53922  0.01404  Biso   1.000  C
  C257     1.0000 0.83793  0.43261  0.85062  Biso   1.000  C
  C258     1.0000 0.55217  0.55478  0.91923  Biso   1.000  C
  C259     1.0000 0.59377  0.55450  0.95267  Biso   1.000  C
  C260     1.0000 0.78290  0.40591  0.82183  Biso   1.000  C
  C261     1.0000 0.63816  0.56954  0.94748  Biso   1.000  C
  C262     1.0000 0.83790  0.51236  0.87482  Biso   1.000  C
  C263     1.0000 0.55169  0.56686  0.88161  Biso   1.000  C
  C264     1.0000 0.59635  0.57703  0.87490  Biso   1.000  C
  C265     1.0000 0.63999  0.58141  0.90850  Biso   1.000  C
  C266     1.0000 0.95936  0.50653  0.91757  Biso   1.000  C
  C267     1.0000 0.68688  0.59469  0.90369  Biso   1.000  C
  C268     1.0000 0.78305  0.48692  0.84541  Biso   1.000  C
  C269     1.0000 0.50392  0.56449  0.84383  Biso   1.000  C
  C270     1.0000 0.75276  0.34496  0.79200  Biso   1.000  C
  C271     1.0000 0.10877  0.98769  0.62134  Biso   1.000  C
  C272     1.0000 0.11272  0.93801  0.68101  Biso   1.000  C
  C273     1.0000 0.17653  0.91447  0.65748  Biso   1.000  C
  C274     1.0000 0.02518  0.55192  0.48596  Biso   1.000  C
  C275     1.0000 0.08199  0.98731  0.64938  Biso   1.000  C
  C276     1.0000 0.13555  0.63294  0.58077  Biso   1.000  C
  C277     1.0000 0.10183  0.64110  0.54733  Biso   1.000  C
  C278     1.0000 0.08408  0.96107  0.67817  Biso   1.000  C
  C279     1.0000 0.12206  0.69068  0.55252  Biso   1.000  C
  C280     1.0000 0.13754  0.96308  0.62518  Biso   1.000  C
  C281     1.0000 0.18525  0.67008  0.61839  Biso   1.000  C
  C282     1.0000 0.20213  0.72145  0.62510  Biso   1.000  C
  C283     1.0000 0.17291  0.73149  0.59150  Biso   1.000  C
  C284     1.0000 0.08896  0.04179  0.58243  Biso   1.000  C
  C285     1.0000 0.19100  0.78319  0.59631  Biso   1.000  C
  C286     1.0000 0.14151  0.93764  0.65459  Biso   1.000  C
  C287     1.0000 0.22066  0.66009  0.65617  Biso   1.000  C
  C288     1.0000 0.05296  0.96076  0.70800  Biso   1.000  C
  C289     1.0000 0.48743  0.37866  0.36635  Biso   1.000  C
  C290     1.0000 0.43171  0.31899  0.25700  Biso   1.000  C
  C291     1.0000 0.51905  0.34252  0.25699  Biso   1.000  C
  C292     1.0000 0.53922  0.51404  0.06596  Biso   1.000  C
  C293     1.0000 0.43261  0.35062  0.33793  Biso   1.000  C
  C294     1.0000 0.55478  0.41923  0.05217  Biso   1.000  C
  C295     1.0000 0.55450  0.45267  0.09377  Biso   1.000  C
  C296     1.0000 0.40591  0.32183  0.28290  Biso   1.000  C
  C297     1.0000 0.56954  0.44748  0.13816  Biso   1.000  C
  C298     1.0000 0.51236  0.37482  0.33790  Biso   1.000  C
  C299     1.0000 0.56686  0.38161  0.05169  Biso   1.000  C
  C300     1.0000 0.57703  0.37490  0.09635  Biso   1.000  C
  C301     1.0000 0.58141  0.40850  0.13999  Biso   1.000  C
  C302     1.0000 0.50653  0.41757  0.45936  Biso   1.000  C
  C303     1.0000 0.59469  0.40369  0.18688  Biso   1.000  C
  C304     1.0000 0.48692  0.34541  0.28305  Biso   1.000  C
  C305     1.0000 0.56449  0.34383  0.00392  Biso   1.000  C
  C306     1.0000 0.34496  0.29200  0.25276  Biso   1.000  C
  C307     1.0000 0.98769  0.12134  0.60877  Biso   1.000  C
  C308     1.0000 0.93801  0.18101  0.61272  Biso   1.000  C
  C309     1.0000 0.91447  0.15748  0.67653  Biso   1.000  C
  C310     1.0000 0.55192  0.98596  0.52518  Biso   1.000  C
  C311     1.0000 0.98731  0.14938  0.58199  Biso   1.000  C
  C312     1.0000 0.63294  0.08077  0.63555  Biso   1.000  C
  C313     1.0000 0.64110  0.04733  0.60183  Biso   1.000  C
  C314     1.0000 0.96107  0.17817  0.58408  Biso   1.000  C
  C315     1.0000 0.69068  0.05252  0.62206  Biso   1.000  C
  C316     1.0000 0.96308  0.12518  0.63754  Biso   1.000  C
  C317     1.0000 0.67008  0.11839  0.68525  Biso   1.000  C
  C318     1.0000 0.72145  0.12510  0.70213  Biso   1.000  C
  C319     1.0000 0.73149  0.09150  0.67291  Biso   1.000  C
  C320     1.0000 0.04179  0.08243  0.58896  Biso   1.000  C
  C321     1.0000 0.78319  0.09631  0.69100  Biso   1.000  C
  C322     1.0000 0.93764  0.15459  0.64151  Biso   1.000  C
  C323     1.0000 0.66009  0.15617  0.72066  Biso   1.000  C
  C324     1.0000 0.96076  0.20800  0.55296  Biso   1.000  C
  C325     1.0000 0.51231  0.12108  0.13365  Biso   1.000  C
  C326     1.0000 0.56199  0.17471  0.24300  Biso   1.000  C
  C327     1.0000 0.58553  0.26206  0.24301  Biso   1.000  C
  C328     1.0000 0.94808  0.47326  0.43404  Biso   1.000  C
  C329     1.0000 0.51269  0.09468  0.16207  Biso   1.000  C
  C330     1.0000 0.86706  0.50261  0.44783  Biso   1.000  C
  C331     1.0000 0.85890  0.46073  0.40623  Biso   1.000  C
  C332     1.0000 0.53893  0.12301  0.21710  Biso   1.000  C
  C333     1.0000 0.80932  0.43138  0.36184  Biso   1.000  C
  C334     1.0000 0.53692  0.17446  0.16210  Biso   1.000  C
  C335     1.0000 0.82992  0.51517  0.44831  Biso   1.000  C
  C336     1.0000 0.77855  0.48068  0.40365  Biso   1.000  C
  C337     1.0000 0.76851  0.44142  0.36001  Biso   1.000  C
  C338     1.0000 0.45821  0.04717  0.04064  Biso   1.000  C
  C339     1.0000 0.71681  0.40781  0.31312  Biso   1.000  C
  C340     1.0000 0.56236  0.20387  0.21695  Biso   1.000  C
  C341     1.0000 0.83991  0.56057  0.49608  Biso   1.000  C
  C342     1.0000 0.53924  0.09220  0.24724  Biso   1.000  C
  C343     1.0000 0.01257  0.37892  0.89123  Biso   1.000  C
  C344     1.0000 0.06829  0.32529  0.88728  Biso   1.000  C
  C345     1.0000 0.98095  0.23794  0.82347  Biso   1.000  C
  C346     1.0000 0.96078  0.02674  0.97482  Biso   1.000  C
  C347     1.0000 0.06739  0.40532  0.91801  Biso   1.000  C
  C348     1.0000 0.94522  0.99739  0.86445  Biso   1.000  C
  C349     1.0000 0.94550  0.03927  0.89817  Biso   1.000  C
  C350     1.0000 0.09409  0.37699  0.91592  Biso   1.000  C
  C351     1.0000 0.93046  0.06862  0.87794  Biso   1.000  C
  C352     1.0000 0.98764  0.32554  0.86246  Biso   1.000  C
  C353     1.0000 0.93314  0.98483  0.81475  Biso   1.000  C
  C354     1.0000 0.92297  0.01932  0.79787  Biso   1.000  C
  C355     1.0000 0.91859  0.05858  0.82709  Biso   1.000  C
  C356     1.0000 0.99347  0.45283  0.91104  Biso   1.000  C
  C357     1.0000 0.90531  0.09219  0.80900  Biso   1.000  C
  C358     1.0000 0.01308  0.29613  0.85849  Biso   1.000  C
  C359     1.0000 0.93551  0.93943  0.77934  Biso   1.000  C
  C360     1.0000 0.15504  0.40780  0.94704  Biso   1.000  C
  C361     1.0000 0.37892  0.39123  0.51257  Biso   1.000  C
  C362     1.0000 0.32529  0.38728  0.56829  Biso   1.000  C
  C363     1.0000 0.23794  0.32347  0.48095  Biso   1.000  C
  C364     1.0000 0.02674  0.47482  0.46078  Biso   1.000  C
  C365     1.0000 0.40532  0.41801  0.56739  Biso   1.000  C
  C366     1.0000 0.99739  0.36445  0.44522  Biso   1.000  C
  C367     1.0000 0.03927  0.39817  0.44550  Biso   1.000  C
  C368     1.0000 0.37699  0.41592  0.59409  Biso   1.000  C
  C369     1.0000 0.06862  0.37794  0.43046  Biso   1.000  C
  C370     1.0000 0.32554  0.36246  0.48764  Biso   1.000  C
  C371     1.0000 0.98483  0.31475  0.43314  Biso   1.000  C
  C372     1.0000 0.01932  0.29787  0.42297  Biso   1.000  C
  C373     1.0000 0.05858  0.32709  0.41859  Biso   1.000  C
  C374     1.0000 0.45283  0.41104  0.49347  Biso   1.000  C
  C375     1.0000 0.09219  0.30900  0.40531  Biso   1.000  C
  C376     1.0000 0.29613  0.35849  0.51308  Biso   1.000  C
  C377     1.0000 0.93943  0.27934  0.43551  Biso   1.000  C
  C378     1.0000 0.40780  0.44704  0.65504  Biso   1.000  C
  C379     1.0000 0.12108  0.63365  0.01231  Biso   1.000  C
  C380     1.0000 0.17471  0.74300  0.06199  Biso   1.000  C
  C381     1.0000 0.26206  0.74301  0.08553  Biso   1.000  C
  C382     1.0000 0.47326  0.93404  0.44808  Biso   1.000  C
  C383     1.0000 0.09468  0.66207  0.01269  Biso   1.000  C
  C384     1.0000 0.50261  0.94783  0.36706  Biso   1.000  C
  C385     1.0000 0.46073  0.90623  0.35890  Biso   1.000  C
  C386     1.0000 0.12301  0.71710  0.03893  Biso   1.000  C
  C387     1.0000 0.43138  0.86184  0.30932  Biso   1.000  C
  C388     1.0000 0.17446  0.66210  0.03692  Biso   1.000  C
  C389     1.0000 0.51517  0.94831  0.32992  Biso   1.000  C
  C390     1.0000 0.48068  0.90365  0.27855  Biso   1.000  C
  C391     1.0000 0.44142  0.86001  0.26851  Biso   1.000  C
  C392     1.0000 0.04717  0.54064  0.95821  Biso   1.000  C
  C393     1.0000 0.40781  0.81312  0.21681  Biso   1.000  C
  C394     1.0000 0.20387  0.71695  0.06236  Biso   1.000  C
  C395     1.0000 0.56057  0.99608  0.33991  Biso   1.000  C
  C396     1.0000 0.09220  0.74724  0.03924  Biso   1.000  C
  C397     1.0000 0.12134  0.10877  0.48769  Biso   1.000  C
  C398     1.0000 0.18101  0.11272  0.43801  Biso   1.000  C
  C399     1.0000 0.15748  0.17653  0.41447  Biso   1.000  C
  C400     1.0000 0.98596  0.02518  0.05192  Biso   1.000  C
  C401     1.0000 0.14938  0.08199  0.48731  Biso   1.000  C
  C402     1.0000 0.08077  0.13555  0.13294  Biso   1.000  C
  C403     1.0000 0.04733  0.10183  0.14110  Biso   1.000  C
  C404     1.0000 0.17817  0.08408  0.46107  Biso   1.000  C
  C405     1.0000 0.05252  0.12206  0.19068  Biso   1.000  C
  C406     1.0000 0.12518  0.13754  0.46308  Biso   1.000  C
  C407     1.0000 0.11839  0.18525  0.17008  Biso   1.000  C
  C408     1.0000 0.12510  0.20213  0.22145  Biso   1.000  C
  C409     1.0000 0.09150  0.17291  0.23149  Biso   1.000  C
  C410     1.0000 0.08243  0.08896  0.54179  Biso   1.000  C
  C411     1.0000 0.09631  0.19100  0.28319  Biso   1.000  C
  C412     1.0000 0.15459  0.14151  0.43764  Biso   1.000  C
  C413     1.0000 0.15617  0.22066  0.16009  Biso   1.000  C
  C414     1.0000 0.20800  0.05296  0.46076  Biso   1.000  C
  C415     1.0000 0.37866  0.86635  0.98743  Biso   1.000  C
  C416     1.0000 0.31899  0.75700  0.93171  Biso   1.000  C
  C417     1.0000 0.34252  0.75699  0.01905  Biso   1.000  C
  C418     1.0000 0.51404  0.56596  0.03922  Biso   1.000  C
  C419     1.0000 0.35062  0.83793  0.93261  Biso   1.000  C
  C420     1.0000 0.41923  0.55217  0.05478  Biso   1.000  C
  C421     1.0000 0.45267  0.59377  0.05450  Biso   1.000  C
  C422     1.0000 0.32183  0.78290  0.90591  Biso   1.000  C
  C423     1.0000 0.44748  0.63816  0.06954  Biso   1.000  C
  C424     1.0000 0.37482  0.83790  0.01236  Biso   1.000  C
  C425     1.0000 0.38161  0.55169  0.06686  Biso   1.000  C
  C426     1.0000 0.37490  0.59635  0.07703  Biso   1.000  C
  C427     1.0000 0.40850  0.63999  0.08141  Biso   1.000  C
  C428     1.0000 0.41757  0.95936  0.00653  Biso   1.000  C
  C429     1.0000 0.40369  0.68688  0.09469  Biso   1.000  C
  C430     1.0000 0.34541  0.78305  0.98692  Biso   1.000  C
  C431     1.0000 0.34383  0.50392  0.06449  Biso   1.000  C
  C432     1.0000 0.29200  0.75276  0.84496  Biso   1.000  C
  N1       1.0000 0.60477  0.59384  0.55455  Biso   1.000  N
  N2       1.0000 0.05857  0.00807  0.95760  Biso   1.000  N
  N3       1.0000 0.52599  0.56666  0.55455  Biso   1.000  N
  N4       1.0000 0.01146  0.92023  0.90249  Biso   1.000  N
  N5       1.0000 0.53929  0.05022  0.94545  Biso   1.000  N
  N6       1.0000 0.55047  0.10097  0.54240  Biso   1.000  N
  N7       1.0000 0.51211  0.97144  0.94545  Biso   1.000  N
  N8       1.0000 0.51774  0.10897  0.59751  Biso   1.000  N
  N9       1.0000 0.96071  0.90616  0.51093  Biso   1.000  N
  N10      1.0000 0.94953  0.49193  0.55050  Biso   1.000  N
  N11      1.0000 0.98789  0.93334  0.45933  Biso   1.000  N
  N12      1.0000 0.98226  0.57977  0.59123  Biso   1.000  N
  N13      1.0000 0.89523  0.44978  0.98907  Biso   1.000  N
  N14      1.0000 0.44143  0.39903  0.94950  Biso   1.000  N
  N15      1.0000 0.97401  0.52856  0.04067  Biso   1.000  N
  N16      1.0000 0.48854  0.39103  0.90877  Biso   1.000  N
  N17      1.0000 0.01093  0.96071  0.40616  Biso   1.000  N
  N18      1.0000 0.05050  0.94953  0.99193  Biso   1.000  N
  N19      1.0000 0.95933  0.98789  0.43334  Biso   1.000  N
  N20      1.0000 0.09123  0.98226  0.07977  Biso   1.000  N
  N21      1.0000 0.48907  0.89523  0.94978  Biso   1.000  N
  N22      1.0000 0.44950  0.44143  0.89903  Biso   1.000  N
  N23      1.0000 0.54067  0.97401  0.02856  Biso   1.000  N
  N24      1.0000 0.40877  0.48854  0.89103  Biso   1.000  N
  N25      1.0000 0.05455  0.60477  0.09384  Biso   1.000  N
  N26      1.0000 0.45760  0.05857  0.50807  Biso   1.000  N
  N27      1.0000 0.05455  0.52599  0.06666  Biso   1.000  N
  N28      1.0000 0.40249  0.01146  0.42023  Biso   1.000  N
  N29      1.0000 0.44545  0.53929  0.55022  Biso   1.000  N
  N30      1.0000 0.04240  0.55047  0.60097  Biso   1.000  N
  N31      1.0000 0.44545  0.51211  0.47144  Biso   1.000  N
  N32      1.0000 0.09751  0.51774  0.60897  Biso   1.000  N
  N33      1.0000 0.05022  0.44545  0.03929  Biso   1.000  N
  N34      1.0000 0.10097  0.04240  0.05047  Biso   1.000  N
  N35      1.0000 0.97144  0.44545  0.01211  Biso   1.000  N
  N36      1.0000 0.10897  0.09751  0.01774  Biso   1.000  N
  N37      1.0000 0.59384  0.05455  0.10477  Biso   1.000  N
  N38      1.0000 0.00807  0.45760  0.55857  Biso   1.000  N
  N39      1.0000 0.56666  0.05455  0.02599  Biso   1.000  N
  N40      1.0000 0.92023  0.40249  0.51146  Biso   1.000  N
  N41      1.0000 0.44978  0.48907  0.39523  Biso   1.000  N
  N42      1.0000 0.39903  0.44950  0.94143  Biso   1.000  N
  N43      1.0000 0.52856  0.54067  0.47401  Biso   1.000  N
  N44      1.0000 0.39103  0.40877  0.98854  Biso   1.000  N
  N45      1.0000 0.90616  0.01093  0.46071  Biso   1.000  N
  N46      1.0000 0.49193  0.05050  0.44953  Biso   1.000  N
  N47      1.0000 0.93334  0.95933  0.48789  Biso   1.000  N
  N48      1.0000 0.57977  0.09123  0.48226  Biso   1.000  N
  N49      1.0000 0.90616  0.89523  0.94545  Biso   1.000  N
  N50      1.0000 0.49193  0.44143  0.54240  Biso   1.000  N
  N51      1.0000 0.93334  0.97401  0.94545  Biso   1.000  N
  N52      1.0000 0.57977  0.48854  0.59751  Biso   1.000  N
  N53      1.0000 0.44978  0.96071  0.55455  Biso   1.000  N
  N54      1.0000 0.39903  0.94953  0.95760  Biso   1.000  N
  N55      1.0000 0.52856  0.98789  0.55455  Biso   1.000  N
  N56      1.0000 0.39103  0.98226  0.90249  Biso   1.000  N
  N57      1.0000 0.59384  0.53929  0.98907  Biso   1.000  N
  N58      1.0000 0.00807  0.55047  0.94950  Biso   1.000  N
  N59      1.0000 0.56666  0.51211  0.04067  Biso   1.000  N
  N60      1.0000 0.92023  0.51774  0.90877  Biso   1.000  N
  N61      1.0000 0.05022  0.60477  0.51093  Biso   1.000  N
  N62      1.0000 0.10097  0.05857  0.55050  Biso   1.000  N
  N63      1.0000 0.97144  0.52599  0.45933  Biso   1.000  N
  N64      1.0000 0.10897  0.01146  0.59123  Biso   1.000  N
  N65      1.0000 0.53929  0.48907  0.09384  Biso   1.000  N
  N66      1.0000 0.55047  0.44950  0.50807  Biso   1.000  N
  N67      1.0000 0.51211  0.54067  0.06666  Biso   1.000  N
  N68      1.0000 0.51774  0.40877  0.42023  Biso   1.000  N
  N69      1.0000 0.60477  0.01093  0.55022  Biso   1.000  N
  N70      1.0000 0.05857  0.05050  0.60097  Biso   1.000  N
  N71      1.0000 0.52599  0.95933  0.47144  Biso   1.000  N
  N72      1.0000 0.01146  0.09123  0.60897  Biso   1.000  N
  N73      1.0000 0.89523  0.44545  0.40616  Biso   1.000  N
  N74      1.0000 0.44143  0.04240  0.99193  Biso   1.000  N
  N75      1.0000 0.97401  0.44545  0.43334  Biso   1.000  N
  N76      1.0000 0.48854  0.09751  0.07977  Biso   1.000  N
  N77      1.0000 0.96071  0.05455  0.94978  Biso   1.000  N
  N78      1.0000 0.94953  0.45760  0.89903  Biso   1.000  N
  N79      1.0000 0.98789  0.05455  0.02856  Biso   1.000  N
  N80      1.0000 0.98226  0.40249  0.89103  Biso   1.000  N
  N81      1.0000 0.05455  0.44978  0.46071  Biso   1.000  N
  N82      1.0000 0.45760  0.39903  0.44953  Biso   1.000  N
  N83      1.0000 0.05455  0.52856  0.48789  Biso   1.000  N
  N84      1.0000 0.40249  0.39103  0.48226  Biso   1.000  N
  N85      1.0000 0.44545  0.90616  0.39523  Biso   1.000  N
  N86      1.0000 0.04240  0.49193  0.94143  Biso   1.000  N
  N87      1.0000 0.44545  0.93334  0.47401  Biso   1.000  N
  N88      1.0000 0.09751  0.57977  0.98854  Biso   1.000  N
  N89      1.0000 0.01093  0.05022  0.10477  Biso   1.000  N
  N90      1.0000 0.05050  0.10097  0.55857  Biso   1.000  N
  N91      1.0000 0.95933  0.97144  0.02599  Biso   1.000  N
  N92      1.0000 0.09123  0.10897  0.51146  Biso   1.000  N
  N93      1.0000 0.48907  0.59384  0.03929  Biso   1.000  N
  N94      1.0000 0.44950  0.00807  0.05047  Biso   1.000  N
  N95      1.0000 0.54067  0.56666  0.01211  Biso   1.000  N
  N96      1.0000 0.40877  0.92023  0.01774  Biso   1.000  N
  O1       1.0000 0.69300  0.49161  0.43965  Biso   1.000  O
  O2       1.0000 0.82314  0.68396  0.58976  Biso   1.000  O
  O3       1.0000 0.89368  0.70881  0.71307  Biso   1.000  O
  O4       1.0000 0.78998  0.73006  0.62130  Biso   1.000  O
  O5       1.0000 0.61400  0.48435  0.39635  Biso   1.000  O
  O6       1.0000 0.91516  0.78466  0.71650  Biso   1.000  O
  O7       1.0000 0.99801  0.77881  0.95494  Biso   1.000  O
  O8       1.0000 0.92678  0.70810  0.88524  Biso   1.000  O
  O9       1.0000 0.55196  0.25335  0.06035  Biso   1.000  O
  O10      1.0000 0.59420  0.23338  0.91024  Biso   1.000  O
  O11      1.0000 0.49574  0.18061  0.78693  Biso   1.000  O
  O12      1.0000 0.60876  0.16868  0.87870  Biso   1.000  O
  O13      1.0000 0.58800  0.21765  0.10365  Biso   1.000  O
  O14      1.0000 0.56816  0.19866  0.78350  Biso   1.000  O
  O15      1.0000 0.32387  0.04307  0.54506  Biso   1.000  O
  O16      1.0000 0.32286  0.04154  0.61476  Biso   1.000  O
  O17      1.0000 0.94804  0.00839  0.70139  Biso   1.000  O
  O18      1.0000 0.90580  0.81604  0.63918  Biso   1.000  O
  O19      1.0000 0.00426  0.79119  0.68487  Biso   1.000  O
  O20      1.0000 0.89124  0.76994  0.55992  Biso   1.000  O
  O21      1.0000 0.91200  0.01565  0.62965  Biso   1.000  O
  O22      1.0000 0.93184  0.71534  0.63050  Biso   1.000  O
  O23      1.0000 0.17613  0.72119  0.71920  Biso   1.000  O
  O24      1.0000 0.17714  0.79190  0.71868  Biso   1.000  O
  O25      1.0000 0.80700  0.24665  0.79861  Biso   1.000  O
  O26      1.0000 0.67686  0.26662  0.86082  Biso   1.000  O
  O27      1.0000 0.60632  0.31939  0.81513  Biso   1.000  O
  O28      1.0000 0.71002  0.33132  0.94008  Biso   1.000  O
  O29      1.0000 0.88600  0.28235  0.87035  Biso   1.000  O
  O30      1.0000 0.58484  0.30134  0.86950  Biso   1.000  O
  O31      1.0000 0.50199  0.45693  0.78080  Biso   1.000  O
  O32      1.0000 0.57322  0.45846  0.78132  Biso   1.000  O
  O33      1.0000 0.20139  0.94804  0.50839  Biso   1.000  O
  O34      1.0000 0.13918  0.90580  0.31604  Biso   1.000  O
  O35      1.0000 0.18487  0.00426  0.29119  Biso   1.000  O
  O36      1.0000 0.05992  0.89124  0.26994  Biso   1.000  O
  O37      1.0000 0.12965  0.91200  0.51565  Biso   1.000  O
  O38      1.0000 0.13050  0.93184  0.21534  Biso   1.000  O
  O39      1.0000 0.21920  0.17613  0.22119  Biso   1.000  O
  O40      1.0000 0.21868  0.17714  0.29190  Biso   1.000  O
  O41      1.0000 0.29861  0.80700  0.74665  Biso   1.000  O
  O42      1.0000 0.36082  0.67686  0.76662  Biso   1.000  O
  O43      1.0000 0.31513  0.60632  0.81939  Biso   1.000  O
  O44      1.0000 0.44008  0.71002  0.83132  Biso   1.000  O
  O45      1.0000 0.37035  0.88600  0.78235  Biso   1.000  O
  O46      1.0000 0.36950  0.58484  0.80134  Biso   1.000  O
  O47      1.0000 0.28080  0.50199  0.95693  Biso   1.000  O
  O48      1.0000 0.28132  0.57322  0.95846  Biso   1.000  O
  O49      1.0000 0.93965  0.69300  0.99161  Biso   1.000  O
  O50      1.0000 0.08976  0.82314  0.18396  Biso   1.000  O
  O51      1.0000 0.21307  0.89368  0.20881  Biso   1.000  O
  O52      1.0000 0.12130  0.78998  0.23006  Biso   1.000  O
  O53      1.0000 0.89635  0.61400  0.98435  Biso   1.000  O
  O54      1.0000 0.21650  0.91516  0.28466  Biso   1.000  O
  O55      1.0000 0.45494  0.99801  0.27881  Biso   1.000  O
  O56      1.0000 0.38524  0.92678  0.20810  Biso   1.000  O
  O57      1.0000 0.56035  0.55196  0.75335  Biso   1.000  O
  O58      1.0000 0.41024  0.59420  0.73338  Biso   1.000  O
  O59      1.0000 0.28693  0.49574  0.68061  Biso   1.000  O
  O60      1.0000 0.37870  0.60876  0.66868  Biso   1.000  O
  O61      1.0000 0.60365  0.58800  0.71765  Biso   1.000  O
  O62      1.0000 0.28350  0.56816  0.69866  Biso   1.000  O
  O63      1.0000 0.04506  0.32387  0.54307  Biso   1.000  O
  O64      1.0000 0.11476  0.32286  0.54154  Biso   1.000  O
  O65      1.0000 0.25335  0.56035  0.05196  Biso   1.000  O
  O66      1.0000 0.23338  0.41024  0.09420  Biso   1.000  O
  O67      1.0000 0.18061  0.28693  0.99574  Biso   1.000  O
  O68      1.0000 0.16868  0.37870  0.10876  Biso   1.000  O
  O69      1.0000 0.21765  0.60365  0.08800  Biso   1.000  O
  O70      1.0000 0.19866  0.28350  0.06816  Biso   1.000  O
  O71      1.0000 0.04307  0.04506  0.82387  Biso   1.000  O
  O72      1.0000 0.04154  0.11476  0.82286  Biso   1.000  O
  O73      1.0000 0.49161  0.93965  0.19300  Biso   1.000  O
  O74      1.0000 0.68396  0.08976  0.32314  Biso   1.000  O
  O75      1.0000 0.70881  0.21307  0.39368  Biso   1.000  O
  O76      1.0000 0.73006  0.12130  0.28998  Biso   1.000  O
  O77      1.0000 0.48435  0.89635  0.11400  Biso   1.000  O
  O78      1.0000 0.78466  0.21650  0.41516  Biso   1.000  O
  O79      1.0000 0.77881  0.45494  0.49801  Biso   1.000  O
  O80      1.0000 0.70810  0.38524  0.42678  Biso   1.000  O
  O81      1.0000 0.24665  0.29861  0.30700  Biso   1.000  O
  O82      1.0000 0.26662  0.36082  0.17686  Biso   1.000  O
  O83      1.0000 0.31939  0.31513  0.10632  Biso   1.000  O
  O84      1.0000 0.33132  0.44008  0.21002  Biso   1.000  O
  O85      1.0000 0.28235  0.37035  0.38600  Biso   1.000  O
  O86      1.0000 0.30134  0.36950  0.08484  Biso   1.000  O
  O87      1.0000 0.45693  0.28080  0.00199  Biso   1.000  O
  O88      1.0000 0.45846  0.28132  0.07322  Biso   1.000  O
  O89      1.0000 0.00839  0.20139  0.44804  Biso   1.000  O
  O90      1.0000 0.81604  0.13918  0.40580  Biso   1.000  O
  O91      1.0000 0.79119  0.18487  0.50426  Biso   1.000  O
  O92      1.0000 0.76994  0.05992  0.39124  Biso   1.000  O
  O93      1.0000 0.01565  0.12965  0.41200  Biso   1.000  O
  O94      1.0000 0.71534  0.13050  0.43184  Biso   1.000  O
  O95      1.0000 0.72119  0.21920  0.67613  Biso   1.000  O
  O96      1.0000 0.79190  0.21868  0.67714  Biso   1.000  O
  O97      1.0000 0.00839  0.80700  0.06035  Biso   1.000  O
  O98      1.0000 0.81604  0.67686  0.91024  Biso   1.000  O
  O99      1.0000 0.79119  0.60632  0.78693  Biso   1.000  O
  O100     1.0000 0.76994  0.71002  0.87870  Biso   1.000  O
  O101     1.0000 0.01565  0.88600  0.10365  Biso   1.000  O
  O102     1.0000 0.71534  0.58484  0.78350  Biso   1.000  O
  O103     1.0000 0.72119  0.50199  0.54506  Biso   1.000  O
  O104     1.0000 0.79190  0.57322  0.61476  Biso   1.000  O
  O105     1.0000 0.24665  0.94804  0.43965  Biso   1.000  O
  O106     1.0000 0.26662  0.90580  0.58976  Biso   1.000  O
  O107     1.0000 0.31939  0.00426  0.71307  Biso   1.000  O
  O108     1.0000 0.33132  0.89124  0.62130  Biso   1.000  O
  O109     1.0000 0.28235  0.91200  0.39635  Biso   1.000  O
  O110     1.0000 0.30134  0.93184  0.71650  Biso   1.000  O
  O111     1.0000 0.45693  0.17613  0.95494  Biso   1.000  O
  O112     1.0000 0.45846  0.17714  0.88524  Biso   1.000  O
  O113     1.0000 0.49161  0.55196  0.79861  Biso   1.000  O
  O114     1.0000 0.68396  0.59420  0.86082  Biso   1.000  O
  O115     1.0000 0.70881  0.49574  0.81513  Biso   1.000  O
  O116     1.0000 0.73006  0.60876  0.94008  Biso   1.000  O
  O117     1.0000 0.48435  0.58800  0.87035  Biso   1.000  O
  O118     1.0000 0.78466  0.56816  0.86950  Biso   1.000  O
  O119     1.0000 0.77881  0.32387  0.78080  Biso   1.000  O
  O120     1.0000 0.70810  0.32286  0.78132  Biso   1.000  O
  O121     1.0000 0.25335  0.69300  0.70139  Biso   1.000  O
  O122     1.0000 0.23338  0.82314  0.63918  Biso   1.000  O
  O123     1.0000 0.18061  0.89368  0.68487  Biso   1.000  O
  O124     1.0000 0.16868  0.78998  0.55992  Biso   1.000  O
  O125     1.0000 0.21765  0.61400  0.62965  Biso   1.000  O
  O126     1.0000 0.19866  0.91516  0.63050  Biso   1.000  O
  O127     1.0000 0.04307  0.99801  0.71920  Biso   1.000  O
  O128     1.0000 0.04154  0.92678  0.71868  Biso   1.000  O
  O129     1.0000 0.55196  0.29861  0.99161  Biso   1.000  O
  O130     1.0000 0.59420  0.36082  0.18396  Biso   1.000  O
  O131     1.0000 0.49574  0.31513  0.20881  Biso   1.000  O
  O132     1.0000 0.60876  0.44008  0.23006  Biso   1.000  O
  O133     1.0000 0.58800  0.37035  0.98435  Biso   1.000  O
  O134     1.0000 0.56816  0.36950  0.28466  Biso   1.000  O
  O135     1.0000 0.32387  0.28080  0.27881  Biso   1.000  O
  O136     1.0000 0.32286  0.28132  0.20810  Biso   1.000  O
  O137     1.0000 0.69300  0.20139  0.75335  Biso   1.000  O
  O138     1.0000 0.82314  0.13918  0.73338  Biso   1.000  O
  O139     1.0000 0.89368  0.18487  0.68061  Biso   1.000  O
  O140     1.0000 0.78998  0.05992  0.66868  Biso   1.000  O
  O141     1.0000 0.61400  0.12965  0.71765  Biso   1.000  O
  O142     1.0000 0.91516  0.13050  0.69866  Biso   1.000  O
  O143     1.0000 0.99801  0.21920  0.54307  Biso   1.000  O
  O144     1.0000 0.92678  0.21868  0.54154  Biso   1.000  O
  O145     1.0000 0.80700  0.56035  0.50839  Biso   1.000  O
  O146     1.0000 0.67686  0.41024  0.31604  Biso   1.000  O
  O147     1.0000 0.60632  0.28693  0.29119  Biso   1.000  O
  O148     1.0000 0.71002  0.37870  0.26994  Biso   1.000  O
  O149     1.0000 0.88600  0.60365  0.51565  Biso   1.000  O
  O150     1.0000 0.58484  0.28350  0.21534  Biso   1.000  O
  O151     1.0000 0.50199  0.04506  0.22119  Biso   1.000  O
  O152     1.0000 0.57322  0.11476  0.29190  Biso   1.000  O
  O153     1.0000 0.94804  0.93965  0.74665  Biso   1.000  O
  O154     1.0000 0.90580  0.08976  0.76662  Biso   1.000  O
  O155     1.0000 0.00426  0.21307  0.81939  Biso   1.000  O
  O156     1.0000 0.89124  0.12130  0.83132  Biso   1.000  O
  O157     1.0000 0.91200  0.89635  0.78235  Biso   1.000  O
  O158     1.0000 0.93184  0.21650  0.80134  Biso   1.000  O
  O159     1.0000 0.17613  0.45494  0.95693  Biso   1.000  O
  O160     1.0000 0.17714  0.38524  0.95846  Biso   1.000  O
  O161     1.0000 0.93965  0.24665  0.44804  Biso   1.000  O
  O162     1.0000 0.08976  0.26662  0.40580  Biso   1.000  O
  O163     1.0000 0.21307  0.31939  0.50426  Biso   1.000  O
  O164     1.0000 0.12130  0.33132  0.39124  Biso   1.000  O
  O165     1.0000 0.89635  0.28235  0.41200  Biso   1.000  O
  O166     1.0000 0.21650  0.30134  0.43184  Biso   1.000  O
  O167     1.0000 0.45494  0.45693  0.67613  Biso   1.000  O
  O168     1.0000 0.38524  0.45846  0.67714  Biso   1.000  O
  O169     1.0000 0.56035  0.00839  0.30700  Biso   1.000  O
  O170     1.0000 0.41024  0.81604  0.17686  Biso   1.000  O
  O171     1.0000 0.28693  0.79119  0.10632  Biso   1.000  O
  O172     1.0000 0.37870  0.76994  0.21002  Biso   1.000  O
  O173     1.0000 0.60365  0.01565  0.38600  Biso   1.000  O
  O174     1.0000 0.28350  0.71534  0.08484  Biso   1.000  O
  O175     1.0000 0.04506  0.72119  0.00199  Biso   1.000  O
  O176     1.0000 0.11476  0.79190  0.07322  Biso   1.000  O
  O177     1.0000 0.20139  0.25335  0.19300  Biso   1.000  O
  O178     1.0000 0.13918  0.23338  0.32314  Biso   1.000  O
  O179     1.0000 0.18487  0.18061  0.39368  Biso   1.000  O
  O180     1.0000 0.05992  0.16868  0.28998  Biso   1.000  O
  O181     1.0000 0.12965  0.21765  0.11400  Biso   1.000  O
  O182     1.0000 0.13050  0.19866  0.41516  Biso   1.000  O
  O183     1.0000 0.21920  0.04307  0.49801  Biso   1.000  O
  O184     1.0000 0.21868  0.04154  0.42678  Biso   1.000  O
  O185     1.0000 0.29861  0.49161  0.05196  Biso   1.000  O
  O186     1.0000 0.36082  0.68396  0.09420  Biso   1.000  O
  O187     1.0000 0.31513  0.70881  0.99574  Biso   1.000  O
  O188     1.0000 0.44008  0.73006  0.10876  Biso   1.000  O
  O189     1.0000 0.37035  0.48435  0.08800  Biso   1.000  O
  O190     1.0000 0.36950  0.78466  0.06816  Biso   1.000  O
  O191     1.0000 0.28080  0.77881  0.82387  Biso   1.000  O
  O192     1.0000 0.28132  0.70810  0.82286  Biso   1.000  O
