data_image0
_cell_length_a       26.388
_cell_length_b       29.72
_cell_length_c       29.72
_cell_angle_alpha    120
_cell_angle_beta     90
_cell_angle_gamma    90

_symmetry_space_group_name_H-M    P 1
_symmetry_int_tables_number       1

loop_
  _symmetry_equiv_pos_as_xyz
  'x, y, z'

loop_
  _atom_site_label
  _atom_site_occupancy
  _atom_site_fract_x
  _atom_site_fract_y
  _atom_site_fract_z
  _atom_site_thermal_displace_type
  _atom_site_B_iso_or_equiv
  _atom_site_type_symbol
  Cr1      1.0000 0.75000  0.00000  0.58370  Biso   1.000  Cr
  Cr2      1.0000 0.75000  0.58370  0.00000  Biso   1.000  Cr
  Cr3      1.0000 0.75000  0.41630  0.41630  Biso   1.000  Cr
  Cr4      1.0000 0.25000  0.00000  0.41630  Biso   1.000  Cr
  Cr5      1.0000 0.25000  0.41630  0.00000  Biso   1.000  Cr
  Cr6      1.0000 0.25000  0.58370  0.58370  Biso   1.000  Cr
  Cr7      1.0000 0.68800  0.00000  0.67810  Biso   1.000  Cr
  Cr8      1.0000 0.68800  0.67810  1.00000  Biso   1.000  Cr
  Cr9      1.0000 0.68800  0.32190  0.32190  Biso   1.000  Cr
  Cr10     1.0000 0.18800  0.00000  0.32190  Biso   1.000  Cr
  Cr11     1.0000 0.18800  0.32190  0.00000  Biso   1.000  Cr
  Cr12     1.0000 0.18800  0.67810  0.67810  Biso   1.000  Cr
  Cr13     1.0000 0.81200  0.32190  0.32190  Biso   1.000  Cr
  Cr14     1.0000 0.81200  0.67810  1.00000  Biso   1.000  Cr
  Cr15     1.0000 0.81200  0.00000  0.67810  Biso   1.000  Cr
  Cr16     1.0000 0.31200  0.67810  0.67810  Biso   1.000  Cr
  Cr17     1.0000 0.31200  0.32190  0.00000  Biso   1.000  Cr
  Cr18     1.0000 0.31200  0.00000  0.32190  Biso   1.000  Cr
  Cu1      1.0000 0.50000  0.76346  0.38173  Biso   1.000  Cu
  Cu2      1.0000 0.50000  0.61827  0.23654  Biso   1.000  Cu
  Cu3      1.0000 0.50000  0.61827  0.38173  Biso   1.000  Cu
  Cu4      1.0000 0.00000  0.23654  0.61827  Biso   1.000  Cu
  Cu5      1.0000 0.00000  0.38173  0.76346  Biso   1.000  Cu
  Cu6      1.0000 0.00000  0.38173  0.61827  Biso   1.000  Cu
  Cu7      1.0000 0.50000  0.23654  0.61827  Biso   1.000  Cu
  Cu8      1.0000 0.50000  0.38173  0.76346  Biso   1.000  Cu
  Cu9      1.0000 0.50000  0.38173  0.61827  Biso   1.000  Cu
  Cu10     1.0000 0.00000  0.76346  0.38173  Biso   1.000  Cu
  Cu11     1.0000 0.00000  0.61827  0.23654  Biso   1.000  Cu
  Cu12     1.0000 0.00000  0.61827  0.38173  Biso   1.000  Cu
  H1       1.0000 0.55310  0.73390  0.43270  Biso   1.000  H
  H2       1.0000 0.58570  0.73140  0.39090  Biso   1.000  H
  H3       1.0000 0.63730  0.80540  0.40550  Biso   1.000  H
  H4       1.0000 0.59540  0.87560  0.57680  Biso   1.000  H
  H5       1.0000 0.55080  0.80360  0.51560  Biso   1.000  H
  H6       1.0000 0.67290  0.88480  0.46550  Biso   1.000  H
  H7       1.0000 0.67370  0.78530  0.67370  Biso   1.000  H
  H8       1.0000 0.67360  0.86840  0.68380  Biso   1.000  H
  H9       1.0000 0.77890  0.70960  0.66440  Biso   1.000  H
  H10      1.0000 0.55310  0.69880  0.26610  Biso   1.000  H
  H11      1.0000 0.58570  0.65950  0.26860  Biso   1.000  H
  H12      1.0000 0.63730  0.60010  0.19460  Biso   1.000  H
  H13      1.0000 0.59540  0.70120  0.12440  Biso   1.000  H
  H14      1.0000 0.55080  0.71200  0.19640  Biso   1.000  H
  H15      1.0000 0.67290  0.58070  0.11520  Biso   1.000  H
  H16      1.0000 0.67370  0.88840  0.21470  Biso   1.000  H
  H17      1.0000 0.67360  0.81540  0.13160  Biso   1.000  H
  H18      1.0000 0.77890  0.95480  0.29040  Biso   1.000  H
  H19      1.0000 0.55310  0.56730  0.30120  Biso   1.000  H
  H20      1.0000 0.58570  0.60910  0.34050  Biso   1.000  H
  H21      1.0000 0.63730  0.59450  0.39990  Biso   1.000  H
  H22      1.0000 0.59540  0.42320  0.29880  Biso   1.000  H
  H23      1.0000 0.55080  0.48440  0.28800  Biso   1.000  H
  H24      1.0000 0.67290  0.53450  0.41930  Biso   1.000  H
  H25      1.0000 0.67370  0.32630  0.11160  Biso   1.000  H
  H26      1.0000 0.67360  0.31620  0.18460  Biso   1.000  H
  H27      1.0000 0.77890  0.33560  0.04520  Biso   1.000  H
  H28      1.0000 0.05310  0.26610  0.56730  Biso   1.000  H
  H29      1.0000 0.08570  0.26860  0.60910  Biso   1.000  H
  H30      1.0000 0.13730  0.19460  0.59450  Biso   1.000  H
  H31      1.0000 0.09540  0.12440  0.42320  Biso   1.000  H
  H32      1.0000 0.05080  0.19640  0.48440  Biso   1.000  H
  H33      1.0000 0.17290  0.11520  0.53450  Biso   1.000  H
  H34      1.0000 0.17370  0.21470  0.32630  Biso   1.000  H
  H35      1.0000 0.17360  0.13160  0.31620  Biso   1.000  H
  H36      1.0000 0.27890  0.29040  0.33560  Biso   1.000  H
  H37      1.0000 0.05310  0.30120  0.73390  Biso   1.000  H
  H38      1.0000 0.08570  0.34050  0.73140  Biso   1.000  H
  H39      1.0000 0.13730  0.39990  0.80540  Biso   1.000  H
  H40      1.0000 0.09540  0.29880  0.87560  Biso   1.000  H
  H41      1.0000 0.05080  0.28800  0.80360  Biso   1.000  H
  H42      1.0000 0.17290  0.41930  0.88480  Biso   1.000  H
  H43      1.0000 0.17370  0.11160  0.78530  Biso   1.000  H
  H44      1.0000 0.17360  0.18460  0.86840  Biso   1.000  H
  H45      1.0000 0.27890  0.04520  0.70960  Biso   1.000  H
  H46      1.0000 0.05310  0.43270  0.69880  Biso   1.000  H
  H47      1.0000 0.08570  0.39090  0.65950  Biso   1.000  H
  H48      1.0000 0.13730  0.40550  0.60010  Biso   1.000  H
  H49      1.0000 0.09540  0.57680  0.70120  Biso   1.000  H
  H50      1.0000 0.05080  0.51560  0.71200  Biso   1.000  H
  H51      1.0000 0.17290  0.46550  0.58070  Biso   1.000  H
  H52      1.0000 0.17370  0.67370  0.88840  Biso   1.000  H
  H53      1.0000 0.17360  0.68380  0.81540  Biso   1.000  H
  H54      1.0000 0.27890  0.66440  0.95480  Biso   1.000  H
  H55      1.0000 0.94690  0.30120  0.56730  Biso   1.000  H
  H56      1.0000 0.91430  0.34050  0.60910  Biso   1.000  H
  H57      1.0000 0.86270  0.39990  0.59450  Biso   1.000  H
  H58      1.0000 0.90460  0.29880  0.42320  Biso   1.000  H
  H59      1.0000 0.94920  0.28800  0.48440  Biso   1.000  H
  H60      1.0000 0.82710  0.41930  0.53450  Biso   1.000  H
  H61      1.0000 0.82630  0.11160  0.32630  Biso   1.000  H
  H62      1.0000 0.82640  0.18460  0.31620  Biso   1.000  H
  H63      1.0000 0.72110  0.04520  0.33560  Biso   1.000  H
  H64      1.0000 0.94690  0.43270  0.73390  Biso   1.000  H
  H65      1.0000 0.91430  0.39090  0.73140  Biso   1.000  H
  H66      1.0000 0.86270  0.40550  0.80540  Biso   1.000  H
  H67      1.0000 0.90460  0.57680  0.87560  Biso   1.000  H
  H68      1.0000 0.94920  0.51560  0.80360  Biso   1.000  H
  H69      1.0000 0.82710  0.46550  0.88480  Biso   1.000  H
  H70      1.0000 0.82630  0.67370  0.78530  Biso   1.000  H
  H71      1.0000 0.82640  0.68380  0.86840  Biso   1.000  H
  H72      1.0000 0.72110  0.66440  0.70960  Biso   1.000  H
  H73      1.0000 0.94690  0.26610  0.69880  Biso   1.000  H
  H74      1.0000 0.91430  0.26860  0.65950  Biso   1.000  H
  H75      1.0000 0.86270  0.19460  0.60010  Biso   1.000  H
  H76      1.0000 0.90460  0.12440  0.70120  Biso   1.000  H
  H77      1.0000 0.94920  0.19640  0.71200  Biso   1.000  H
  H78      1.0000 0.82710  0.11520  0.58070  Biso   1.000  H
  H79      1.0000 0.82630  0.21470  0.88840  Biso   1.000  H
  H80      1.0000 0.82640  0.13160  0.81540  Biso   1.000  H
  H81      1.0000 0.72110  0.29040  0.95480  Biso   1.000  H
  H82      1.0000 0.44690  0.69880  0.43270  Biso   1.000  H
  H83      1.0000 0.41430  0.65950  0.39090  Biso   1.000  H
  H84      1.0000 0.36270  0.60010  0.40550  Biso   1.000  H
  H85      1.0000 0.40460  0.70120  0.57680  Biso   1.000  H
  H86      1.0000 0.44920  0.71200  0.51560  Biso   1.000  H
  H87      1.0000 0.32710  0.58070  0.46550  Biso   1.000  H
  H88      1.0000 0.32630  0.88840  0.67370  Biso   1.000  H
  H89      1.0000 0.32640  0.81540  0.68380  Biso   1.000  H
  H90      1.0000 0.22110  0.95480  0.66440  Biso   1.000  H
  H91      1.0000 0.44690  0.56730  0.26610  Biso   1.000  H
  H92      1.0000 0.41430  0.60910  0.26860  Biso   1.000  H
  H93      1.0000 0.36270  0.59450  0.19460  Biso   1.000  H
  H94      1.0000 0.40460  0.42320  0.12440  Biso   1.000  H
  H95      1.0000 0.44920  0.48440  0.19640  Biso   1.000  H
  H96      1.0000 0.32710  0.53450  0.11520  Biso   1.000  H
  H97      1.0000 0.32630  0.32630  0.21470  Biso   1.000  H
  H98      1.0000 0.32640  0.31620  0.13160  Biso   1.000  H
  H99      1.0000 0.22110  0.33560  0.29040  Biso   1.000  H
  H100     1.0000 0.44690  0.73390  0.30120  Biso   1.000  H
  H101     1.0000 0.41430  0.73140  0.34050  Biso   1.000  H
  H102     1.0000 0.36270  0.80540  0.39990  Biso   1.000  H
  H103     1.0000 0.40460  0.87560  0.29880  Biso   1.000  H
  H104     1.0000 0.44920  0.80360  0.28800  Biso   1.000  H
  H105     1.0000 0.32710  0.88480  0.41930  Biso   1.000  H
  H106     1.0000 0.32630  0.78530  0.11160  Biso   1.000  H
  H107     1.0000 0.32640  0.86840  0.18460  Biso   1.000  H
  H108     1.0000 0.22110  0.70960  0.04520  Biso   1.000  H
  H109     1.0000 0.44690  0.26610  0.56730  Biso   1.000  H
  H110     1.0000 0.41430  0.26860  0.60910  Biso   1.000  H
  H111     1.0000 0.36270  0.19460  0.59450  Biso   1.000  H
  H112     1.0000 0.40460  0.12440  0.42320  Biso   1.000  H
  H113     1.0000 0.44920  0.19640  0.48440  Biso   1.000  H
  H114     1.0000 0.32710  0.11520  0.53450  Biso   1.000  H
  H115     1.0000 0.32630  0.21470  0.32630  Biso   1.000  H
  H116     1.0000 0.32640  0.13160  0.31620  Biso   1.000  H
  H117     1.0000 0.22110  0.29040  0.33560  Biso   1.000  H
  H118     1.0000 0.44690  0.30120  0.73390  Biso   1.000  H
  H119     1.0000 0.41430  0.34050  0.73140  Biso   1.000  H
  H120     1.0000 0.36270  0.39990  0.80540  Biso   1.000  H
  H121     1.0000 0.40460  0.29880  0.87560  Biso   1.000  H
  H122     1.0000 0.44920  0.28800  0.80360  Biso   1.000  H
  H123     1.0000 0.32710  0.41930  0.88480  Biso   1.000  H
  H124     1.0000 0.32630  0.11160  0.78530  Biso   1.000  H
  H125     1.0000 0.32640  0.18460  0.86840  Biso   1.000  H
  H126     1.0000 0.22110  0.04520  0.70960  Biso   1.000  H
  H127     1.0000 0.44690  0.43270  0.69880  Biso   1.000  H
  H128     1.0000 0.41430  0.39090  0.65950  Biso   1.000  H
  H129     1.0000 0.36270  0.40550  0.60010  Biso   1.000  H
  H130     1.0000 0.40460  0.57680  0.70120  Biso   1.000  H
  H131     1.0000 0.44920  0.51560  0.71200  Biso   1.000  H
  H132     1.0000 0.32710  0.46550  0.58070  Biso   1.000  H
  H133     1.0000 0.32630  0.67370  0.88840  Biso   1.000  H
  H134     1.0000 0.32640  0.68380  0.81540  Biso   1.000  H
  H135     1.0000 0.22110  0.66440  0.95480  Biso   1.000  H
  H136     1.0000 0.94690  0.73390  0.43270  Biso   1.000  H
  H137     1.0000 0.91430  0.73140  0.39090  Biso   1.000  H
  H138     1.0000 0.86270  0.80540  0.40550  Biso   1.000  H
  H139     1.0000 0.90460  0.87560  0.57680  Biso   1.000  H
  H140     1.0000 0.94920  0.80360  0.51560  Biso   1.000  H
  H141     1.0000 0.82710  0.88480  0.46550  Biso   1.000  H
  H142     1.0000 0.82630  0.78530  0.67370  Biso   1.000  H
  H143     1.0000 0.82640  0.86840  0.68380  Biso   1.000  H
  H144     1.0000 0.72110  0.70960  0.66440  Biso   1.000  H
  H145     1.0000 0.94690  0.69880  0.26610  Biso   1.000  H
  H146     1.0000 0.91430  0.65950  0.26860  Biso   1.000  H
  H147     1.0000 0.86270  0.60010  0.19460  Biso   1.000  H
  H148     1.0000 0.90460  0.70120  0.12440  Biso   1.000  H
  H149     1.0000 0.94920  0.71200  0.19640  Biso   1.000  H
  H150     1.0000 0.82710  0.58070  0.11520  Biso   1.000  H
  H151     1.0000 0.82630  0.88840  0.21470  Biso   1.000  H
  H152     1.0000 0.82640  0.81540  0.13160  Biso   1.000  H
  H153     1.0000 0.72110  0.95480  0.29040  Biso   1.000  H
  H154     1.0000 0.94690  0.56730  0.30120  Biso   1.000  H
  H155     1.0000 0.91430  0.60910  0.34050  Biso   1.000  H
  H156     1.0000 0.86270  0.59450  0.39990  Biso   1.000  H
  H157     1.0000 0.90460  0.42320  0.29880  Biso   1.000  H
  H158     1.0000 0.94920  0.48440  0.28800  Biso   1.000  H
  H159     1.0000 0.82710  0.53450  0.41930  Biso   1.000  H
  H160     1.0000 0.82630  0.32630  0.11160  Biso   1.000  H
  H161     1.0000 0.82640  0.31620  0.18460  Biso   1.000  H
  H162     1.0000 0.72110  0.33560  0.04520  Biso   1.000  H
  H163     1.0000 0.05310  0.69880  0.43270  Biso   1.000  H
  H164     1.0000 0.08570  0.65950  0.39090  Biso   1.000  H
  H165     1.0000 0.13730  0.60010  0.40550  Biso   1.000  H
  H166     1.0000 0.09540  0.70120  0.57680  Biso   1.000  H
  H167     1.0000 0.05080  0.71200  0.51560  Biso   1.000  H
  H168     1.0000 0.17290  0.58070  0.46550  Biso   1.000  H
  H169     1.0000 0.17370  0.88840  0.67370  Biso   1.000  H
  H170     1.0000 0.17360  0.81540  0.68380  Biso   1.000  H
  H171     1.0000 0.27890  0.95480  0.66440  Biso   1.000  H
  H172     1.0000 0.05310  0.56730  0.26610  Biso   1.000  H
  H173     1.0000 0.08570  0.60910  0.26860  Biso   1.000  H
  H174     1.0000 0.13730  0.59450  0.19460  Biso   1.000  H
  H175     1.0000 0.09540  0.42320  0.12440  Biso   1.000  H
  H176     1.0000 0.05080  0.48440  0.19640  Biso   1.000  H
  H177     1.0000 0.17290  0.53450  0.11520  Biso   1.000  H
  H178     1.0000 0.17370  0.32630  0.21470  Biso   1.000  H
  H179     1.0000 0.17360  0.31620  0.13160  Biso   1.000  H
  H180     1.0000 0.27890  0.33560  0.29040  Biso   1.000  H
  H181     1.0000 0.05310  0.73390  0.30120  Biso   1.000  H
  H182     1.0000 0.08570  0.73140  0.34050  Biso   1.000  H
  H183     1.0000 0.13730  0.80540  0.39990  Biso   1.000  H
  H184     1.0000 0.09540  0.87560  0.29880  Biso   1.000  H
  H185     1.0000 0.05080  0.80360  0.28800  Biso   1.000  H
  H186     1.0000 0.17290  0.88480  0.41930  Biso   1.000  H
  H187     1.0000 0.17370  0.78530  0.11160  Biso   1.000  H
  H188     1.0000 0.17360  0.86840  0.18460  Biso   1.000  H
  H189     1.0000 0.27890  0.70960  0.04520  Biso   1.000  H
  H190     1.0000 0.55310  0.30120  0.56730  Biso   1.000  H
  H191     1.0000 0.58570  0.34050  0.60910  Biso   1.000  H
  H192     1.0000 0.63730  0.39990  0.59450  Biso   1.000  H
  H193     1.0000 0.59540  0.29880  0.42320  Biso   1.000  H
  H194     1.0000 0.55080  0.28800  0.48440  Biso   1.000  H
  H195     1.0000 0.67290  0.41930  0.53450  Biso   1.000  H
  H196     1.0000 0.67370  0.11160  0.32630  Biso   1.000  H
  H197     1.0000 0.67360  0.18460  0.31620  Biso   1.000  H
  H198     1.0000 0.77890  0.04520  0.33560  Biso   1.000  H
  H199     1.0000 0.55310  0.43270  0.73390  Biso   1.000  H
  H200     1.0000 0.58570  0.39090  0.73140  Biso   1.000  H
  H201     1.0000 0.63730  0.40550  0.80540  Biso   1.000  H
  H202     1.0000 0.59540  0.57680  0.87560  Biso   1.000  H
  H203     1.0000 0.55080  0.51560  0.80360  Biso   1.000  H
  H204     1.0000 0.67290  0.46550  0.88480  Biso   1.000  H
  H205     1.0000 0.67370  0.67370  0.78530  Biso   1.000  H
  H206     1.0000 0.67360  0.68380  0.86840  Biso   1.000  H
  H207     1.0000 0.77890  0.66440  0.70960  Biso   1.000  H
  H208     1.0000 0.55310  0.26610  0.69880  Biso   1.000  H
  H209     1.0000 0.58570  0.26860  0.65950  Biso   1.000  H
  H210     1.0000 0.63730  0.19460  0.60010  Biso   1.000  H
  H211     1.0000 0.59540  0.12440  0.70120  Biso   1.000  H
  H212     1.0000 0.55080  0.19640  0.71200  Biso   1.000  H
  H213     1.0000 0.67290  0.11520  0.58070  Biso   1.000  H
  H214     1.0000 0.67370  0.21470  0.88840  Biso   1.000  H
  H215     1.0000 0.67360  0.13160  0.81540  Biso   1.000  H
  H216     1.0000 0.77890  0.29040  0.95480  Biso   1.000  H
  C1       1.0000 0.58930  0.79960  0.45470  Biso   1.000  C
  C2       1.0000 0.62710  0.82180  0.44090  Biso   1.000  C
  C3       1.0000 0.64130  0.88420  0.52790  Biso   1.000  C
  C4       1.0000 0.60350  0.86130  0.54110  Biso   1.000  C
  C5       1.0000 0.57670  0.81880  0.50540  Biso   1.000  C
  C6       1.0000 0.65090  0.86660  0.47610  Biso   1.000  C
  C7       1.0000 0.66970  0.92990  0.56820  Biso   1.000  C
  C8       1.0000 0.70480  0.80240  0.67580  Biso   1.000  C
  C9       1.0000 0.70500  0.85180  0.68180  Biso   1.000  C
  C10      1.0000 0.58930  0.65510  0.20040  Biso   1.000  C
  C11      1.0000 0.62710  0.61910  0.17820  Biso   1.000  C
  C12      1.0000 0.64130  0.64370  0.11580  Biso   1.000  C
  C13      1.0000 0.60350  0.67980  0.13870  Biso   1.000  C
  C14      1.0000 0.57670  0.68660  0.18120  Biso   1.000  C
  C15      1.0000 0.65090  0.60950  0.13340  Biso   1.000  C
  C16      1.0000 0.66970  0.63830  0.07010  Biso   1.000  C
  C17      1.0000 0.70480  0.87340  0.19760  Biso   1.000  C
  C18      1.0000 0.70500  0.83000  0.14820  Biso   1.000  C
  C19      1.0000 0.58930  0.54530  0.34490  Biso   1.000  C
  C20      1.0000 0.62710  0.55910  0.38090  Biso   1.000  C
  C21      1.0000 0.64130  0.47210  0.35630  Biso   1.000  C
  C22      1.0000 0.60350  0.45890  0.32020  Biso   1.000  C
  C23      1.0000 0.57670  0.49460  0.31340  Biso   1.000  C
  C24      1.0000 0.65090  0.52390  0.39050  Biso   1.000  C
  C25      1.0000 0.66970  0.43180  0.36170  Biso   1.000  C
  C26      1.0000 0.70480  0.32420  0.12660  Biso   1.000  C
  C27      1.0000 0.70500  0.31820  0.17000  Biso   1.000  C
  C28      1.0000 0.08930  0.20040  0.54530  Biso   1.000  C
  C29      1.0000 0.12710  0.17820  0.55910  Biso   1.000  C
  C30      1.0000 0.14130  0.11580  0.47210  Biso   1.000  C
  C31      1.0000 0.10350  0.13870  0.45890  Biso   1.000  C
  C32      1.0000 0.07670  0.18120  0.49460  Biso   1.000  C
  C33      1.0000 0.15090  0.13340  0.52390  Biso   1.000  C
  C34      1.0000 0.16970  0.07010  0.43180  Biso   1.000  C
  C35      1.0000 0.20480  0.19760  0.32420  Biso   1.000  C
  C36      1.0000 0.20500  0.14820  0.31820  Biso   1.000  C
  C37      1.0000 0.08930  0.34490  0.79960  Biso   1.000  C
  C38      1.0000 0.12710  0.38090  0.82180  Biso   1.000  C
  C39      1.0000 0.14130  0.35630  0.88420  Biso   1.000  C
  C40      1.0000 0.10350  0.32020  0.86130  Biso   1.000  C
  C41      1.0000 0.07670  0.31340  0.81880  Biso   1.000  C
  C42      1.0000 0.15090  0.39050  0.86660  Biso   1.000  C
  C43      1.0000 0.16970  0.36170  0.92990  Biso   1.000  C
  C44      1.0000 0.20480  0.12660  0.80240  Biso   1.000  C
  C45      1.0000 0.20500  0.17000  0.85180  Biso   1.000  C
  C46      1.0000 0.08930  0.45470  0.65510  Biso   1.000  C
  C47      1.0000 0.12710  0.44090  0.61910  Biso   1.000  C
  C48      1.0000 0.14130  0.52790  0.64370  Biso   1.000  C
  C49      1.0000 0.10350  0.54110  0.67980  Biso   1.000  C
  C50      1.0000 0.07670  0.50540  0.68660  Biso   1.000  C
  C51      1.0000 0.15090  0.47610  0.60950  Biso   1.000  C
  C52      1.0000 0.16970  0.56820  0.63830  Biso   1.000  C
  C53      1.0000 0.20480  0.67580  0.87340  Biso   1.000  C
  C54      1.0000 0.20500  0.68180  0.83000  Biso   1.000  C
  C55      1.0000 0.91070  0.34490  0.54530  Biso   1.000  C
  C56      1.0000 0.87290  0.38090  0.55910  Biso   1.000  C
  C57      1.0000 0.85870  0.35630  0.47210  Biso   1.000  C
  C58      1.0000 0.89650  0.32020  0.45890  Biso   1.000  C
  C59      1.0000 0.92330  0.31340  0.49460  Biso   1.000  C
  C60      1.0000 0.84910  0.39050  0.52390  Biso   1.000  C
  C61      1.0000 0.83030  0.36170  0.43180  Biso   1.000  C
  C62      1.0000 0.79520  0.12660  0.32420  Biso   1.000  C
  C63      1.0000 0.79500  0.17000  0.31820  Biso   1.000  C
  C64      1.0000 0.91070  0.45470  0.79960  Biso   1.000  C
  C65      1.0000 0.87290  0.44090  0.82180  Biso   1.000  C
  C66      1.0000 0.85870  0.52790  0.88420  Biso   1.000  C
  C67      1.0000 0.89650  0.54110  0.86130  Biso   1.000  C
  C68      1.0000 0.92330  0.50540  0.81880  Biso   1.000  C
  C69      1.0000 0.84910  0.47610  0.86660  Biso   1.000  C
  C70      1.0000 0.83030  0.56820  0.92990  Biso   1.000  C
  C71      1.0000 0.79520  0.67580  0.80240  Biso   1.000  C
  C72      1.0000 0.79500  0.68180  0.85180  Biso   1.000  C
  C73      1.0000 0.91070  0.20040  0.65510  Biso   1.000  C
  C74      1.0000 0.87290  0.17820  0.61910  Biso   1.000  C
  C75      1.0000 0.85870  0.11580  0.64370  Biso   1.000  C
  C76      1.0000 0.89650  0.13870  0.67980  Biso   1.000  C
  C77      1.0000 0.92330  0.18120  0.68660  Biso   1.000  C
  C78      1.0000 0.84910  0.13340  0.60950  Biso   1.000  C
  C79      1.0000 0.83030  0.07010  0.63830  Biso   1.000  C
  C80      1.0000 0.79520  0.19760  0.87340  Biso   1.000  C
  C81      1.0000 0.79500  0.14820  0.83000  Biso   1.000  C
  C82      1.0000 0.41070  0.65510  0.45470  Biso   1.000  C
  C83      1.0000 0.37290  0.61910  0.44090  Biso   1.000  C
  C84      1.0000 0.35870  0.64370  0.52790  Biso   1.000  C
  C85      1.0000 0.39650  0.67980  0.54110  Biso   1.000  C
  C86      1.0000 0.42330  0.68660  0.50540  Biso   1.000  C
  C87      1.0000 0.34910  0.60950  0.47610  Biso   1.000  C
  C88      1.0000 0.33030  0.63830  0.56820  Biso   1.000  C
  C89      1.0000 0.29520  0.87340  0.67580  Biso   1.000  C
  C90      1.0000 0.29500  0.83000  0.68180  Biso   1.000  C
  C91      1.0000 0.41070  0.54530  0.20040  Biso   1.000  C
  C92      1.0000 0.37290  0.55910  0.17820  Biso   1.000  C
  C93      1.0000 0.35870  0.47210  0.11580  Biso   1.000  C
  C94      1.0000 0.39650  0.45890  0.13870  Biso   1.000  C
  C95      1.0000 0.42330  0.49460  0.18120  Biso   1.000  C
  C96      1.0000 0.34910  0.52390  0.13340  Biso   1.000  C
  C97      1.0000 0.33030  0.43180  0.07010  Biso   1.000  C
  C98      1.0000 0.29520  0.32420  0.19760  Biso   1.000  C
  C99      1.0000 0.29500  0.31820  0.14820  Biso   1.000  C
  C100     1.0000 0.41070  0.79960  0.34490  Biso   1.000  C
  C101     1.0000 0.37290  0.82180  0.38090  Biso   1.000  C
  C102     1.0000 0.35870  0.88420  0.35630  Biso   1.000  C
  C103     1.0000 0.39650  0.86130  0.32020  Biso   1.000  C
  C104     1.0000 0.42330  0.81880  0.31340  Biso   1.000  C
  C105     1.0000 0.34910  0.86660  0.39050  Biso   1.000  C
  C106     1.0000 0.33030  0.92990  0.36170  Biso   1.000  C
  C107     1.0000 0.29520  0.80240  0.12660  Biso   1.000  C
  C108     1.0000 0.29500  0.85180  0.17000  Biso   1.000  C
  C109     1.0000 0.41070  0.20040  0.54530  Biso   1.000  C
  C110     1.0000 0.37290  0.17820  0.55910  Biso   1.000  C
  C111     1.0000 0.35870  0.11580  0.47210  Biso   1.000  C
  C112     1.0000 0.39650  0.13870  0.45890  Biso   1.000  C
  C113     1.0000 0.42330  0.18120  0.49460  Biso   1.000  C
  C114     1.0000 0.34910  0.13340  0.52390  Biso   1.000  C
  C115     1.0000 0.33030  0.07010  0.43180  Biso   1.000  C
  C116     1.0000 0.29520  0.19760  0.32420  Biso   1.000  C
  C117     1.0000 0.29500  0.14820  0.31820  Biso   1.000  C
  C118     1.0000 0.41070  0.34490  0.79960  Biso   1.000  C
  C119     1.0000 0.37290  0.38090  0.82180  Biso   1.000  C
  C120     1.0000 0.35870  0.35630  0.88420  Biso   1.000  C
  C121     1.0000 0.39650  0.32020  0.86130  Biso   1.000  C
  C122     1.0000 0.42330  0.31340  0.81880  Biso   1.000  C
  C123     1.0000 0.34910  0.39050  0.86660  Biso   1.000  C
  C124     1.0000 0.33030  0.36170  0.92990  Biso   1.000  C
  C125     1.0000 0.29520  0.12660  0.80240  Biso   1.000  C
  C126     1.0000 0.29500  0.17000  0.85180  Biso   1.000  C
  C127     1.0000 0.41070  0.45470  0.65510  Biso   1.000  C
  C128     1.0000 0.37290  0.44090  0.61910  Biso   1.000  C
  C129     1.0000 0.35870  0.52790  0.64370  Biso   1.000  C
  C130     1.0000 0.39650  0.54110  0.67980  Biso   1.000  C
  C131     1.0000 0.42330  0.50540  0.68660  Biso   1.000  C
  C132     1.0000 0.34910  0.47610  0.60950  Biso   1.000  C
  C133     1.0000 0.33030  0.56820  0.63830  Biso   1.000  C
  C134     1.0000 0.29520  0.67580  0.87340  Biso   1.000  C
  C135     1.0000 0.29500  0.68180  0.83000  Biso   1.000  C
  C136     1.0000 0.91070  0.79960  0.45470  Biso   1.000  C
  C137     1.0000 0.87290  0.82180  0.44090  Biso   1.000  C
  C138     1.0000 0.85870  0.88420  0.52790  Biso   1.000  C
  C139     1.0000 0.89650  0.86130  0.54110  Biso   1.000  C
  C140     1.0000 0.92330  0.81880  0.50540  Biso   1.000  C
  C141     1.0000 0.84910  0.86660  0.47610  Biso   1.000  C
  C142     1.0000 0.83030  0.92990  0.56820  Biso   1.000  C
  C143     1.0000 0.79520  0.80240  0.67580  Biso   1.000  C
  C144     1.0000 0.79500  0.85180  0.68180  Biso   1.000  C
  C145     1.0000 0.91070  0.65510  0.20040  Biso   1.000  C
  C146     1.0000 0.87290  0.61910  0.17820  Biso   1.000  C
  C147     1.0000 0.85870  0.64370  0.11580  Biso   1.000  C
  C148     1.0000 0.89650  0.67980  0.13870  Biso   1.000  C
  C149     1.0000 0.92330  0.68660  0.18120  Biso   1.000  C
  C150     1.0000 0.84910  0.60950  0.13340  Biso   1.000  C
  C151     1.0000 0.83030  0.63830  0.07010  Biso   1.000  C
  C152     1.0000 0.79520  0.87340  0.19760  Biso   1.000  C
  C153     1.0000 0.79500  0.83000  0.14820  Biso   1.000  C
  C154     1.0000 0.91070  0.54530  0.34490  Biso   1.000  C
  C155     1.0000 0.87290  0.55910  0.38090  Biso   1.000  C
  C156     1.0000 0.85870  0.47210  0.35630  Biso   1.000  C
  C157     1.0000 0.89650  0.45890  0.32020  Biso   1.000  C
  C158     1.0000 0.92330  0.49460  0.31340  Biso   1.000  C
  C159     1.0000 0.84910  0.52390  0.39050  Biso   1.000  C
  C160     1.0000 0.83030  0.43180  0.36170  Biso   1.000  C
  C161     1.0000 0.79520  0.32420  0.12660  Biso   1.000  C
  C162     1.0000 0.79500  0.31820  0.17000  Biso   1.000  C
  C163     1.0000 0.08930  0.65510  0.45470  Biso   1.000  C
  C164     1.0000 0.12710  0.61910  0.44090  Biso   1.000  C
  C165     1.0000 0.14130  0.64370  0.52790  Biso   1.000  C
  C166     1.0000 0.10350  0.67980  0.54110  Biso   1.000  C
  C167     1.0000 0.07670  0.68660  0.50540  Biso   1.000  C
  C168     1.0000 0.15090  0.60950  0.47610  Biso   1.000  C
  C169     1.0000 0.16970  0.63830  0.56820  Biso   1.000  C
  C170     1.0000 0.20480  0.87340  0.67580  Biso   1.000  C
  C171     1.0000 0.20500  0.83000  0.68180  Biso   1.000  C
  C172     1.0000 0.08930  0.54530  0.20040  Biso   1.000  C
  C173     1.0000 0.12710  0.55910  0.17820  Biso   1.000  C
  C174     1.0000 0.14130  0.47210  0.11580  Biso   1.000  C
  C175     1.0000 0.10350  0.45890  0.13870  Biso   1.000  C
  C176     1.0000 0.07670  0.49460  0.18120  Biso   1.000  C
  C177     1.0000 0.15090  0.52390  0.13340  Biso   1.000  C
  C178     1.0000 0.16970  0.43180  0.07010  Biso   1.000  C
  C179     1.0000 0.20480  0.32420  0.19760  Biso   1.000  C
  C180     1.0000 0.20500  0.31820  0.14820  Biso   1.000  C
  C181     1.0000 0.08930  0.79960  0.34490  Biso   1.000  C
  C182     1.0000 0.12710  0.82180  0.38090  Biso   1.000  C
  C183     1.0000 0.14130  0.88420  0.35630  Biso   1.000  C
  C184     1.0000 0.10350  0.86130  0.32020  Biso   1.000  C
  C185     1.0000 0.07670  0.81880  0.31340  Biso   1.000  C
  C186     1.0000 0.15090  0.86660  0.39050  Biso   1.000  C
  C187     1.0000 0.16970  0.92990  0.36170  Biso   1.000  C
  C188     1.0000 0.20480  0.80240  0.12660  Biso   1.000  C
  C189     1.0000 0.20500  0.85180  0.17000  Biso   1.000  C
  C190     1.0000 0.58930  0.34490  0.54530  Biso   1.000  C
  C191     1.0000 0.62710  0.38090  0.55910  Biso   1.000  C
  C192     1.0000 0.64130  0.35630  0.47210  Biso   1.000  C
  C193     1.0000 0.60350  0.32020  0.45890  Biso   1.000  C
  C194     1.0000 0.57670  0.31340  0.49460  Biso   1.000  C
  C195     1.0000 0.65090  0.39050  0.52390  Biso   1.000  C
  C196     1.0000 0.66970  0.36170  0.43180  Biso   1.000  C
  C197     1.0000 0.70480  0.12660  0.32420  Biso   1.000  C
  C198     1.0000 0.70500  0.17000  0.31820  Biso   1.000  C
  C199     1.0000 0.58930  0.45470  0.79960  Biso   1.000  C
  C200     1.0000 0.62710  0.44090  0.82180  Biso   1.000  C
  C201     1.0000 0.64130  0.52790  0.88420  Biso   1.000  C
  C202     1.0000 0.60350  0.54110  0.86130  Biso   1.000  C
  C203     1.0000 0.57670  0.50540  0.81880  Biso   1.000  C
  C204     1.0000 0.65090  0.47610  0.86660  Biso   1.000  C
  C205     1.0000 0.66970  0.56820  0.92990  Biso   1.000  C
  C206     1.0000 0.70480  0.67580  0.80240  Biso   1.000  C
  C207     1.0000 0.70500  0.68180  0.85180  Biso   1.000  C
  C208     1.0000 0.58930  0.20040  0.65510  Biso   1.000  C
  C209     1.0000 0.62710  0.17820  0.61910  Biso   1.000  C
  C210     1.0000 0.64130  0.11580  0.64370  Biso   1.000  C
  C211     1.0000 0.60350  0.13870  0.67980  Biso   1.000  C
  C212     1.0000 0.57670  0.18120  0.68660  Biso   1.000  C
  C213     1.0000 0.65090  0.13340  0.60950  Biso   1.000  C
  C214     1.0000 0.66970  0.07010  0.63830  Biso   1.000  C
  C215     1.0000 0.70480  0.19760  0.87340  Biso   1.000  C
  C216     1.0000 0.70500  0.14820  0.83000  Biso   1.000  C
  C217     1.0000 0.75000  0.93100  0.69170  Biso   1.000  C
  C218     1.0000 0.75000  0.87760  0.68490  Biso   1.000  C
  C219     1.0000 0.75000  0.77850  0.67290  Biso   1.000  C
  C220     1.0000 0.75000  0.76070  0.06900  Biso   1.000  C
  C221     1.0000 0.75000  0.80730  0.12240  Biso   1.000  C
  C222     1.0000 0.75000  0.89440  0.22150  Biso   1.000  C
  C223     1.0000 0.75000  0.30830  0.23930  Biso   1.000  C
  C224     1.0000 0.75000  0.31510  0.19270  Biso   1.000  C
  C225     1.0000 0.75000  0.32710  0.10560  Biso   1.000  C
  C226     1.0000 0.25000  0.06900  0.30830  Biso   1.000  C
  C227     1.0000 0.25000  0.12240  0.31510  Biso   1.000  C
  C228     1.0000 0.25000  0.22150  0.32710  Biso   1.000  C
  C229     1.0000 0.25000  0.23930  0.93100  Biso   1.000  C
  C230     1.0000 0.25000  0.19270  0.87760  Biso   1.000  C
  C231     1.0000 0.25000  0.10560  0.77850  Biso   1.000  C
  C232     1.0000 0.25000  0.69170  0.76070  Biso   1.000  C
  C233     1.0000 0.25000  0.68490  0.80730  Biso   1.000  C
  C234     1.0000 0.25000  0.67290  0.89440  Biso   1.000  C
  C235     1.0000 0.75000  0.23930  0.30830  Biso   1.000  C
  C236     1.0000 0.75000  0.19270  0.31510  Biso   1.000  C
  C237     1.0000 0.75000  0.10560  0.32710  Biso   1.000  C
  C238     1.0000 0.75000  0.69170  0.93100  Biso   1.000  C
  C239     1.0000 0.75000  0.68490  0.87760  Biso   1.000  C
  C240     1.0000 0.75000  0.67290  0.77850  Biso   1.000  C
  C241     1.0000 0.75000  0.06900  0.76070  Biso   1.000  C
  C242     1.0000 0.75000  0.12240  0.80730  Biso   1.000  C
  C243     1.0000 0.75000  0.22150  0.89440  Biso   1.000  C
  C244     1.0000 0.25000  0.76070  0.69170  Biso   1.000  C
  C245     1.0000 0.25000  0.80730  0.68490  Biso   1.000  C
  C246     1.0000 0.25000  0.89440  0.67290  Biso   1.000  C
  C247     1.0000 0.25000  0.30830  0.06900  Biso   1.000  C
  C248     1.0000 0.25000  0.31510  0.12240  Biso   1.000  C
  C249     1.0000 0.25000  0.32710  0.22150  Biso   1.000  C
  C250     1.0000 0.25000  0.93100  0.23930  Biso   1.000  C
  C251     1.0000 0.25000  0.87760  0.19270  Biso   1.000  C
  C252     1.0000 0.25000  0.77850  0.10560  Biso   1.000  C
  N1       1.0000 0.56300  0.75190  0.41650  Biso   1.000  N
  N2       1.0000 0.56300  0.66460  0.24810  Biso   1.000  N
  N3       1.0000 0.56300  0.58350  0.33540  Biso   1.000  N
  N4       1.0000 0.06300  0.24810  0.58350  Biso   1.000  N
  N5       1.0000 0.06300  0.33540  0.75190  Biso   1.000  N
  N6       1.0000 0.06300  0.41650  0.66460  Biso   1.000  N
  N7       1.0000 0.93700  0.33540  0.58350  Biso   1.000  N
  N8       1.0000 0.93700  0.41650  0.75190  Biso   1.000  N
  N9       1.0000 0.93700  0.24810  0.66460  Biso   1.000  N
  N10      1.0000 0.43700  0.66460  0.41650  Biso   1.000  N
  N11      1.0000 0.43700  0.58350  0.24810  Biso   1.000  N
  N12      1.0000 0.43700  0.75190  0.33540  Biso   1.000  N
  N13      1.0000 0.43700  0.24810  0.58350  Biso   1.000  N
  N14      1.0000 0.43700  0.33540  0.75190  Biso   1.000  N
  N15      1.0000 0.43700  0.41650  0.66460  Biso   1.000  N
  N16      1.0000 0.93700  0.75190  0.41650  Biso   1.000  N
  N17      1.0000 0.93700  0.66460  0.24810  Biso   1.000  N
  N18      1.0000 0.93700  0.58350  0.33540  Biso   1.000  N
  N19      1.0000 0.06300  0.66460  0.41650  Biso   1.000  N
  N20      1.0000 0.06300  0.58350  0.24810  Biso   1.000  N
  N21      1.0000 0.06300  0.75190  0.33540  Biso   1.000  N
  N22      1.0000 0.56300  0.33540  0.58350  Biso   1.000  N
  N23      1.0000 0.56300  0.41650  0.75190  Biso   1.000  N
  N24      1.0000 0.56300  0.24810  0.66460  Biso   1.000  N
  N25      1.0000 0.75000  0.72500  0.66600  Biso   1.000  N
  N26      1.0000 0.75000  0.94100  0.27500  Biso   1.000  N
  N27      1.0000 0.75000  0.33400  0.05900  Biso   1.000  N
  N28      1.0000 0.25000  0.27500  0.33400  Biso   1.000  N
  N29      1.0000 0.25000  0.05900  0.72500  Biso   1.000  N
  N30      1.0000 0.25000  0.66600  0.94100  Biso   1.000  N
  N31      1.0000 0.75000  0.05900  0.33400  Biso   1.000  N
  N32      1.0000 0.75000  0.66600  0.72500  Biso   1.000  N
  N33      1.0000 0.75000  0.27500  0.94100  Biso   1.000  N
  N34      1.0000 0.25000  0.94100  0.66600  Biso   1.000  N
  N35      1.0000 0.25000  0.33400  0.27500  Biso   1.000  N
  N36      1.0000 0.25000  0.72500  0.05900  Biso   1.000  N
  Cl1      1.0000 0.45380  0.78640  0.45530  Biso   1.000  Cl
  Cl2      1.0000 0.45380  0.66890  0.21360  Biso   1.000  Cl
  Cl3      1.0000 0.45380  0.54470  0.33110  Biso   1.000  Cl
  Cl4      1.0000 0.95380  0.21360  0.54470  Biso   1.000  Cl
  Cl5      1.0000 0.95380  0.33110  0.78640  Biso   1.000  Cl
  Cl6      1.0000 0.95380  0.45530  0.66890  Biso   1.000  Cl
  Cl7      1.0000 0.04620  0.33110  0.54470  Biso   1.000  Cl
  Cl8      1.0000 0.04620  0.45530  0.78640  Biso   1.000  Cl
  Cl9      1.0000 0.04620  0.21360  0.66890  Biso   1.000  Cl
  Cl10     1.0000 0.54620  0.66890  0.45530  Biso   1.000  Cl
  Cl11     1.0000 0.54620  0.54470  0.21360  Biso   1.000  Cl
  Cl12     1.0000 0.54620  0.78640  0.33110  Biso   1.000  Cl
  Cl13     1.0000 0.54620  0.21360  0.54470  Biso   1.000  Cl
  Cl14     1.0000 0.54620  0.33110  0.78640  Biso   1.000  Cl
  Cl15     1.0000 0.54620  0.45530  0.66890  Biso   1.000  Cl
  Cl16     1.0000 0.04620  0.78640  0.45530  Biso   1.000  Cl
  Cl17     1.0000 0.04620  0.66890  0.21360  Biso   1.000  Cl
  Cl18     1.0000 0.04620  0.54470  0.33110  Biso   1.000  Cl
  Cl19     1.0000 0.95380  0.66890  0.45530  Biso   1.000  Cl
  Cl20     1.0000 0.95380  0.54470  0.21360  Biso   1.000  Cl
  Cl21     1.0000 0.95380  0.78640  0.33110  Biso   1.000  Cl
  Cl22     1.0000 0.45380  0.33110  0.54470  Biso   1.000  Cl
  Cl23     1.0000 0.45380  0.45530  0.78640  Biso   1.000  Cl
  Cl24     1.0000 0.45380  0.21360  0.66890  Biso   1.000  Cl
  Cl25     1.0000 0.50000  0.66667  0.33334  Biso   1.000  Cl
  Cl26     1.0000 0.00000  0.33333  0.66666  Biso   1.000  Cl
  Cl27     1.0000 0.50000  0.33333  0.66666  Biso   1.000  Cl
  Cl28     1.0000 0.00000  0.66667  0.33334  Biso   1.000  Cl
  O1       1.0000 0.70290  0.94790  0.55170  Biso   1.000  O
  O2       1.0000 0.65840  0.94620  0.61430  Biso   1.000  O
  O3       1.0000 0.70460  0.94780  0.69230  Biso   1.000  O
  O4       1.0000 0.70290  0.60380  0.05210  Biso   1.000  O
  O5       1.0000 0.65840  0.66810  0.05380  Biso   1.000  O
  O6       1.0000 0.70460  0.74450  0.05220  Biso   1.000  O
  O7       1.0000 0.70290  0.44830  0.39620  Biso   1.000  O
  O8       1.0000 0.65840  0.38570  0.33190  Biso   1.000  O
  O9       1.0000 0.70460  0.30770  0.25550  Biso   1.000  O
  O10      1.0000 0.20290  0.05210  0.44830  Biso   1.000  O
  O11      1.0000 0.15840  0.05380  0.38570  Biso   1.000  O
  O12      1.0000 0.20460  0.05220  0.30770  Biso   1.000  O
  O13      1.0000 0.20290  0.39620  0.94790  Biso   1.000  O
  O14      1.0000 0.15840  0.33190  0.94620  Biso   1.000  O
  O15      1.0000 0.20460  0.25550  0.94780  Biso   1.000  O
  O16      1.0000 0.20290  0.55170  0.60380  Biso   1.000  O
  O17      1.0000 0.15840  0.61430  0.66810  Biso   1.000  O
  O18      1.0000 0.20460  0.69230  0.74450  Biso   1.000  O
  O19      1.0000 0.79710  0.39620  0.44830  Biso   1.000  O
  O20      1.0000 0.84160  0.33190  0.38570  Biso   1.000  O
  O21      1.0000 0.79540  0.25550  0.30770  Biso   1.000  O
  O22      1.0000 0.79710  0.55170  0.94790  Biso   1.000  O
  O23      1.0000 0.84160  0.61430  0.94620  Biso   1.000  O
  O24      1.0000 0.79540  0.69230  0.94780  Biso   1.000  O
  O25      1.0000 0.79710  0.05210  0.60380  Biso   1.000  O
  O26      1.0000 0.84160  0.05380  0.66810  Biso   1.000  O
  O27      1.0000 0.79540  0.05220  0.74450  Biso   1.000  O
  O28      1.0000 0.29710  0.60380  0.55170  Biso   1.000  O
  O29      1.0000 0.34160  0.66810  0.61430  Biso   1.000  O
  O30      1.0000 0.29540  0.74450  0.69230  Biso   1.000  O
  O31      1.0000 0.29710  0.44830  0.05210  Biso   1.000  O
  O32      1.0000 0.34160  0.38570  0.05380  Biso   1.000  O
  O33      1.0000 0.29540  0.30770  0.05220  Biso   1.000  O
  O34      1.0000 0.29710  0.94790  0.39620  Biso   1.000  O
  O35      1.0000 0.34160  0.94620  0.33190  Biso   1.000  O
  O36      1.0000 0.29540  0.94780  0.25550  Biso   1.000  O
  O37      1.0000 0.29710  0.05210  0.44830  Biso   1.000  O
  O38      1.0000 0.34160  0.05380  0.38570  Biso   1.000  O
  O39      1.0000 0.29540  0.05220  0.30770  Biso   1.000  O
  O40      1.0000 0.29710  0.39620  0.94790  Biso   1.000  O
  O41      1.0000 0.34160  0.33190  0.94620  Biso   1.000  O
  O42      1.0000 0.29540  0.25550  0.94780  Biso   1.000  O
  O43      1.0000 0.29710  0.55170  0.60380  Biso   1.000  O
  O44      1.0000 0.34160  0.61430  0.66810  Biso   1.000  O
  O45      1.0000 0.29540  0.69230  0.74450  Biso   1.000  O
  O46      1.0000 0.79710  0.94790  0.55170  Biso   1.000  O
  O47      1.0000 0.84160  0.94620  0.61430  Biso   1.000  O
  O48      1.0000 0.79540  0.94780  0.69230  Biso   1.000  O
  O49      1.0000 0.79710  0.60380  0.05210  Biso   1.000  O
  O50      1.0000 0.84160  0.66810  0.05380  Biso   1.000  O
  O51      1.0000 0.79540  0.74450  0.05220  Biso   1.000  O
  O52      1.0000 0.79710  0.44830  0.39620  Biso   1.000  O
  O53      1.0000 0.84160  0.38570  0.33190  Biso   1.000  O
  O54      1.0000 0.79540  0.30770  0.25550  Biso   1.000  O
  O55      1.0000 0.20290  0.60380  0.55170  Biso   1.000  O
  O56      1.0000 0.15840  0.66810  0.61430  Biso   1.000  O
  O57      1.0000 0.20460  0.74450  0.69230  Biso   1.000  O
  O58      1.0000 0.20290  0.44830  0.05210  Biso   1.000  O
  O59      1.0000 0.15840  0.38570  0.05380  Biso   1.000  O
  O60      1.0000 0.20460  0.30770  0.05220  Biso   1.000  O
  O61      1.0000 0.20290  0.94790  0.39620  Biso   1.000  O
  O62      1.0000 0.15840  0.94620  0.33190  Biso   1.000  O
  O63      1.0000 0.20460  0.94780  0.25550  Biso   1.000  O
  O64      1.0000 0.70290  0.39620  0.44830  Biso   1.000  O
  O65      1.0000 0.65840  0.33190  0.38570  Biso   1.000  O
  O66      1.0000 0.70460  0.25550  0.30770  Biso   1.000  O
  O67      1.0000 0.70290  0.55170  0.94790  Biso   1.000  O
  O68      1.0000 0.65840  0.61430  0.94620  Biso   1.000  O
  O69      1.0000 0.70460  0.69230  0.94780  Biso   1.000  O
  O70      1.0000 0.70290  0.05210  0.60380  Biso   1.000  O
  O71      1.0000 0.65840  0.05380  0.66810  Biso   1.000  O
  O72      1.0000 0.70460  0.05220  0.74450  Biso   1.000  O
  O73      1.0000 0.75000  0.00000  0.50970  Biso   1.000  O
  O74      1.0000 0.75000  0.00000  0.64590  Biso   1.000  O
  O75      1.0000 0.75000  0.50970  0.00000  Biso   1.000  O
  O76      1.0000 0.75000  0.64590  1.00000  Biso   1.000  O
  O77      1.0000 0.75000  0.49030  0.49030  Biso   1.000  O
  O78      1.0000 0.75000  0.35410  0.35410  Biso   1.000  O
  O79      1.0000 0.25000  0.00000  0.49030  Biso   1.000  O
  O80      1.0000 0.25000  0.00000  0.35410  Biso   1.000  O
  O81      1.0000 0.25000  0.49030  0.00000  Biso   1.000  O
  O82      1.0000 0.25000  0.35410  0.00000  Biso   1.000  O
  O83      1.0000 0.25000  0.50970  0.50970  Biso   1.000  O
  O84      1.0000 0.25000  0.64590  0.64590  Biso   1.000  O
  O85      1.0000 0.61640  0.00000  0.71240  Biso   1.000  O
  O86      1.0000 0.61640  0.71240  0.00000  Biso   1.000  O
  O87      1.0000 0.61640  0.28760  0.28760  Biso   1.000  O
  O88      1.0000 0.11640  0.00000  0.28760  Biso   1.000  O
  O89      1.0000 0.11640  0.28760  0.00000  Biso   1.000  O
  O90      1.0000 0.11640  0.71240  0.71240  Biso   1.000  O
  O91      1.0000 0.88360  0.28760  0.28760  Biso   1.000  O
  O92      1.0000 0.88360  0.71240  0.00000  Biso   1.000  O
  O93      1.0000 0.88360  0.00000  0.71240  Biso   1.000  O
  O94      1.0000 0.38360  0.71240  0.71240  Biso   1.000  O
  O95      1.0000 0.38360  0.28760  0.00000  Biso   1.000  O
  O96      1.0000 0.38360  0.00000  0.28760  Biso   1.000  O
