data_image0
_cell_length_a       11.9199
_cell_length_b       31.2246
_cell_length_c       31.2246
_cell_angle_alpha    61.5943
_cell_angle_beta     82.6894
_cell_angle_gamma    97.3106

_symmetry_space_group_name_H-M    P 1
_symmetry_int_tables_number       1

loop_
  _symmetry_equiv_pos_as_xyz
  'x, y, z'

loop_
  _atom_site_label
  _atom_site_occupancy
  _atom_site_fract_x
  _atom_site_fract_y
  _atom_site_fract_z
  _atom_site_thermal_displace_type
  _atom_site_B_iso_or_equiv
  _atom_site_type_symbol
  Cu1      1.0000 0.11962  0.76848  0.21032  Biso   1.000  Cu
  Cu2      1.0000 0.88021  0.71665  0.27231  Biso   1.000  Cu
  Cu3      1.0000 0.30439  0.50578  0.27591  Biso   1.000  Cu
  Cu4      1.0000 0.37983  0.72004  0.50424  Biso   1.000  Cu
  Cu5      1.0000 0.32994  0.21032  0.02120  Biso   1.000  Cu
  Cu6      1.0000 0.15252  0.27231  0.01104  Biso   1.000  Cu
  Cu7      1.0000 0.58030  0.27591  0.21831  Biso   1.000  Cu
  Cu8      1.0000 0.88407  0.50424  0.77572  Biso   1.000  Cu
  Cu9      1.0000 0.35114  0.02120  0.76848  Biso   1.000  Cu
  Cu10     1.0000 0.16356  0.01104  0.71665  Biso   1.000  Cu
  Cu11     1.0000 0.79861  0.21831  0.50578  Biso   1.000  Cu
  Cu12     1.0000 0.65979  0.77572  0.72004  Biso   1.000  Cu
  Cu13     1.0000 0.88038  0.23152  0.78968  Biso   1.000  Cu
  Cu14     1.0000 0.11979  0.28335  0.72769  Biso   1.000  Cu
  Cu15     1.0000 0.69561  0.49422  0.72409  Biso   1.000  Cu
  Cu16     1.0000 0.62017  0.27996  0.49576  Biso   1.000  Cu
  Cu17     1.0000 0.67006  0.78968  0.97880  Biso   1.000  Cu
  Cu18     1.0000 0.84748  0.72769  0.98896  Biso   1.000  Cu
  Cu19     1.0000 0.41970  0.72409  0.78169  Biso   1.000  Cu
  Cu20     1.0000 0.11593  0.49576  0.22428  Biso   1.000  Cu
  Cu21     1.0000 0.64886  0.97880  0.23152  Biso   1.000  Cu
  Cu22     1.0000 0.83644  0.98896  0.28335  Biso   1.000  Cu
  Cu23     1.0000 0.20139  0.78169  0.49422  Biso   1.000  Cu
  Cu24     1.0000 0.34021  0.22428  0.27996  Biso   1.000  Cu
  H1       1.0000 0.72440  0.84720  0.01880  Biso   1.000  H
  H2       1.0000 0.74200  0.90200  0.04660  Biso   1.000  H
  H3       1.0000 0.58100  0.90910  0.09270  Biso   1.000  H
  H4       1.0000 0.40480  0.86130  0.10940  Biso   1.000  H
  H5       1.0000 0.16060  0.72950  0.08980  Biso   1.000  H
  H6       1.0000 0.15080  0.68040  0.05420  Biso   1.000  H
  H7       1.0000 0.31850  0.67610  0.01120  Biso   1.000  H
  H8       1.0000 0.49380  0.72390  0.99870  Biso   1.000  H
  H9       1.0000 0.77390  0.76000  0.20250  Biso   1.000  H
  H10      1.0000 0.64510  0.79650  0.15620  Biso   1.000  H
  H11      1.0000 0.46450  0.74980  0.16710  Biso   1.000  H
  H12      1.0000 0.41470  0.66760  0.22230  Biso   1.000  H
  H13      1.0000 0.51600  0.51870  0.36260  Biso   1.000  H
  H14      1.0000 0.64570  0.48740  0.41020  Biso   1.000  H
  H15      1.0000 0.82770  0.53860  0.39330  Biso   1.000  H
  H16      1.0000 0.87170  0.61880  0.33250  Biso   1.000  H
  H17      1.0000 0.45850  0.47990  0.23500  Biso   1.000  H
  H18      1.0000 0.62170  0.46470  0.20300  Biso   1.000  H
  H19      1.0000 0.74280  0.42310  0.25350  Biso   1.000  H
  H20      1.0000 0.69650  0.39290  0.33670  Biso   1.000  H
  H21      1.0000 0.43230  0.38210  0.48160  Biso   1.000  H
  H22      1.0000 0.27480  0.40310  0.50980  Biso   1.000  H
  H23      1.0000 0.16100  0.44700  0.45500  Biso   1.000  H
  H24      1.0000 0.21010  0.47210  0.37270  Biso   1.000  H
  H25      1.0000 0.30210  0.66190  0.46770  Biso   1.000  H
  H26      1.0000 0.26240  0.60320  0.44560  Biso   1.000  H
  H27      1.0000 0.41050  0.58710  0.40190  Biso   1.000  H
  H28      1.0000 0.59580  0.63020  0.38140  Biso   1.000  H
  H29      1.0000 0.87890  0.75810  0.39110  Biso   1.000  H
  H30      1.0000 0.90990  0.80820  0.42380  Biso   1.000  H
  H31      1.0000 0.75750  0.82040  0.46750  Biso   1.000  H
  H32      1.0000 0.57320  0.77960  0.48160  Biso   1.000  H
  H33      1.0000 0.05190  0.83150  0.25810  Biso   1.000  H
  H34      1.0000 0.05700  0.78430  0.30810  Biso   1.000  H
  H35      1.0000 0.93710  0.79700  0.29710  Biso   1.000  H
  H36      1.0000 0.05810  0.69480  0.17840  Biso   1.000  H
  H37      1.0000 0.92730  0.69690  0.17900  Biso   1.000  H
  H38      1.0000 0.96260  0.65410  0.22440  Biso   1.000  H
  H39      1.0000 0.09390  0.39060  0.30320  Biso   1.000  H
  H40      1.0000 0.16410  0.39610  0.34020  Biso   1.000  H
  H41      1.0000 0.22740  0.39270  0.29510  Biso   1.000  H
  H42      1.0000 0.19620  0.60670  0.17400  Biso   1.000  H
  H43      1.0000 0.32690  0.61090  0.17730  Biso   1.000  H
  H44      1.0000 0.23550  0.61010  0.21850  Biso   1.000  H
  H45      1.0000 0.74320  0.01880  0.13400  Biso   1.000  H
  H46      1.0000 0.78860  0.04660  0.05140  Biso   1.000  H
  H47      1.0000 0.67370  0.09270  0.99820  Biso   1.000  H
  H48      1.0000 0.51420  0.10940  0.02930  Biso   1.000  H
  H49      1.0000 0.25040  0.08980  0.18070  Biso   1.000  H
  H50      1.0000 0.20500  0.05420  0.26540  Biso   1.000  H
  H51      1.0000 0.32970  0.01120  0.31270  Biso   1.000  H
  H52      1.0000 0.49250  0.99870  0.27740  Biso   1.000  H
  H53      1.0000 0.97640  0.20250  0.03750  Biso   1.000  H
  H54      1.0000 0.80130  0.15620  0.04730  Biso   1.000  H
  H55      1.0000 0.63160  0.16710  0.08310  Biso   1.000  H
  H56      1.0000 0.63700  0.22230  0.11010  Biso   1.000  H
  H57      1.0000 0.87860  0.36260  0.11870  Biso   1.000  H
  H58      1.0000 0.05590  0.41020  0.10240  Biso   1.000  H
  H59      1.0000 0.22100  0.39330  0.06810  Biso   1.000  H
  H60      1.0000 0.20420  0.33250  0.04870  Biso   1.000  H
  H61      1.0000 0.69350  0.23500  0.28510  Biso   1.000  H
  H62      1.0000 0.82470  0.20300  0.33230  Biso   1.000  H
  H63      1.0000 0.99630  0.25350  0.32340  Biso   1.000  H
  H64      1.0000 0.03320  0.33670  0.27040  Biso   1.000  H
  H65      1.0000 0.91390  0.48160  0.13630  Biso   1.000  H
  H66      1.0000 0.78460  0.50980  0.08710  Biso   1.000  H
  H67      1.0000 0.61600  0.45500  0.09800  Biso   1.000  H
  H68      1.0000 0.58280  0.37270  0.15520  Biso   1.000  H
  H69      1.0000 0.76980  0.46770  0.87040  Biso   1.000  H
  H70      1.0000 0.70800  0.44560  0.95120  Biso   1.000  H
  H71      1.0000 0.81240  0.40190  0.01100  Biso   1.000  H
  H72      1.0000 0.97720  0.38140  0.98840  Biso   1.000  H
  H73      1.0000 0.27000  0.39110  0.85080  Biso   1.000  H
  H74      1.0000 0.33370  0.42380  0.76800  Biso   1.000  H
  H75      1.0000 0.22500  0.46750  0.71210  Biso   1.000  H
  H76      1.0000 0.05480  0.48160  0.73880  Biso   1.000  H
  H77      1.0000 0.31000  0.25810  0.91040  Biso   1.000  H
  H78      1.0000 0.36510  0.30810  0.90760  Biso   1.000  H
  H79      1.0000 0.23420  0.29710  0.90590  Biso   1.000  H
  H80      1.0000 0.23650  0.17840  0.12680  Biso   1.000  H
  H81      1.0000 0.10630  0.17900  0.12410  Biso   1.000  H
  H82      1.0000 0.18700  0.22440  0.12150  Biso   1.000  H
  H83      1.0000 0.39710  0.30320  0.30620  Biso   1.000  H
  H84      1.0000 0.50430  0.34020  0.26370  Biso   1.000  H
  H85      1.0000 0.52250  0.29510  0.31220  Biso   1.000  H
  H86      1.0000 0.37020  0.17400  0.21930  Biso   1.000  H
  H87      1.0000 0.50420  0.17730  0.21180  Biso   1.000  H
  H88      1.0000 0.45400  0.21850  0.17140  Biso   1.000  H
  H89      1.0000 0.87720  0.13400  0.84720  Biso   1.000  H
  H90      1.0000 0.84000  0.05140  0.90200  Biso   1.000  H
  H91      1.0000 0.67190  0.99820  0.90910  Biso   1.000  H
  H92      1.0000 0.54350  0.02930  0.86130  Biso   1.000  H
  H93      1.0000 0.43110  0.18070  0.72950  Biso   1.000  H
  H94      1.0000 0.47040  0.26540  0.68040  Biso   1.000  H
  H95      1.0000 0.64240  0.31270  0.67610  Biso   1.000  H
  H96      1.0000 0.76990  0.27740  0.72390  Biso   1.000  H
  H97      1.0000 0.01390  0.03750  0.76000  Biso   1.000  H
  H98      1.0000 0.84860  0.04730  0.79650  Biso   1.000  H
  H99      1.0000 0.71470  0.08310  0.74980  Biso   1.000  H
  H100     1.0000 0.74710  0.11010  0.66760  Biso   1.000  H
  H101     1.0000 0.99730  0.11870  0.51870  Biso   1.000  H
  H102     1.0000 0.15830  0.10240  0.48740  Biso   1.000  H
  H103     1.0000 0.28910  0.06810  0.53860  Biso   1.000  H
  H104     1.0000 0.25290  0.04870  0.61880  Biso   1.000  H
  H105     1.0000 0.97860  0.28510  0.47990  Biso   1.000  H
  H106     1.0000 0.15700  0.33230  0.46470  Biso   1.000  H
  H107     1.0000 0.31970  0.32340  0.42310  Biso   1.000  H
  H108     1.0000 0.30360  0.27040  0.39290  Biso   1.000  H
  H109     1.0000 0.05020  0.13630  0.38210  Biso   1.000  H
  H110     1.0000 0.87170  0.08710  0.40310  Biso   1.000  H
  H111     1.0000 0.71400  0.09800  0.44700  Biso   1.000  H
  H112     1.0000 0.73800  0.15520  0.47210  Biso   1.000  H
  H113     1.0000 0.64020  0.87040  0.66190  Biso   1.000  H
  H114     1.0000 0.65920  0.95120  0.60320  Biso   1.000  H
  H115     1.0000 0.82340  0.01100  0.58710  Biso   1.000  H
  H116     1.0000 0.96560  0.98840  0.63020  Biso   1.000  H
  H117     1.0000 0.12080  0.85080  0.75810  Biso   1.000  H
  H118     1.0000 0.10170  0.76800  0.80820  Biso   1.000  H
  H119     1.0000 0.93710  0.71210  0.82040  Biso   1.000  H
  H120     1.0000 0.79360  0.73880  0.77960  Biso   1.000  H
  H121     1.0000 0.22040  0.91040  0.83150  Biso   1.000  H
  H122     1.0000 0.27270  0.90760  0.78430  Biso   1.000  H
  H123     1.0000 0.14010  0.90590  0.79700  Biso   1.000  H
  H124     1.0000 0.36330  0.12680  0.69480  Biso   1.000  H
  H125     1.0000 0.23040  0.12410  0.69690  Biso   1.000  H
  H126     1.0000 0.30850  0.12150  0.65410  Biso   1.000  H
  H127     1.0000 0.70330  0.30620  0.39060  Biso   1.000  H
  H128     1.0000 0.76800  0.26370  0.39610  Biso   1.000  H
  H129     1.0000 0.83470  0.31220  0.39270  Biso   1.000  H
  H130     1.0000 0.58950  0.21930  0.60670  Biso   1.000  H
  H131     1.0000 0.71600  0.21180  0.61090  Biso   1.000  H
  H132     1.0000 0.62540  0.17140  0.61010  Biso   1.000  H
  H133     1.0000 0.27560  0.15280  0.98120  Biso   1.000  H
  H134     1.0000 0.25800  0.09800  0.95340  Biso   1.000  H
  H135     1.0000 0.41900  0.09090  0.90730  Biso   1.000  H
  H136     1.0000 0.59520  0.13870  0.89060  Biso   1.000  H
  H137     1.0000 0.83940  0.27050  0.91020  Biso   1.000  H
  H138     1.0000 0.84920  0.31960  0.94580  Biso   1.000  H
  H139     1.0000 0.68150  0.32390  0.98880  Biso   1.000  H
  H140     1.0000 0.50620  0.27610  0.00130  Biso   1.000  H
  H141     1.0000 0.22610  0.24000  0.79750  Biso   1.000  H
  H142     1.0000 0.35490  0.20350  0.84380  Biso   1.000  H
  H143     1.0000 0.53550  0.25020  0.83290  Biso   1.000  H
  H144     1.0000 0.58530  0.33240  0.77770  Biso   1.000  H
  H145     1.0000 0.48400  0.48130  0.63740  Biso   1.000  H
  H146     1.0000 0.35430  0.51260  0.58980  Biso   1.000  H
  H147     1.0000 0.17230  0.46140  0.60670  Biso   1.000  H
  H148     1.0000 0.12830  0.38120  0.66750  Biso   1.000  H
  H149     1.0000 0.54150  0.52010  0.76500  Biso   1.000  H
  H150     1.0000 0.37830  0.53530  0.79700  Biso   1.000  H
  H151     1.0000 0.25720  0.57690  0.74650  Biso   1.000  H
  H152     1.0000 0.30350  0.60710  0.66330  Biso   1.000  H
  H153     1.0000 0.56770  0.61790  0.51840  Biso   1.000  H
  H154     1.0000 0.72520  0.59690  0.49020  Biso   1.000  H
  H155     1.0000 0.83900  0.55300  0.54500  Biso   1.000  H
  H156     1.0000 0.78990  0.52790  0.62730  Biso   1.000  H
  H157     1.0000 0.69790  0.33810  0.53230  Biso   1.000  H
  H158     1.0000 0.73760  0.39680  0.55440  Biso   1.000  H
  H159     1.0000 0.58950  0.41290  0.59810  Biso   1.000  H
  H160     1.0000 0.40420  0.36980  0.61860  Biso   1.000  H
  H161     1.0000 0.12110  0.24190  0.60890  Biso   1.000  H
  H162     1.0000 0.09010  0.19180  0.57620  Biso   1.000  H
  H163     1.0000 0.24250  0.17960  0.53250  Biso   1.000  H
  H164     1.0000 0.42680  0.22040  0.51840  Biso   1.000  H
  H165     1.0000 0.94810  0.16850  0.74190  Biso   1.000  H
  H166     1.0000 0.94300  0.21570  0.69190  Biso   1.000  H
  H167     1.0000 0.06290  0.20300  0.70290  Biso   1.000  H
  H168     1.0000 0.94190  0.30520  0.82160  Biso   1.000  H
  H169     1.0000 0.07270  0.30310  0.82100  Biso   1.000  H
  H170     1.0000 0.03740  0.34590  0.77560  Biso   1.000  H
  H171     1.0000 0.90610  0.60940  0.69680  Biso   1.000  H
  H172     1.0000 0.83590  0.60390  0.65980  Biso   1.000  H
  H173     1.0000 0.77260  0.60730  0.70490  Biso   1.000  H
  H174     1.0000 0.80380  0.39330  0.82600  Biso   1.000  H
  H175     1.0000 0.67310  0.38910  0.82270  Biso   1.000  H
  H176     1.0000 0.76450  0.38990  0.78150  Biso   1.000  H
  H177     1.0000 0.25680  0.98120  0.86600  Biso   1.000  H
  H178     1.0000 0.21140  0.95340  0.94860  Biso   1.000  H
  H179     1.0000 0.32630  0.90730  0.00180  Biso   1.000  H
  H180     1.0000 0.48580  0.89060  0.97070  Biso   1.000  H
  H181     1.0000 0.74960  0.91020  0.81930  Biso   1.000  H
  H182     1.0000 0.79500  0.94580  0.73460  Biso   1.000  H
  H183     1.0000 0.67030  0.98880  0.68730  Biso   1.000  H
  H184     1.0000 0.50750  0.00130  0.72260  Biso   1.000  H
  H185     1.0000 0.02360  0.79750  0.96250  Biso   1.000  H
  H186     1.0000 0.19870  0.84380  0.95270  Biso   1.000  H
  H187     1.0000 0.36840  0.83290  0.91690  Biso   1.000  H
  H188     1.0000 0.36300  0.77770  0.88990  Biso   1.000  H
  H189     1.0000 0.12140  0.63740  0.88130  Biso   1.000  H
  H190     1.0000 0.94410  0.58980  0.89760  Biso   1.000  H
  H191     1.0000 0.77900  0.60670  0.93190  Biso   1.000  H
  H192     1.0000 0.79580  0.66750  0.95130  Biso   1.000  H
  H193     1.0000 0.30650  0.76500  0.71490  Biso   1.000  H
  H194     1.0000 0.17530  0.79700  0.66770  Biso   1.000  H
  H195     1.0000 0.00370  0.74650  0.67660  Biso   1.000  H
  H196     1.0000 0.96680  0.66330  0.72960  Biso   1.000  H
  H197     1.0000 0.08610  0.51840  0.86370  Biso   1.000  H
  H198     1.0000 0.21540  0.49020  0.91290  Biso   1.000  H
  H199     1.0000 0.38400  0.54500  0.90200  Biso   1.000  H
  H200     1.0000 0.41720  0.62730  0.84480  Biso   1.000  H
  H201     1.0000 0.23020  0.53230  0.12960  Biso   1.000  H
  H202     1.0000 0.29200  0.55440  0.04880  Biso   1.000  H
  H203     1.0000 0.18760  0.59810  0.98900  Biso   1.000  H
  H204     1.0000 0.02280  0.61860  0.01160  Biso   1.000  H
  H205     1.0000 0.73000  0.60890  0.14920  Biso   1.000  H
  H206     1.0000 0.66630  0.57620  0.23200  Biso   1.000  H
  H207     1.0000 0.77500  0.53250  0.28790  Biso   1.000  H
  H208     1.0000 0.94520  0.51840  0.26120  Biso   1.000  H
  H209     1.0000 0.69000  0.74190  0.08960  Biso   1.000  H
  H210     1.0000 0.63490  0.69190  0.09240  Biso   1.000  H
  H211     1.0000 0.76580  0.70290  0.09410  Biso   1.000  H
  H212     1.0000 0.76350  0.82160  0.87320  Biso   1.000  H
  H213     1.0000 0.89370  0.82100  0.87590  Biso   1.000  H
  H214     1.0000 0.81300  0.77560  0.87850  Biso   1.000  H
  H215     1.0000 0.60290  0.69680  0.69380  Biso   1.000  H
  H216     1.0000 0.49570  0.65980  0.73630  Biso   1.000  H
  H217     1.0000 0.47750  0.70490  0.68780  Biso   1.000  H
  H218     1.0000 0.62980  0.82600  0.78070  Biso   1.000  H
  H219     1.0000 0.49580  0.82270  0.78820  Biso   1.000  H
  H220     1.0000 0.54600  0.78150  0.82860  Biso   1.000  H
  H221     1.0000 0.12280  0.86600  0.15280  Biso   1.000  H
  H222     1.0000 0.16000  0.94860  0.09800  Biso   1.000  H
  H223     1.0000 0.32810  0.00180  0.09090  Biso   1.000  H
  H224     1.0000 0.45650  0.97070  0.13870  Biso   1.000  H
  H225     1.0000 0.56890  0.81930  0.27050  Biso   1.000  H
  H226     1.0000 0.52960  0.73460  0.31960  Biso   1.000  H
  H227     1.0000 0.35760  0.68730  0.32390  Biso   1.000  H
  H228     1.0000 0.23010  0.72260  0.27610  Biso   1.000  H
  H229     1.0000 0.98610  0.96250  0.24000  Biso   1.000  H
  H230     1.0000 0.15140  0.95270  0.20350  Biso   1.000  H
  H231     1.0000 0.28530  0.91690  0.25020  Biso   1.000  H
  H232     1.0000 0.25290  0.88990  0.33240  Biso   1.000  H
  H233     1.0000 0.00270  0.88130  0.48130  Biso   1.000  H
  H234     1.0000 0.84170  0.89760  0.51260  Biso   1.000  H
  H235     1.0000 0.71090  0.93190  0.46140  Biso   1.000  H
  H236     1.0000 0.74710  0.95130  0.38120  Biso   1.000  H
  H237     1.0000 0.02140  0.71490  0.52010  Biso   1.000  H
  H238     1.0000 0.84300  0.66770  0.53530  Biso   1.000  H
  H239     1.0000 0.68030  0.67660  0.57690  Biso   1.000  H
  H240     1.0000 0.69640  0.72960  0.60710  Biso   1.000  H
  H241     1.0000 0.94980  0.86370  0.61790  Biso   1.000  H
  H242     1.0000 0.12830  0.91290  0.59690  Biso   1.000  H
  H243     1.0000 0.28600  0.90200  0.55300  Biso   1.000  H
  H244     1.0000 0.26200  0.84480  0.52790  Biso   1.000  H
  H245     1.0000 0.35980  0.12960  0.33810  Biso   1.000  H
  H246     1.0000 0.34080  0.04880  0.39680  Biso   1.000  H
  H247     1.0000 0.17660  0.98900  0.41290  Biso   1.000  H
  H248     1.0000 0.03440  0.01160  0.36980  Biso   1.000  H
  H249     1.0000 0.87920  0.14920  0.24190  Biso   1.000  H
  H250     1.0000 0.89830  0.23200  0.19180  Biso   1.000  H
  H251     1.0000 0.06290  0.28790  0.17960  Biso   1.000  H
  H252     1.0000 0.20640  0.26120  0.22040  Biso   1.000  H
  H253     1.0000 0.77960  0.08960  0.16850  Biso   1.000  H
  H254     1.0000 0.72730  0.09240  0.21570  Biso   1.000  H
  H255     1.0000 0.85990  0.09410  0.20300  Biso   1.000  H
  H256     1.0000 0.63670  0.87320  0.30520  Biso   1.000  H
  H257     1.0000 0.76960  0.87590  0.30310  Biso   1.000  H
  H258     1.0000 0.69150  0.87850  0.34590  Biso   1.000  H
  H259     1.0000 0.29670  0.69380  0.60940  Biso   1.000  H
  H260     1.0000 0.23200  0.73630  0.60390  Biso   1.000  H
  H261     1.0000 0.16530  0.68780  0.60730  Biso   1.000  H
  H262     1.0000 0.41050  0.78070  0.39330  Biso   1.000  H
  H263     1.0000 0.28400  0.78820  0.38910  Biso   1.000  H
  H264     1.0000 0.37460  0.82860  0.38990  Biso   1.000  H
  C1       1.0000 0.54935  0.81895  0.04620  Biso   1.000  C
  C2       1.0000 0.65934  0.84965  0.03673  Biso   1.000  C
  C3       1.0000 0.66979  0.88208  0.05341  Biso   1.000  C
  C4       1.0000 0.57222  0.88642  0.08136  Biso   1.000  C
  C5       1.0000 0.46801  0.85795  0.09132  Biso   1.000  C
  C6       1.0000 0.45176  0.82242  0.07484  Biso   1.000  C
  C7       1.0000 0.34441  0.79174  0.08481  Biso   1.000  C
  C8       1.0000 0.23940  0.79242  0.11702  Biso   1.000  C
  C9       1.0000 0.33424  0.75939  0.06527  Biso   1.000  C
  C10      1.0000 0.22772  0.72908  0.07132  Biso   1.000  C
  C11      1.0000 0.22181  0.69939  0.05066  Biso   1.000  C
  C12      1.0000 0.32311  0.69744  0.02411  Biso   1.000  C
  C13      1.0000 0.42803  0.72578  0.01669  Biso   1.000  C
  C14      1.0000 0.43631  0.75837  0.03674  Biso   1.000  C
  C15      1.0000 0.67362  0.69028  0.24432  Biso   1.000  C
  C16      1.0000 0.70163  0.74097  0.20768  Biso   1.000  C
  C17      1.0000 0.62524  0.76278  0.17966  Biso   1.000  C
  C18      1.0000 0.51634  0.73444  0.18612  Biso   1.000  C
  C19      1.0000 0.48640  0.68580  0.21920  Biso   1.000  C
  C20      1.0000 0.56346  0.66127  0.24999  Biso   1.000  C
  C21      1.0000 0.53454  0.61096  0.28644  Biso   1.000  C
  C22      1.0000 0.42081  0.57897  0.29264  Biso   1.000  C
  C23      1.0000 0.61103  0.58978  0.31689  Biso   1.000  C
  C24      1.0000 0.58702  0.53933  0.35617  Biso   1.000  C
  C25      1.0000 0.66397  0.52053  0.38432  Biso   1.000  C
  C26      1.0000 0.77374  0.55161  0.37439  Biso   1.000  C
  C27      1.0000 0.79978  0.59921  0.33817  Biso   1.000  C
  C28      1.0000 0.72042  0.62078  0.30802  Biso   1.000  C
  C29      1.0000 0.47579  0.44646  0.30779  Biso   1.000  C
  C30      1.0000 0.50563  0.46286  0.25597  Biso   1.000  C
  C31      1.0000 0.60299  0.45368  0.23701  Biso   1.000  C
  C32      1.0000 0.67549  0.42807  0.26750  Biso   1.000  C
  C33      1.0000 0.64852  0.41075  0.31669  Biso   1.000  C
  C34      1.0000 0.54819  0.41898  0.33911  Biso   1.000  C
  C35      1.0000 0.51807  0.40225  0.38994  Biso   1.000  C
  C36      1.0000 0.58875  0.37102  0.42447  Biso   1.000  C
  C37      1.0000 0.42105  0.41404  0.40869  Biso   1.000  C
  C38      1.0000 0.38843  0.40000  0.45951  Biso   1.000  C
  C39      1.0000 0.29454  0.41235  0.47633  Biso   1.000  C
  C40      1.0000 0.22640  0.43925  0.44305  Biso   1.000  C
  C41      1.0000 0.25510  0.45392  0.39412  Biso   1.000  C
  C42      1.0000 0.35341  0.44189  0.37516  Biso   1.000  C
  C43      1.0000 0.47682  0.68241  0.44045  Biso   1.000  C
  C44      1.0000 0.36208  0.65542  0.45108  Biso   1.000  C
  C45      1.0000 0.33807  0.62084  0.43753  Biso   1.000  C
  C46      1.0000 0.42759  0.61111  0.41094  Biso   1.000  C
  C47      1.0000 0.53781  0.63683  0.39880  Biso   1.000  C
  C48      1.0000 0.56614  0.67364  0.41242  Biso   1.000  C
  C49      1.0000 0.67872  0.70134  0.40028  Biso   1.000  C
  C50      1.0000 0.77476  0.69629  0.36751  Biso   1.000  C
  C51      1.0000 0.70300  0.73448  0.41788  Biso   1.000  C
  C52      1.0000 0.81684  0.76148  0.40966  Biso   1.000  C
  C53      1.0000 0.83490  0.79166  0.42856  Biso   1.000  C
  C54      1.0000 0.74300  0.79871  0.45541  Biso   1.000  C
  C55      1.0000 0.63354  0.77428  0.46386  Biso   1.000  C
  C56      1.0000 0.60896  0.74068  0.44640  Biso   1.000  C
  C57      1.0000 0.01370  0.79767  0.28247  Biso   1.000  C
  C58      1.0000 0.98447  0.68867  0.19906  Biso   1.000  C
  C59      1.0000 0.16667  0.40504  0.30603  Biso   1.000  C
  C60      1.0000 0.24858  0.59736  0.19622  Biso   1.000  C
  C61      1.0000 0.59555  0.04620  0.13485  Biso   1.000  C
  C62      1.0000 0.69607  0.03673  0.11362  Biso   1.000  C
  C63      1.0000 0.72320  0.05341  0.06451  Biso   1.000  C
  C64      1.0000 0.65358  0.08136  0.03222  Biso   1.000  C
  C65      1.0000 0.55933  0.09132  0.05073  Biso   1.000  C
  C66      1.0000 0.52660  0.07484  0.10274  Biso   1.000  C
  C67      1.0000 0.42922  0.08481  0.12345  Biso   1.000  C
  C68      1.0000 0.35642  0.11702  0.09056  Biso   1.000  C
  C69      1.0000 0.39951  0.06527  0.17534  Biso   1.000  C
  C70      1.0000 0.29904  0.07132  0.19960  Biso   1.000  C
  C71      1.0000 0.27247  0.05066  0.24995  Biso   1.000  C
  C72      1.0000 0.34722  0.02411  0.27845  Biso   1.000  C
  C73      1.0000 0.44472  0.01669  0.25753  Biso   1.000  C
  C74      1.0000 0.47305  0.03674  0.20489  Biso   1.000  C
  C75      1.0000 0.91794  0.24432  0.06540  Biso   1.000  C
  C76      1.0000 0.90931  0.20768  0.05135  Biso   1.000  C
  C77      1.0000 0.80490  0.17966  0.05756  Biso   1.000  C
  C78      1.0000 0.70246  0.18612  0.07944  Biso   1.000  C
  C79      1.0000 0.70560  0.21920  0.09500  Biso   1.000  C
  C80      1.0000 0.81345  0.24999  0.08874  Biso   1.000  C
  C81      1.0000 0.82098  0.28644  0.10260  Biso   1.000  C
  C82      1.0000 0.71345  0.29264  0.12839  Biso   1.000  C
  C83      1.0000 0.92792  0.31689  0.09333  Biso   1.000  C
  C84      1.0000 0.94319  0.35617  0.10450  Biso   1.000  C
  C85      1.0000 0.04829  0.38432  0.09515  Biso   1.000  C
  C86      1.0000 0.14813  0.37439  0.07400  Biso   1.000  C
  C87      1.0000 0.13795  0.33817  0.06262  Biso   1.000  C
  C88      1.0000 0.02844  0.30802  0.07120  Biso   1.000  C
  C89      1.0000 0.78358  0.30779  0.24575  Biso   1.000  C
  C90      1.0000 0.76160  0.25597  0.28117  Biso   1.000  C
  C91      1.0000 0.84000  0.23701  0.30931  Biso   1.000  C
  C92      1.0000 0.94299  0.26750  0.30443  Biso   1.000  C
  C93      1.0000 0.96521  0.31669  0.27256  Biso   1.000  C
  C94      1.0000 0.88730  0.33911  0.24191  Biso   1.000  C
  C95      1.0000 0.90801  0.38994  0.20781  Biso   1.000  C
  C96      1.0000 0.01322  0.42447  0.20451  Biso   1.000  C
  C97      1.0000 0.82974  0.40869  0.17727  Biso   1.000  C
  C98      1.0000 0.84794  0.45951  0.14049  Biso   1.000  C
  C99      1.0000 0.77087  0.47633  0.11132  Biso   1.000  C
  C100     1.0000 0.66945  0.44305  0.11770  Biso   1.000  C
  C101     1.0000 0.64922  0.39412  0.15196  Biso   1.000  C
  C102     1.0000 0.72857  0.37516  0.18295  Biso   1.000  C
  C103     1.0000 0.91727  0.44045  0.87714  Biso   1.000  C
  C104     1.0000 0.81316  0.45108  0.89350  Biso   1.000  C
  C105     1.0000 0.77560  0.43753  0.94163  Biso   1.000  C
  C106     1.0000 0.83853  0.41094  0.97795  Biso   1.000  C
  C107     1.0000 0.93661  0.39880  0.96437  Biso   1.000  C
  C108     1.0000 0.97856  0.41242  0.91394  Biso   1.000  C
  C109     1.0000 0.07900  0.40028  0.89838  Biso   1.000  C
  C110     1.0000 0.14227  0.36751  0.93620  Biso   1.000  C
  C111     1.0000 0.12088  0.41788  0.84764  Biso   1.000  C
  C112     1.0000 0.22650  0.40966  0.82886  Biso   1.000  C
  C113     1.0000 0.26346  0.42856  0.77978  Biso   1.000  C
  C114     1.0000 0.19841  0.45541  0.74588  Biso   1.000  C
  C115     1.0000 0.09740  0.46386  0.76186  Biso   1.000  C
  C116     1.0000 0.05536  0.44640  0.81292  Biso   1.000  C
  C117     1.0000 0.29617  0.28247  0.91986  Biso   1.000  C
  C118     1.0000 0.18353  0.19906  0.11227  Biso   1.000  C
  C119     1.0000 0.47270  0.30603  0.28893  Biso   1.000  C
  C120     1.0000 0.44480  0.19622  0.20642  Biso   1.000  C
  C121     1.0000 0.73040  0.13485  0.81895  Biso   1.000  C
  C122     1.0000 0.80969  0.11362  0.84965  Biso   1.000  C
  C123     1.0000 0.78771  0.06451  0.88208  Biso   1.000  C
  C124     1.0000 0.68580  0.03222  0.88642  Biso   1.000  C
  C125     1.0000 0.61006  0.05073  0.85795  Biso   1.000  C
  C126     1.0000 0.62934  0.10274  0.82242  Biso   1.000  C
  C127     1.0000 0.55267  0.12345  0.79174  Biso   1.000  C
  C128     1.0000 0.44698  0.09056  0.79242  Biso   1.000  C
  C129     1.0000 0.57485  0.17534  0.75939  Biso   1.000  C
  C130     1.0000 0.49864  0.19960  0.72908  Biso   1.000  C
  C131     1.0000 0.52242  0.24995  0.69939  Biso   1.000  C
  C132     1.0000 0.62567  0.27845  0.69744  Biso   1.000  C
  C133     1.0000 0.70225  0.25753  0.72578  Biso   1.000  C
  C134     1.0000 0.67794  0.20489  0.75837  Biso   1.000  C
  C135     1.0000 0.98334  0.06540  0.69028  Biso   1.000  C
  C136     1.0000 0.96066  0.05135  0.74097  Biso   1.000  C
  C137     1.0000 0.86246  0.05756  0.76278  Biso   1.000  C
  C138     1.0000 0.78190  0.07944  0.73444  Biso   1.000  C
  C139     1.0000 0.80060  0.09500  0.68580  Biso   1.000  C
  C140     1.0000 0.90219  0.08874  0.66127  Biso   1.000  C
  C141     1.0000 0.92358  0.10260  0.61096  Biso   1.000  C
  C142     1.0000 0.84184  0.12839  0.57897  Biso   1.000  C
  C143     1.0000 0.02125  0.09333  0.58978  Biso   1.000  C
  C144     1.0000 0.04769  0.10450  0.53933  Biso   1.000  C
  C145     1.0000 0.14344  0.09515  0.52053  Biso   1.000  C
  C146     1.0000 0.22213  0.07400  0.55161  Biso   1.000  C
  C147     1.0000 0.20057  0.06262  0.59921  Biso   1.000  C
  C148     1.0000 0.09964  0.07120  0.62078  Biso   1.000  C
  C149     1.0000 0.02933  0.24575  0.44646  Biso   1.000  C
  C150     1.0000 0.04277  0.28117  0.46286  Biso   1.000  C
  C151     1.0000 0.14931  0.30931  0.45368  Biso   1.000  C
  C152     1.0000 0.24742  0.30443  0.42807  Biso   1.000  C
  C153     1.0000 0.23777  0.27256  0.41075  Biso   1.000  C
  C154     1.0000 0.12921  0.24191  0.41898  Biso   1.000  C
  C155     1.0000 0.11582  0.20781  0.40225  Biso   1.000  C
  C156     1.0000 0.21773  0.20451  0.37102  Biso   1.000  C
  C157     1.0000 0.00701  0.17727  0.41404  Biso   1.000  C
  C158     1.0000 0.98843  0.14049  0.40000  Biso   1.000  C
  C159     1.0000 0.88219  0.11132  0.41235  Biso   1.000  C
  C160     1.0000 0.78715  0.11770  0.43925  Biso   1.000  C
  C161     1.0000 0.80118  0.15196  0.45392  Biso   1.000  C
  C162     1.0000 0.91152  0.18295  0.44189  Biso   1.000  C
  C163     1.0000 0.79441  0.87714  0.68241  Biso   1.000  C
  C164     1.0000 0.70666  0.89350  0.65542  Biso   1.000  C
  C165     1.0000 0.71723  0.94163  0.62084  Biso   1.000  C
  C166     1.0000 0.81648  0.97795  0.61111  Biso   1.000  C
  C167     1.0000 0.90098  0.96437  0.63683  Biso   1.000  C
  C168     1.0000 0.89250  0.91394  0.67364  Biso   1.000  C
  C169     1.0000 0.97738  0.89838  0.70134  Biso   1.000  C
  C170     1.0000 0.07847  0.93620  0.69629  Biso   1.000  C
  C171     1.0000 0.96852  0.84764  0.73448  Biso   1.000  C
  C172     1.0000 0.05536  0.82886  0.76148  Biso   1.000  C
  C173     1.0000 0.04324  0.77978  0.79166  Biso   1.000  C
  C174     1.0000 0.94429  0.74588  0.79871  Biso   1.000  C
  C175     1.0000 0.85926  0.76186  0.77428  Biso   1.000  C
  C176     1.0000 0.86828  0.81292  0.74068  Biso   1.000  C
  C177     1.0000 0.21603  0.91986  0.79767  Biso   1.000  C
  C178     1.0000 0.29580  0.11227  0.68867  Biso   1.000  C
  C179     1.0000 0.76163  0.28893  0.40504  Biso   1.000  C
  C180     1.0000 0.65122  0.20642  0.59736  Biso   1.000  C
  C181     1.0000 0.45065  0.18105  0.95380  Biso   1.000  C
  C182     1.0000 0.34066  0.15035  0.96327  Biso   1.000  C
  C183     1.0000 0.33021  0.11792  0.94659  Biso   1.000  C
  C184     1.0000 0.42778  0.11358  0.91864  Biso   1.000  C
  C185     1.0000 0.53199  0.14205  0.90868  Biso   1.000  C
  C186     1.0000 0.54824  0.17758  0.92516  Biso   1.000  C
  C187     1.0000 0.65559  0.20826  0.91519  Biso   1.000  C
  C188     1.0000 0.76060  0.20758  0.88298  Biso   1.000  C
  C189     1.0000 0.66576  0.24061  0.93473  Biso   1.000  C
  C190     1.0000 0.77228  0.27092  0.92868  Biso   1.000  C
  C191     1.0000 0.77819  0.30061  0.94934  Biso   1.000  C
  C192     1.0000 0.67689  0.30256  0.97589  Biso   1.000  C
  C193     1.0000 0.57197  0.27422  0.98331  Biso   1.000  C
  C194     1.0000 0.56369  0.24163  0.96326  Biso   1.000  C
  C195     1.0000 0.32638  0.30972  0.75568  Biso   1.000  C
  C196     1.0000 0.29837  0.25903  0.79232  Biso   1.000  C
  C197     1.0000 0.37476  0.23722  0.82034  Biso   1.000  C
  C198     1.0000 0.48366  0.26556  0.81388  Biso   1.000  C
  C199     1.0000 0.51360  0.31420  0.78080  Biso   1.000  C
  C200     1.0000 0.43654  0.33873  0.75001  Biso   1.000  C
  C201     1.0000 0.46546  0.38904  0.71356  Biso   1.000  C
  C202     1.0000 0.57919  0.42103  0.70736  Biso   1.000  C
  C203     1.0000 0.38897  0.41022  0.68311  Biso   1.000  C
  C204     1.0000 0.41298  0.46067  0.64383  Biso   1.000  C
  C205     1.0000 0.33603  0.47947  0.61568  Biso   1.000  C
  C206     1.0000 0.22626  0.44839  0.62561  Biso   1.000  C
  C207     1.0000 0.20022  0.40079  0.66183  Biso   1.000  C
  C208     1.0000 0.27958  0.37922  0.69198  Biso   1.000  C
  C209     1.0000 0.52421  0.55354  0.69221  Biso   1.000  C
  C210     1.0000 0.49437  0.53714  0.74403  Biso   1.000  C
  C211     1.0000 0.39701  0.54632  0.76299  Biso   1.000  C
  C212     1.0000 0.32451  0.57193  0.73250  Biso   1.000  C
  C213     1.0000 0.35148  0.58925  0.68331  Biso   1.000  C
  C214     1.0000 0.45181  0.58102  0.66089  Biso   1.000  C
  C215     1.0000 0.48193  0.59775  0.61006  Biso   1.000  C
  C216     1.0000 0.41125  0.62898  0.57553  Biso   1.000  C
  C217     1.0000 0.57895  0.58596  0.59131  Biso   1.000  C
  C218     1.0000 0.61157  0.60000  0.54049  Biso   1.000  C
  C219     1.0000 0.70546  0.58765  0.52367  Biso   1.000  C
  C220     1.0000 0.77360  0.56075  0.55695  Biso   1.000  C
  C221     1.0000 0.74490  0.54608  0.60588  Biso   1.000  C
  C222     1.0000 0.64659  0.55811  0.62484  Biso   1.000  C
  C223     1.0000 0.52318  0.31759  0.55955  Biso   1.000  C
  C224     1.0000 0.63792  0.34458  0.54892  Biso   1.000  C
  C225     1.0000 0.66193  0.37916  0.56247  Biso   1.000  C
  C226     1.0000 0.57241  0.38889  0.58906  Biso   1.000  C
  C227     1.0000 0.46219  0.36317  0.60120  Biso   1.000  C
  C228     1.0000 0.43386  0.32636  0.58758  Biso   1.000  C
  C229     1.0000 0.32128  0.29866  0.59972  Biso   1.000  C
  C230     1.0000 0.22524  0.30371  0.63249  Biso   1.000  C
  C231     1.0000 0.29700  0.26552  0.58212  Biso   1.000  C
  C232     1.0000 0.18316  0.23852  0.59034  Biso   1.000  C
  C233     1.0000 0.16510  0.20834  0.57144  Biso   1.000  C
  C234     1.0000 0.25700  0.20129  0.54459  Biso   1.000  C
  C235     1.0000 0.36646  0.22572  0.53614  Biso   1.000  C
  C236     1.0000 0.39104  0.25932  0.55360  Biso   1.000  C
  C237     1.0000 0.98630  0.20233  0.71753  Biso   1.000  C
  C238     1.0000 0.01553  0.31133  0.80094  Biso   1.000  C
  C239     1.0000 0.83333  0.59496  0.69397  Biso   1.000  C
  C240     1.0000 0.75142  0.40264  0.80378  Biso   1.000  C
  C241     1.0000 0.40445  0.95380  0.86515  Biso   1.000  C
  C242     1.0000 0.30393  0.96327  0.88638  Biso   1.000  C
  C243     1.0000 0.27680  0.94659  0.93549  Biso   1.000  C
  C244     1.0000 0.34642  0.91864  0.96778  Biso   1.000  C
  C245     1.0000 0.44067  0.90868  0.94927  Biso   1.000  C
  C246     1.0000 0.47340  0.92516  0.89726  Biso   1.000  C
  C247     1.0000 0.57078  0.91519  0.87655  Biso   1.000  C
  C248     1.0000 0.64358  0.88298  0.90944  Biso   1.000  C
  C249     1.0000 0.60049  0.93473  0.82466  Biso   1.000  C
  C250     1.0000 0.70096  0.92868  0.80040  Biso   1.000  C
  C251     1.0000 0.72753  0.94934  0.75005  Biso   1.000  C
  C252     1.0000 0.65278  0.97589  0.72155  Biso   1.000  C
  C253     1.0000 0.55528  0.98331  0.74247  Biso   1.000  C
  C254     1.0000 0.52695  0.96326  0.79511  Biso   1.000  C
  C255     1.0000 0.08206  0.75568  0.93460  Biso   1.000  C
  C256     1.0000 0.09069  0.79232  0.94865  Biso   1.000  C
  C257     1.0000 0.19510  0.82034  0.94244  Biso   1.000  C
  C258     1.0000 0.29754  0.81388  0.92056  Biso   1.000  C
  C259     1.0000 0.29440  0.78080  0.90500  Biso   1.000  C
  C260     1.0000 0.18655  0.75001  0.91126  Biso   1.000  C
  C261     1.0000 0.17902  0.71356  0.89740  Biso   1.000  C
  C262     1.0000 0.28655  0.70736  0.87161  Biso   1.000  C
  C263     1.0000 0.07208  0.68311  0.90667  Biso   1.000  C
  C264     1.0000 0.05681  0.64383  0.89550  Biso   1.000  C
  C265     1.0000 0.95171  0.61568  0.90485  Biso   1.000  C
  C266     1.0000 0.85187  0.62561  0.92600  Biso   1.000  C
  C267     1.0000 0.86205  0.66183  0.93738  Biso   1.000  C
  C268     1.0000 0.97156  0.69198  0.92880  Biso   1.000  C
  C269     1.0000 0.21642  0.69221  0.75425  Biso   1.000  C
  C270     1.0000 0.23840  0.74403  0.71883  Biso   1.000  C
  C271     1.0000 0.16000  0.76299  0.69069  Biso   1.000  C
  C272     1.0000 0.05701  0.73250  0.69557  Biso   1.000  C
  C273     1.0000 0.03479  0.68331  0.72744  Biso   1.000  C
  C274     1.0000 0.11270  0.66089  0.75809  Biso   1.000  C
  C275     1.0000 0.09199  0.61006  0.79219  Biso   1.000  C
  C276     1.0000 0.98678  0.57553  0.79549  Biso   1.000  C
  C277     1.0000 0.17026  0.59131  0.82273  Biso   1.000  C
  C278     1.0000 0.15206  0.54049  0.85951  Biso   1.000  C
  C279     1.0000 0.22913  0.52367  0.88868  Biso   1.000  C
  C280     1.0000 0.33055  0.55695  0.88230  Biso   1.000  C
  C281     1.0000 0.35078  0.60588  0.84804  Biso   1.000  C
  C282     1.0000 0.27143  0.62484  0.81705  Biso   1.000  C
  C283     1.0000 0.08273  0.55955  0.12286  Biso   1.000  C
  C284     1.0000 0.18684  0.54892  0.10650  Biso   1.000  C
  C285     1.0000 0.22440  0.56247  0.05837  Biso   1.000  C
  C286     1.0000 0.16147  0.58906  0.02205  Biso   1.000  C
  C287     1.0000 0.06339  0.60120  0.03563  Biso   1.000  C
  C288     1.0000 0.02144  0.58758  0.08606  Biso   1.000  C
  C289     1.0000 0.92100  0.59972  0.10162  Biso   1.000  C
  C290     1.0000 0.85773  0.63249  0.06380  Biso   1.000  C
  C291     1.0000 0.87912  0.58212  0.15236  Biso   1.000  C
  C292     1.0000 0.77350  0.59034  0.17114  Biso   1.000  C
  C293     1.0000 0.73654  0.57144  0.22022  Biso   1.000  C
  C294     1.0000 0.80159  0.54459  0.25412  Biso   1.000  C
  C295     1.0000 0.90260  0.53614  0.23814  Biso   1.000  C
  C296     1.0000 0.94464  0.55360  0.18708  Biso   1.000  C
  C297     1.0000 0.70383  0.71753  0.08014  Biso   1.000  C
  C298     1.0000 0.81647  0.80094  0.88773  Biso   1.000  C
  C299     1.0000 0.52730  0.69397  0.71107  Biso   1.000  C
  C300     1.0000 0.55520  0.80378  0.79358  Biso   1.000  C
  C301     1.0000 0.26960  0.86515  0.18105  Biso   1.000  C
  C302     1.0000 0.19031  0.88638  0.15035  Biso   1.000  C
  C303     1.0000 0.21229  0.93549  0.11792  Biso   1.000  C
  C304     1.0000 0.31420  0.96778  0.11358  Biso   1.000  C
  C305     1.0000 0.38994  0.94927  0.14205  Biso   1.000  C
  C306     1.0000 0.37066  0.89726  0.17758  Biso   1.000  C
  C307     1.0000 0.44733  0.87655  0.20826  Biso   1.000  C
  C308     1.0000 0.55302  0.90944  0.20758  Biso   1.000  C
  C309     1.0000 0.42515  0.82466  0.24061  Biso   1.000  C
  C310     1.0000 0.50136  0.80040  0.27092  Biso   1.000  C
  C311     1.0000 0.47758  0.75005  0.30061  Biso   1.000  C
  C312     1.0000 0.37433  0.72155  0.30256  Biso   1.000  C
  C313     1.0000 0.29775  0.74247  0.27422  Biso   1.000  C
  C314     1.0000 0.32206  0.79511  0.24163  Biso   1.000  C
  C315     1.0000 0.01666  0.93460  0.30972  Biso   1.000  C
  C316     1.0000 0.03934  0.94865  0.25903  Biso   1.000  C
  C317     1.0000 0.13754  0.94244  0.23722  Biso   1.000  C
  C318     1.0000 0.21810  0.92056  0.26556  Biso   1.000  C
  C319     1.0000 0.19940  0.90500  0.31420  Biso   1.000  C
  C320     1.0000 0.09781  0.91126  0.33873  Biso   1.000  C
  C321     1.0000 0.07642  0.89740  0.38904  Biso   1.000  C
  C322     1.0000 0.15816  0.87161  0.42103  Biso   1.000  C
  C323     1.0000 0.97875  0.90667  0.41022  Biso   1.000  C
  C324     1.0000 0.95231  0.89550  0.46067  Biso   1.000  C
  C325     1.0000 0.85656  0.90485  0.47947  Biso   1.000  C
  C326     1.0000 0.77787  0.92600  0.44839  Biso   1.000  C
  C327     1.0000 0.79943  0.93738  0.40079  Biso   1.000  C
  C328     1.0000 0.90036  0.92880  0.37922  Biso   1.000  C
  C329     1.0000 0.97067  0.75425  0.55354  Biso   1.000  C
  C330     1.0000 0.95723  0.71883  0.53714  Biso   1.000  C
  C331     1.0000 0.85069  0.69069  0.54632  Biso   1.000  C
  C332     1.0000 0.75258  0.69557  0.57193  Biso   1.000  C
  C333     1.0000 0.76223  0.72744  0.58925  Biso   1.000  C
  C334     1.0000 0.87079  0.75809  0.58102  Biso   1.000  C
  C335     1.0000 0.88418  0.79219  0.59775  Biso   1.000  C
  C336     1.0000 0.78227  0.79549  0.62898  Biso   1.000  C
  C337     1.0000 0.99299  0.82273  0.58596  Biso   1.000  C
  C338     1.0000 0.01157  0.85951  0.60000  Biso   1.000  C
  C339     1.0000 0.11781  0.88868  0.58765  Biso   1.000  C
  C340     1.0000 0.21285  0.88230  0.56075  Biso   1.000  C
  C341     1.0000 0.19882  0.84804  0.54608  Biso   1.000  C
  C342     1.0000 0.08848  0.81705  0.55811  Biso   1.000  C
  C343     1.0000 0.20559  0.12286  0.31759  Biso   1.000  C
  C344     1.0000 0.29334  0.10650  0.34458  Biso   1.000  C
  C345     1.0000 0.28277  0.05837  0.37916  Biso   1.000  C
  C346     1.0000 0.18352  0.02205  0.38889  Biso   1.000  C
  C347     1.0000 0.09902  0.03563  0.36317  Biso   1.000  C
  C348     1.0000 0.10750  0.08606  0.32636  Biso   1.000  C
  C349     1.0000 0.02262  0.10162  0.29866  Biso   1.000  C
  C350     1.0000 0.92153  0.06380  0.30371  Biso   1.000  C
  C351     1.0000 0.03148  0.15236  0.26552  Biso   1.000  C
  C352     1.0000 0.94464  0.17114  0.23852  Biso   1.000  C
  C353     1.0000 0.95676  0.22022  0.20834  Biso   1.000  C
  C354     1.0000 0.05571  0.25412  0.20129  Biso   1.000  C
  C355     1.0000 0.14074  0.23814  0.22572  Biso   1.000  C
  C356     1.0000 0.13172  0.18708  0.25932  Biso   1.000  C
  C357     1.0000 0.78397  0.08014  0.20233  Biso   1.000  C
  C358     1.0000 0.70420  0.88773  0.31133  Biso   1.000  C
  C359     1.0000 0.23837  0.71107  0.59496  Biso   1.000  C
  C360     1.0000 0.34878  0.79358  0.40264  Biso   1.000  C
  N1       1.0000 0.54168  0.78752  0.02728  Biso   1.000  N
  N2       1.0000 0.74847  0.66941  0.27280  Biso   1.000  N
  N3       1.0000 0.38049  0.45785  0.32548  Biso   1.000  N
  N4       1.0000 0.50000  0.71525  0.45625  Biso   1.000  N
  N5       1.0000 0.56896  0.02728  0.18520  Biso   1.000  N
  N6       1.0000 0.02127  0.27280  0.05779  Biso   1.000  N
  N7       1.0000 0.70597  0.32548  0.21667  Biso   1.000  N
  N8       1.0000 0.95625  0.45625  0.82850  Biso   1.000  N
  N9       1.0000 0.75416  0.18520  0.78752  Biso   1.000  N
  N10      1.0000 0.07906  0.05779  0.66941  Biso   1.000  N
  N11      1.0000 0.92264  0.21667  0.45785  Biso   1.000  N
  N12      1.0000 0.78475  0.82850  0.71525  Biso   1.000  N
  N13      1.0000 0.45832  0.21248  0.97272  Biso   1.000  N
  N14      1.0000 0.25153  0.33059  0.72720  Biso   1.000  N
  N15      1.0000 0.61951  0.54215  0.67452  Biso   1.000  N
  N16      1.0000 0.50000  0.28475  0.54375  Biso   1.000  N
  N17      1.0000 0.43104  0.97272  0.81480  Biso   1.000  N
  N18      1.0000 0.97873  0.72720  0.94221  Biso   1.000  N
  N19      1.0000 0.29403  0.67452  0.78333  Biso   1.000  N
  N20      1.0000 0.04375  0.54375  0.17150  Biso   1.000  N
  N21      1.0000 0.24584  0.81480  0.21248  Biso   1.000  N
  N22      1.0000 0.92094  0.94221  0.33059  Biso   1.000  N
  N23      1.0000 0.07736  0.78333  0.54215  Biso   1.000  N
  N24      1.0000 0.21525  0.17150  0.28475  Biso   1.000  N
  O1       1.0000 0.22803  0.76151  0.16312  Biso   1.000  O
  O2       1.0000 0.17857  0.82134  0.09803  Biso   1.000  O
  O3       1.0000 0.42469  0.55977  0.26480  Biso   1.000  O
  O4       1.0000 0.33772  0.57250  0.32334  Biso   1.000  O
  O5       1.0000 0.55592  0.32467  0.44091  Biso   1.000  O
  O6       1.0000 0.66878  0.39127  0.43383  Biso   1.000  O
  O7       1.0000 0.77758  0.72276  0.32102  Biso   1.000  O
  O8       1.0000 0.84116  0.66889  0.38601  Biso   1.000  O
  O9       1.0000 0.00614  0.76830  0.25898  Biso   1.000  O
  O10      1.0000 0.99216  0.71799  0.22151  Biso   1.000  O
  O11      1.0000 0.18820  0.45696  0.27626  Biso   1.000  O
  O12      1.0000 0.22956  0.54437  0.22429  Biso   1.000  O
  O13      1.0000 0.39115  0.16312  0.07537  Biso   1.000  O
  O14      1.0000 0.27660  0.09803  0.08063  Biso   1.000  O
  O15      1.0000 0.68949  0.26480  0.17543  Biso   1.000  O
  O16      1.0000 0.66106  0.32334  0.10416  Biso   1.000  O
  O17      1.0000 0.99683  0.44091  0.23442  Biso   1.000  O
  O18      1.0000 0.10261  0.43383  0.17490  Biso   1.000  O
  O19      1.0000 0.09860  0.32102  0.95622  Biso   1.000  O
  O20      1.0000 0.22717  0.38601  0.94510  Biso   1.000  O
  O21      1.0000 0.26512  0.25898  0.97272  Biso   1.000  O
  O22      1.0000 0.21367  0.22151  0.06050  Biso   1.000  O
  O23      1.0000 0.46446  0.27626  0.26678  Biso   1.000  O
  O24      1.0000 0.45385  0.22429  0.23134  Biso   1.000  O
  O25      1.0000 0.46652  0.07537  0.76151  Biso   1.000  O
  O26      1.0000 0.35723  0.08063  0.82134  Biso   1.000  O
  O27      1.0000 0.86492  0.17543  0.55977  Biso   1.000  O
  O28      1.0000 0.76522  0.10416  0.57250  Biso   1.000  O
  O29      1.0000 0.23125  0.23442  0.32467  Biso   1.000  O
  O30      1.0000 0.27751  0.17490  0.39127  Biso   1.000  O
  O31      1.0000 0.05482  0.95622  0.72276  Biso   1.000  O
  O32      1.0000 0.17227  0.94510  0.66889  Biso   1.000  O
  O33      1.0000 0.23784  0.97272  0.76830  Biso   1.000  O
  O34      1.0000 0.27417  0.06050  0.71799  Biso   1.000  O
  O35      1.0000 0.73124  0.26678  0.45696  Biso   1.000  O
  O36      1.0000 0.68519  0.23134  0.54437  Biso   1.000  O
  O37      1.0000 0.77197  0.23849  0.83688  Biso   1.000  O
  O38      1.0000 0.82143  0.17866  0.90197  Biso   1.000  O
  O39      1.0000 0.57531  0.44023  0.73520  Biso   1.000  O
  O40      1.0000 0.66228  0.42750  0.67666  Biso   1.000  O
  O41      1.0000 0.44408  0.67533  0.55909  Biso   1.000  O
  O42      1.0000 0.33122  0.60873  0.56617  Biso   1.000  O
  O43      1.0000 0.22242  0.27724  0.67898  Biso   1.000  O
  O44      1.0000 0.15884  0.33111  0.61399  Biso   1.000  O
  O45      1.0000 0.99386  0.23170  0.74102  Biso   1.000  O
  O46      1.0000 0.00784  0.28201  0.77849  Biso   1.000  O
  O47      1.0000 0.81180  0.54304  0.72374  Biso   1.000  O
  O48      1.0000 0.77044  0.45563  0.77571  Biso   1.000  O
  O49      1.0000 0.60885  0.83688  0.92463  Biso   1.000  O
  O50      1.0000 0.72340  0.90197  0.91937  Biso   1.000  O
  O51      1.0000 0.31051  0.73520  0.82457  Biso   1.000  O
  O52      1.0000 0.33894  0.67666  0.89584  Biso   1.000  O
  O53      1.0000 0.00317  0.55909  0.76558  Biso   1.000  O
  O54      1.0000 0.89739  0.56617  0.82510  Biso   1.000  O
  O55      1.0000 0.90140  0.67898  0.04378  Biso   1.000  O
  O56      1.0000 0.77283  0.61399  0.05490  Biso   1.000  O
  O57      1.0000 0.73488  0.74102  0.02728  Biso   1.000  O
  O58      1.0000 0.78633  0.77849  0.93950  Biso   1.000  O
  O59      1.0000 0.53554  0.72374  0.73322  Biso   1.000  O
  O60      1.0000 0.54615  0.77571  0.76866  Biso   1.000  O
  O61      1.0000 0.53348  0.92463  0.23849  Biso   1.000  O
  O62      1.0000 0.64277  0.91937  0.17866  Biso   1.000  O
  O63      1.0000 0.13508  0.82457  0.44023  Biso   1.000  O
  O64      1.0000 0.23478  0.89584  0.42750  Biso   1.000  O
  O65      1.0000 0.76875  0.76558  0.67533  Biso   1.000  O
  O66      1.0000 0.72249  0.82510  0.60873  Biso   1.000  O
  O67      1.0000 0.94518  0.04378  0.27724  Biso   1.000  O
  O68      1.0000 0.82773  0.05490  0.33111  Biso   1.000  O
  O69      1.0000 0.76216  0.02728  0.23170  Biso   1.000  O
  O70      1.0000 0.72583  0.93950  0.28201  Biso   1.000  O
  O71      1.0000 0.26876  0.73322  0.54304  Biso   1.000  O
  O72      1.0000 0.31481  0.76866  0.45563  Biso   1.000  O
