data_image0
_cell_length_a       12.0702
_cell_length_b       24.951
_cell_length_c       50.623
_cell_angle_alpha    90
_cell_angle_beta     95.774
_cell_angle_gamma    90

_symmetry_space_group_name_H-M    "P 1"
_symmetry_int_tables_number       1

loop_
  _symmetry_equiv_pos_as_xyz
  'x, y, z'

loop_
  _atom_site_label
  _atom_site_occupancy
  _atom_site_fract_x
  _atom_site_fract_y
  _atom_site_fract_z
  _atom_site_thermal_displace_type
  _atom_site_B_iso_or_equiv
  _atom_site_type_symbol
  S1       1.0000 0.71895  0.90177  0.15997  Biso   1.000  S
  C1       1.0000 0.57860  0.89210  0.16712  Biso   1.000  C
  C2       1.0000 0.51040  0.93490  0.17263  Biso   1.000  C
  C3       1.0000 0.40060  0.92220  0.17859  Biso   1.000  C
  C4       1.0000 0.36900  0.86870  0.18060  Biso   1.000  C
  H1       1.0000 0.29570  0.86120  0.18490  Biso   1.000  H
  C5       1.0000 0.43820  0.82610  0.17670  Biso   1.000  C
  C6       1.0000 0.54240  0.83870  0.16952  Biso   1.000  C
  H2       1.0000 0.59160  0.81040  0.16610  Biso   1.000  H
  S2       1.0000 0.56206  0.00084  0.17590  Biso   1.000  S
  C7       1.0000 0.57700  0.00470  0.21330  Biso   1.000  C
  H3       1.0000 0.61360  0.03890  0.21890  Biso   1.000  H
  H4       1.0000 0.50200  0.00460  0.21960  Biso   1.000  H
  C8       1.0000 0.64080  0.96100  0.22550  Biso   1.000  C
  C9       1.0000 0.75740  0.96470  0.23200  Biso   1.000  C
  H5       1.0000 0.79390  0.99720  0.22820  Biso   1.000  H
  N1       1.0000 0.81680  0.92530  0.24283  Biso   1.000  N
  C10      1.0000 0.76410  0.87920  0.24800  Biso   1.000  C
  H6       1.0000 0.80750  0.85050  0.25580  Biso   1.000  H
  C11      1.0000 0.65280  0.87170  0.24280  Biso   1.000  C
  H7       1.0000 0.61830  0.83940  0.24760  Biso   1.000  H
  C12      1.0000 0.59050  0.91330  0.23000  Biso   1.000  C
  H8       1.0000 0.51370  0.90830  0.22440  Biso   1.000  H
  C13      1.0000 0.40490  0.76700  0.18080  Biso   1.000  C
  C14      1.0000 0.42730  0.75460  0.20880  Biso   1.000  C
  H9       1.0000 0.39030  0.78100  0.21930  Biso   1.000  H
  H10      1.0000 0.50780  0.75560  0.21390  Biso   1.000  H
  H11      1.0000 0.39890  0.71870  0.21220  Biso   1.000  H
  C15      1.0000 0.46510  0.72810  0.16420  Biso   1.000  C
  H12      1.0000 0.54570  0.73240  0.16830  Biso   1.000  H
  H13      1.0000 0.44480  0.73560  0.14530  Biso   1.000  H
  H14      1.0000 0.44370  0.69140  0.16820  Biso   1.000  H
  C16      1.0000 0.28470  0.76020  0.17490  Biso   1.000  C
  H15      1.0000 0.26830  0.72280  0.17010  Biso   1.000  H
  H16      1.0000 0.25780  0.78360  0.16000  Biso   1.000  H
  H17      1.0000 0.24730  0.76960  0.19060  Biso   1.000  H
  S3       1.0000 0.30258  0.97202  0.18586  Biso   1.000  S
  C17      1.0000 0.27970  0.00650  0.15500  Biso   1.000  C
  C18      1.0000 0.22680  0.98320  0.13207  Biso   1.000  C
  C19      1.0000 0.21130  0.01390  0.10860  Biso   1.000  C
  C20      1.0000 0.24330  0.06790  0.10920  Biso   1.000  C
  H18      1.0000 0.22960  0.08890  0.09350  Biso   1.000  H
  C21      1.0000 0.29560  0.09200  0.13250  Biso   1.000  C
  C22      1.0000 0.31520  0.06090  0.15430  Biso   1.000  C
  H19      1.0000 0.35420  0.07590  0.16980  Biso   1.000  H
  S4       1.0000 0.17010  0.91746  0.13288  Biso   1.000  S
  C23      1.0000 0.02770  0.93070  0.14240  Biso   1.000  C
  H20      1.0000 0.02160  0.96700  0.15010  Biso   1.000  H
  H21      1.0000 0.97030  0.92620  0.12720  Biso   1.000  H
  C24      1.0000 0.01940  0.88570  0.16390  Biso   1.000  C
  C25      1.0000 0.02010  0.91230  0.18810  Biso   1.000  C
  H22      1.0000 0.03360  0.94980  0.18900  Biso   1.000  H
  N2       1.0000 0.00110  0.88410  0.21080  Biso   1.000  N
  C26      1.0000 0.98130  0.82920  0.20950  Biso   1.000  C
  H23      1.0000 0.96830  0.81000  0.22510  Biso   1.000  H
  C27      1.0000 0.98060  0.80260  0.18540  Biso   1.000  C
  H24      1.0000 0.96710  0.76510  0.18450  Biso   1.000  H
  C28      1.0000 0.99970  0.83080  0.16259  Biso   1.000  C
  H25      1.0000 0.99920  0.81260  0.14610  Biso   1.000  H
  C29      1.0000 0.33080  0.15080  0.13370  Biso   1.000  C
  C30      1.0000 0.35060  0.17060  0.10550  Biso   1.000  C
  H26      1.0000 0.27940  0.17180  0.09430  Biso   1.000  H
  H27      1.0000 0.40140  0.14600  0.09760  Biso   1.000  H
  H28      1.0000 0.38330  0.20660  0.10670  Biso   1.000  H
  C31      1.0000 0.24320  0.18330  0.14370  Biso   1.000  C
  H29      1.0000 0.17720  0.18300  0.13070  Biso   1.000  H
  H30      1.0000 0.26960  0.22020  0.14640  Biso   1.000  H
  H31      1.0000 0.22390  0.16850  0.16050  Biso   1.000  H
  C32      1.0000 0.44060  0.15800  0.15230  Biso   1.000  C
  H32      1.0000 0.45840  0.19620  0.15410  Biso   1.000  H
  H33      1.0000 0.50140  0.13930  0.14470  Biso   1.000  H
  H34      1.0000 0.43130  0.14300  0.16980  Biso   1.000  H
  S5       1.0000 0.14900  0.98864  0.07800  Biso   1.000  S
  C33      1.0000 0.25180  0.94040  0.06962  Biso   1.000  C
  C34      1.0000 0.35710  0.95470  0.06387  Biso   1.000  C
  C35      1.0000 0.43240  0.91340  0.05839  Biso   1.000  C
  C36      1.0000 0.39630  0.86030  0.05731  Biso   1.000  C
  H35      1.0000 0.44550  0.83320  0.05230  Biso   1.000  H
  C37      1.0000 0.29050  0.84570  0.06335  Biso   1.000  C
  C38      1.0000 0.21790  0.88620  0.06958  Biso   1.000  C
  H36      1.0000 0.14520  0.87730  0.07380  Biso   1.000  H
  S6       1.0000 0.39840  0.02351  0.06269  Biso   1.000  S
  C39      1.0000 0.36600  0.03550  0.02764  Biso   1.000  C
  H37      1.0000 0.39900  0.00700  0.01730  Biso   1.000  H
  H38      1.0000 0.28430  0.03520  0.02310  Biso   1.000  H
  C40      1.0000 0.41340  0.09000  0.02085  Biso   1.000  C
  C41      1.0000 0.33890  0.13400  0.01768  Biso   1.000  C
  H39      1.0000 0.26260  0.12830  0.01990  Biso   1.000  H
  N3       1.0000 0.37160  0.18260  0.01175  Biso   1.000  N
  C42      1.0000 0.48240  0.19110  0.00955  Biso   1.000  C
  H40      1.0000 0.50720  0.22590  0.00540  Biso   1.000  H
  C43      1.0000 0.55940  0.14930  0.01330  Biso   1.000  C
  H41      1.0000 0.63630  0.15580  0.01220  Biso   1.000  H
  C44      1.0000 0.52210  0.09840  0.01878  Biso   1.000  C
  H42      1.0000 0.57330  0.06950  0.02110  Biso   1.000  H
  C45      1.0000 0.25840  0.78610  0.06480  Biso   1.000  C
  C46      1.0000 0.28280  0.75710  0.03970  Biso   1.000  C
  H43      1.0000 0.27100  0.71850  0.04180  Biso   1.000  H
  H44      1.0000 0.36020  0.76360  0.03630  Biso   1.000  H
  H45      1.0000 0.23280  0.77040  0.02460  Biso   1.000  H
  C47      1.0000 0.33390  0.76330  0.08890  Biso   1.000  C
  H46      1.0000 0.33240  0.78760  0.10400  Biso   1.000  H
  H47      1.0000 0.41040  0.76000  0.08420  Biso   1.000  H
  H48      1.0000 0.30640  0.72800  0.09360  Biso   1.000  H
  C48      1.0000 0.14000  0.77700  0.06810  Biso   1.000  C
  H49      1.0000 0.09400  0.80090  0.05610  Biso   1.000  H
  H50      1.0000 0.12650  0.78450  0.08650  Biso   1.000  H
  H51      1.0000 0.12060  0.73970  0.06380  Biso   1.000  H
  S7       1.0000 0.57202  0.92622  0.05174  Biso   1.000  S
  C49      1.0000 0.63430  0.94940  0.08333  Biso   1.000  C
  C50      1.0000 0.64900  0.91650  0.10570  Biso   1.000  C
  C51      1.0000 0.69920  0.93900  0.12968  Biso   1.000  C
  C52      1.0000 0.74250  0.99030  0.12955  Biso   1.000  C
  H52      1.0000 0.78140  0.00390  0.14540  Biso   1.000  H
  C53      1.0000 0.73110  0.02260  0.10698  Biso   1.000  C
  C54      1.0000 0.67560  0.00130  0.08452  Biso   1.000  C
  H53      1.0000 0.66490  0.02300  0.06910  Biso   1.000  H
  S8       1.0000 0.60783  0.84794  0.10466  Biso   1.000  S
  C55      1.0000 0.74690  0.81830  0.10510  Biso   1.000  C
  H54      1.0000 0.79530  0.83310  0.12030  Biso   1.000  H
  H55      1.0000 0.74140  0.77910  0.10770  Biso   1.000  H
  C56      1.0000 0.79900  0.82900  0.08000  Biso   1.000  C
  C57      1.0000 0.77760  0.79520  0.05840  Biso   1.000  C
  H56      1.0000 0.73360  0.76430  0.06080  Biso   1.000  H
  N4       1.0000 0.81320  0.80220  0.03503  Biso   1.000  N
  C58      1.0000 0.88010  0.84520  0.03220  Biso   1.000  C
  H57      1.0000 0.91230  0.85000  0.01600  Biso   1.000  H
  C59      1.0000 0.90260  0.88220  0.05250  Biso   1.000  C
  H58      1.0000 0.94550  0.91330  0.04980  Biso   1.000  H
  C60      1.0000 0.86240  0.87350  0.07640  Biso   1.000  C
  H59      1.0000 0.87820  0.89830  0.09050  Biso   1.000  H
  C61      1.0000 0.77460  0.08230  0.10790  Biso   1.000  C
  C62      1.0000 0.71900  0.11510  0.12870  Biso   1.000  C
  H60      1.0000 0.70880  0.09250  0.14410  Biso   1.000  H
  H61      1.0000 0.64630  0.12810  0.12090  Biso   1.000  H
  H62      1.0000 0.76630  0.14580  0.13440  Biso   1.000  H
  C63      1.0000 0.76200  0.11190  0.08070  Biso   1.000  C
  H63      1.0000 0.83410  0.11370  0.07360  Biso   1.000  H
  H64      1.0000 0.73410  0.14840  0.08320  Biso   1.000  H
  H65      1.0000 0.70860  0.09250  0.06830  Biso   1.000  H
  C64      1.0000 0.90100  0.07630  0.11670  Biso   1.000  C
  H66      1.0000 0.93150  0.04700  0.10670  Biso   1.000  H
  H67      1.0000 0.91200  0.06820  0.13570  Biso   1.000  H
  H68      1.0000 0.93930  0.10980  0.11320  Biso   1.000  H
  N5       1.0000 0.00700  0.00180  0.22960  Biso   1.000  N
  C65      1.0000 0.01950  0.03340  0.21310  Biso   1.000  C
  S9       1.0000 0.01010  0.08091  0.19167  Biso   1.000  S
  N6       1.0000 0.86580  0.78660  0.97722  Biso   1.000  N
  C66      1.0000 0.90540  0.81160  0.96190  Biso   1.000  C
  S10      1.0000 0.95460  0.84565  0.93850  Biso   1.000  S
  S11      1.0000 0.21895  0.40177  0.15997  Biso   1.000  S
  C67      1.0000 0.07860  0.39210  0.16712  Biso   1.000  C
  C68      1.0000 0.01040  0.43490  0.17263  Biso   1.000  C
  C69      1.0000 0.90060  0.42220  0.17859  Biso   1.000  C
  C70      1.0000 0.86900  0.36870  0.18060  Biso   1.000  C
  H69      1.0000 0.79570  0.36120  0.18490  Biso   1.000  H
  C71      1.0000 0.93820  0.32610  0.17670  Biso   1.000  C
  C72      1.0000 0.04240  0.33870  0.16952  Biso   1.000  C
  H70      1.0000 0.09160  0.31040  0.16610  Biso   1.000  H
  S12      1.0000 0.06206  0.50084  0.17590  Biso   1.000  S
  C73      1.0000 0.07700  0.50470  0.21330  Biso   1.000  C
  H71      1.0000 0.11360  0.53890  0.21890  Biso   1.000  H
  H72      1.0000 0.00200  0.50460  0.21960  Biso   1.000  H
  C74      1.0000 0.14080  0.46100  0.22550  Biso   1.000  C
  C75      1.0000 0.25740  0.46470  0.23200  Biso   1.000  C
  H73      1.0000 0.29390  0.49720  0.22820  Biso   1.000  H
  N7       1.0000 0.31680  0.42530  0.24283  Biso   1.000  N
  C76      1.0000 0.26410  0.37920  0.24800  Biso   1.000  C
  H74      1.0000 0.30750  0.35050  0.25580  Biso   1.000  H
  C77      1.0000 0.15280  0.37170  0.24280  Biso   1.000  C
  H75      1.0000 0.11830  0.33940  0.24760  Biso   1.000  H
  C78      1.0000 0.09050  0.41330  0.23000  Biso   1.000  C
  H76      1.0000 0.01370  0.40830  0.22440  Biso   1.000  H
  C79      1.0000 0.90490  0.26700  0.18080  Biso   1.000  C
  C80      1.0000 0.92730  0.25460  0.20880  Biso   1.000  C
  H77      1.0000 0.89030  0.28100  0.21930  Biso   1.000  H
  H78      1.0000 0.00780  0.25560  0.21390  Biso   1.000  H
  H79      1.0000 0.89890  0.21870  0.21220  Biso   1.000  H
  C81      1.0000 0.96510  0.22810  0.16420  Biso   1.000  C
  H80      1.0000 0.04570  0.23240  0.16830  Biso   1.000  H
  H81      1.0000 0.94480  0.23560  0.14530  Biso   1.000  H
  H82      1.0000 0.94370  0.19140  0.16820  Biso   1.000  H
  C82      1.0000 0.78470  0.26020  0.17490  Biso   1.000  C
  H83      1.0000 0.76830  0.22280  0.17010  Biso   1.000  H
  H84      1.0000 0.75780  0.28360  0.16000  Biso   1.000  H
  H85      1.0000 0.74730  0.26960  0.19060  Biso   1.000  H
  S13      1.0000 0.80258  0.47202  0.18586  Biso   1.000  S
  C83      1.0000 0.77970  0.50650  0.15500  Biso   1.000  C
  C84      1.0000 0.72680  0.48320  0.13207  Biso   1.000  C
  C85      1.0000 0.71130  0.51390  0.10860  Biso   1.000  C
  C86      1.0000 0.74330  0.56790  0.10920  Biso   1.000  C
  H86      1.0000 0.72960  0.58890  0.09350  Biso   1.000  H
  C87      1.0000 0.79560  0.59200  0.13250  Biso   1.000  C
  C88      1.0000 0.81520  0.56090  0.15430  Biso   1.000  C
  H87      1.0000 0.85420  0.57590  0.16980  Biso   1.000  H
  S14      1.0000 0.67010  0.41746  0.13288  Biso   1.000  S
  C89      1.0000 0.52770  0.43070  0.14240  Biso   1.000  C
  H88      1.0000 0.52160  0.46700  0.15010  Biso   1.000  H
  H89      1.0000 0.47030  0.42620  0.12720  Biso   1.000  H
  C90      1.0000 0.51940  0.38570  0.16390  Biso   1.000  C
  C91      1.0000 0.52010  0.41230  0.18810  Biso   1.000  C
  H90      1.0000 0.53360  0.44980  0.18900  Biso   1.000  H
  N8       1.0000 0.50110  0.38410  0.21080  Biso   1.000  N
  C92      1.0000 0.48130  0.32920  0.20950  Biso   1.000  C
  H91      1.0000 0.46830  0.31000  0.22510  Biso   1.000  H
  C93      1.0000 0.48060  0.30260  0.18540  Biso   1.000  C
  H92      1.0000 0.46710  0.26510  0.18450  Biso   1.000  H
  C94      1.0000 0.49970  0.33080  0.16259  Biso   1.000  C
  H93      1.0000 0.49920  0.31260  0.14610  Biso   1.000  H
  C95      1.0000 0.83080  0.65080  0.13370  Biso   1.000  C
  C96      1.0000 0.85060  0.67060  0.10550  Biso   1.000  C
  H94      1.0000 0.77940  0.67180  0.09430  Biso   1.000  H
  H95      1.0000 0.90140  0.64600  0.09760  Biso   1.000  H
  H96      1.0000 0.88330  0.70660  0.10670  Biso   1.000  H
  C97      1.0000 0.74320  0.68330  0.14370  Biso   1.000  C
  H97      1.0000 0.67720  0.68300  0.13070  Biso   1.000  H
  H98      1.0000 0.76960  0.72020  0.14640  Biso   1.000  H
  H99      1.0000 0.72390  0.66850  0.16050  Biso   1.000  H
  C98      1.0000 0.94060  0.65800  0.15230  Biso   1.000  C
  H100     1.0000 0.95840  0.69620  0.15410  Biso   1.000  H
  H101     1.0000 0.00140  0.63930  0.14470  Biso   1.000  H
  H102     1.0000 0.93130  0.64300  0.16980  Biso   1.000  H
  S15      1.0000 0.64900  0.48864  0.07800  Biso   1.000  S
  C99      1.0000 0.75180  0.44040  0.06962  Biso   1.000  C
  C100     1.0000 0.85710  0.45470  0.06387  Biso   1.000  C
  C101     1.0000 0.93240  0.41340  0.05839  Biso   1.000  C
  C102     1.0000 0.89630  0.36030  0.05731  Biso   1.000  C
  H103     1.0000 0.94550  0.33320  0.05230  Biso   1.000  H
  C103     1.0000 0.79050  0.34570  0.06335  Biso   1.000  C
  C104     1.0000 0.71790  0.38620  0.06958  Biso   1.000  C
  H104     1.0000 0.64520  0.37730  0.07380  Biso   1.000  H
  S16      1.0000 0.89840  0.52351  0.06269  Biso   1.000  S
  C105     1.0000 0.86600  0.53550  0.02764  Biso   1.000  C
  H105     1.0000 0.89900  0.50700  0.01730  Biso   1.000  H
  H106     1.0000 0.78430  0.53520  0.02310  Biso   1.000  H
  C106     1.0000 0.91340  0.59000  0.02085  Biso   1.000  C
  C107     1.0000 0.83890  0.63400  0.01768  Biso   1.000  C
  H107     1.0000 0.76260  0.62830  0.01990  Biso   1.000  H
  N9       1.0000 0.87160  0.68260  0.01175  Biso   1.000  N
  C108     1.0000 0.98240  0.69110  0.00955  Biso   1.000  C
  H108     1.0000 0.00720  0.72590  0.00540  Biso   1.000  H
  C109     1.0000 0.05940  0.64930  0.01330  Biso   1.000  C
  H109     1.0000 0.13630  0.65580  0.01220  Biso   1.000  H
  C110     1.0000 0.02210  0.59840  0.01878  Biso   1.000  C
  H110     1.0000 0.07330  0.56950  0.02110  Biso   1.000  H
  C111     1.0000 0.75840  0.28610  0.06480  Biso   1.000  C
  C112     1.0000 0.78280  0.25710  0.03970  Biso   1.000  C
  H111     1.0000 0.77100  0.21850  0.04180  Biso   1.000  H
  H112     1.0000 0.86020  0.26360  0.03630  Biso   1.000  H
  H113     1.0000 0.73280  0.27040  0.02460  Biso   1.000  H
  C113     1.0000 0.83390  0.26330  0.08890  Biso   1.000  C
  H114     1.0000 0.83240  0.28760  0.10400  Biso   1.000  H
  H115     1.0000 0.91040  0.26000  0.08420  Biso   1.000  H
  H116     1.0000 0.80640  0.22800  0.09360  Biso   1.000  H
  C114     1.0000 0.64000  0.27700  0.06810  Biso   1.000  C
  H117     1.0000 0.59400  0.30090  0.05610  Biso   1.000  H
  H118     1.0000 0.62650  0.28450  0.08650  Biso   1.000  H
  H119     1.0000 0.62060  0.23970  0.06380  Biso   1.000  H
  S17      1.0000 0.07202  0.42622  0.05174  Biso   1.000  S
  C115     1.0000 0.13430  0.44940  0.08333  Biso   1.000  C
  C116     1.0000 0.14900  0.41650  0.10570  Biso   1.000  C
  C117     1.0000 0.19920  0.43900  0.12968  Biso   1.000  C
  C118     1.0000 0.24250  0.49030  0.12955  Biso   1.000  C
  H120     1.0000 0.28140  0.50390  0.14540  Biso   1.000  H
  C119     1.0000 0.23110  0.52260  0.10698  Biso   1.000  C
  C120     1.0000 0.17560  0.50130  0.08452  Biso   1.000  C
  H121     1.0000 0.16490  0.52300  0.06910  Biso   1.000  H
  S18      1.0000 0.10783  0.34794  0.10466  Biso   1.000  S
  C121     1.0000 0.24690  0.31830  0.10510  Biso   1.000  C
  H122     1.0000 0.29530  0.33310  0.12030  Biso   1.000  H
  H123     1.0000 0.24140  0.27910  0.10770  Biso   1.000  H
  C122     1.0000 0.29900  0.32900  0.08000  Biso   1.000  C
  C123     1.0000 0.27760  0.29520  0.05840  Biso   1.000  C
  H124     1.0000 0.23360  0.26430  0.06080  Biso   1.000  H
  N10      1.0000 0.31320  0.30220  0.03503  Biso   1.000  N
  C124     1.0000 0.38010  0.34520  0.03220  Biso   1.000  C
  H125     1.0000 0.41230  0.35000  0.01600  Biso   1.000  H
  C125     1.0000 0.40260  0.38220  0.05250  Biso   1.000  C
  H126     1.0000 0.44550  0.41330  0.04980  Biso   1.000  H
  C126     1.0000 0.36240  0.37350  0.07640  Biso   1.000  C
  H127     1.0000 0.37820  0.39830  0.09050  Biso   1.000  H
  C127     1.0000 0.27460  0.58230  0.10790  Biso   1.000  C
  C128     1.0000 0.21900  0.61510  0.12870  Biso   1.000  C
  H128     1.0000 0.20880  0.59250  0.14410  Biso   1.000  H
  H129     1.0000 0.14630  0.62810  0.12090  Biso   1.000  H
  H130     1.0000 0.26630  0.64580  0.13440  Biso   1.000  H
  C129     1.0000 0.26200  0.61190  0.08070  Biso   1.000  C
  H131     1.0000 0.33410  0.61370  0.07360  Biso   1.000  H
  H132     1.0000 0.23410  0.64840  0.08320  Biso   1.000  H
  H133     1.0000 0.20860  0.59250  0.06830  Biso   1.000  H
  C130     1.0000 0.40100  0.57630  0.11670  Biso   1.000  C
  H134     1.0000 0.43150  0.54700  0.10670  Biso   1.000  H
  H135     1.0000 0.41200  0.56820  0.13570  Biso   1.000  H
  H136     1.0000 0.43930  0.60980  0.11320  Biso   1.000  H
  N11      1.0000 0.50700  0.50180  0.22960  Biso   1.000  N
  C131     1.0000 0.51950  0.53340  0.21310  Biso   1.000  C
  S19      1.0000 0.51010  0.58091  0.19167  Biso   1.000  S
  N12      1.0000 0.36580  0.28660  0.97722  Biso   1.000  N
  C132     1.0000 0.40540  0.31160  0.96190  Biso   1.000  C
  S20      1.0000 0.45460  0.34565  0.93850  Biso   1.000  S
  S21      1.0000 0.28105  0.90177  0.34003  Biso   1.000  S
  C133     1.0000 0.42140  0.89210  0.33288  Biso   1.000  C
  C134     1.0000 0.48960  0.93490  0.32737  Biso   1.000  C
  C135     1.0000 0.59940  0.92220  0.32141  Biso   1.000  C
  C136     1.0000 0.63100  0.86870  0.31940  Biso   1.000  C
  H137     1.0000 0.70430  0.86120  0.31510  Biso   1.000  H
  C137     1.0000 0.56180  0.82610  0.32330  Biso   1.000  C
  C138     1.0000 0.45760  0.83870  0.33048  Biso   1.000  C
  H138     1.0000 0.40840  0.81040  0.33390  Biso   1.000  H
  S22      1.0000 0.43794  0.00084  0.32410  Biso   1.000  S
  C139     1.0000 0.42300  0.00470  0.28670  Biso   1.000  C
  H139     1.0000 0.38640  0.03890  0.28110  Biso   1.000  H
  H140     1.0000 0.49800  0.00460  0.28040  Biso   1.000  H
  C140     1.0000 0.35920  0.96100  0.27450  Biso   1.000  C
  C141     1.0000 0.24260  0.96470  0.26800  Biso   1.000  C
  H141     1.0000 0.20610  0.99720  0.27180  Biso   1.000  H
  N13      1.0000 0.18320  0.92530  0.25717  Biso   1.000  N
  C142     1.0000 0.23590  0.87920  0.25200  Biso   1.000  C
  H142     1.0000 0.19250  0.85050  0.24420  Biso   1.000  H
  C143     1.0000 0.34720  0.87170  0.25720  Biso   1.000  C
  H143     1.0000 0.38170  0.83940  0.25240  Biso   1.000  H
  C144     1.0000 0.40950  0.91330  0.27000  Biso   1.000  C
  H144     1.0000 0.48630  0.90830  0.27560  Biso   1.000  H
  C145     1.0000 0.59510  0.76700  0.31920  Biso   1.000  C
  C146     1.0000 0.57270  0.75460  0.29120  Biso   1.000  C
  H145     1.0000 0.60970  0.78100  0.28070  Biso   1.000  H
  H146     1.0000 0.49220  0.75560  0.28610  Biso   1.000  H
  H147     1.0000 0.60110  0.71870  0.28780  Biso   1.000  H
  C147     1.0000 0.53490  0.72810  0.33580  Biso   1.000  C
  H148     1.0000 0.45430  0.73240  0.33170  Biso   1.000  H
  H149     1.0000 0.55520  0.73560  0.35470  Biso   1.000  H
  H150     1.0000 0.55630  0.69140  0.33180  Biso   1.000  H
  C148     1.0000 0.71530  0.76020  0.32510  Biso   1.000  C
  H151     1.0000 0.73170  0.72280  0.32990  Biso   1.000  H
  H152     1.0000 0.74220  0.78360  0.34000  Biso   1.000  H
  H153     1.0000 0.75270  0.76960  0.30940  Biso   1.000  H
  S23      1.0000 0.69742  0.97202  0.31414  Biso   1.000  S
  C149     1.0000 0.72030  0.00650  0.34500  Biso   1.000  C
  C150     1.0000 0.77320  0.98320  0.36793  Biso   1.000  C
  C151     1.0000 0.78870  0.01390  0.39140  Biso   1.000  C
  C152     1.0000 0.75670  0.06790  0.39080  Biso   1.000  C
  H154     1.0000 0.77040  0.08890  0.40650  Biso   1.000  H
  C153     1.0000 0.70440  0.09200  0.36750  Biso   1.000  C
  C154     1.0000 0.68480  0.06090  0.34570  Biso   1.000  C
  H155     1.0000 0.64580  0.07590  0.33020  Biso   1.000  H
  S24      1.0000 0.82990  0.91746  0.36712  Biso   1.000  S
  C155     1.0000 0.97230  0.93070  0.35760  Biso   1.000  C
  H156     1.0000 0.97840  0.96700  0.34990  Biso   1.000  H
  H157     1.0000 0.02970  0.92620  0.37280  Biso   1.000  H
  C156     1.0000 0.98060  0.88570  0.33610  Biso   1.000  C
  C157     1.0000 0.97990  0.91230  0.31190  Biso   1.000  C
  H158     1.0000 0.96640  0.94980  0.31100  Biso   1.000  H
  N14      1.0000 0.99890  0.88410  0.28920  Biso   1.000  N
  C158     1.0000 0.01870  0.82920  0.29050  Biso   1.000  C
  H159     1.0000 0.03170  0.81000  0.27490  Biso   1.000  H
  C159     1.0000 0.01940  0.80260  0.31460  Biso   1.000  C
  H160     1.0000 0.03290  0.76510  0.31550  Biso   1.000  H
  C160     1.0000 0.00030  0.83080  0.33741  Biso   1.000  C
  H161     1.0000 0.00080  0.81260  0.35390  Biso   1.000  H
  C161     1.0000 0.66920  0.15080  0.36630  Biso   1.000  C
  C162     1.0000 0.64940  0.17060  0.39450  Biso   1.000  C
  H162     1.0000 0.72060  0.17180  0.40570  Biso   1.000  H
  H163     1.0000 0.59860  0.14600  0.40240  Biso   1.000  H
  H164     1.0000 0.61670  0.20660  0.39330  Biso   1.000  H
  C163     1.0000 0.75680  0.18330  0.35630  Biso   1.000  C
  H165     1.0000 0.82280  0.18300  0.36930  Biso   1.000  H
  H166     1.0000 0.73040  0.22020  0.35360  Biso   1.000  H
  H167     1.0000 0.77610  0.16850  0.33950  Biso   1.000  H
  C164     1.0000 0.55940  0.15800  0.34770  Biso   1.000  C
  H168     1.0000 0.54160  0.19620  0.34590  Biso   1.000  H
  H169     1.0000 0.49860  0.13930  0.35530  Biso   1.000  H
  H170     1.0000 0.56870  0.14300  0.33020  Biso   1.000  H
  S25      1.0000 0.85100  0.98864  0.42200  Biso   1.000  S
  C165     1.0000 0.74820  0.94040  0.43038  Biso   1.000  C
  C166     1.0000 0.64290  0.95470  0.43613  Biso   1.000  C
  C167     1.0000 0.56760  0.91340  0.44161  Biso   1.000  C
  C168     1.0000 0.60370  0.86030  0.44269  Biso   1.000  C
  H171     1.0000 0.55450  0.83320  0.44770  Biso   1.000  H
  C169     1.0000 0.70950  0.84570  0.43665  Biso   1.000  C
  C170     1.0000 0.78210  0.88620  0.43042  Biso   1.000  C
  H172     1.0000 0.85480  0.87730  0.42620  Biso   1.000  H
  S26      1.0000 0.60160  0.02351  0.43731  Biso   1.000  S
  C171     1.0000 0.63400  0.03550  0.47236  Biso   1.000  C
  H173     1.0000 0.60100  0.00700  0.48270  Biso   1.000  H
  H174     1.0000 0.71570  0.03520  0.47690  Biso   1.000  H
  C172     1.0000 0.58660  0.09000  0.47915  Biso   1.000  C
  C173     1.0000 0.66110  0.13400  0.48232  Biso   1.000  C
  H175     1.0000 0.73740  0.12830  0.48010  Biso   1.000  H
  N15      1.0000 0.62840  0.18260  0.48825  Biso   1.000  N
  C174     1.0000 0.51760  0.19110  0.49045  Biso   1.000  C
  H176     1.0000 0.49280  0.22590  0.49460  Biso   1.000  H
  C175     1.0000 0.44060  0.14930  0.48670  Biso   1.000  C
  H177     1.0000 0.36370  0.15580  0.48780  Biso   1.000  H
  C176     1.0000 0.47790  0.09840  0.48122  Biso   1.000  C
  H178     1.0000 0.42670  0.06950  0.47890  Biso   1.000  H
  C177     1.0000 0.74160  0.78610  0.43520  Biso   1.000  C
  C178     1.0000 0.71720  0.75710  0.46030  Biso   1.000  C
  H179     1.0000 0.72900  0.71850  0.45820  Biso   1.000  H
  H180     1.0000 0.63980  0.76360  0.46370  Biso   1.000  H
  H181     1.0000 0.76720  0.77040  0.47540  Biso   1.000  H
  C179     1.0000 0.66610  0.76330  0.41110  Biso   1.000  C
  H182     1.0000 0.66760  0.78760  0.39600  Biso   1.000  H
  H183     1.0000 0.58960  0.76000  0.41580  Biso   1.000  H
  H184     1.0000 0.69360  0.72800  0.40640  Biso   1.000  H
  C180     1.0000 0.86000  0.77700  0.43190  Biso   1.000  C
  H185     1.0000 0.90600  0.80090  0.44390  Biso   1.000  H
  H186     1.0000 0.87350  0.78450  0.41350  Biso   1.000  H
  H187     1.0000 0.87940  0.73970  0.43620  Biso   1.000  H
  S27      1.0000 0.42798  0.92622  0.44826  Biso   1.000  S
  C181     1.0000 0.36570  0.94940  0.41667  Biso   1.000  C
  C182     1.0000 0.35100  0.91650  0.39430  Biso   1.000  C
  C183     1.0000 0.30080  0.93900  0.37032  Biso   1.000  C
  C184     1.0000 0.25750  0.99030  0.37045  Biso   1.000  C
  H188     1.0000 0.21860  0.00390  0.35460  Biso   1.000  H
  C185     1.0000 0.26890  0.02260  0.39302  Biso   1.000  C
  C186     1.0000 0.32440  0.00130  0.41548  Biso   1.000  C
  H189     1.0000 0.33510  0.02300  0.43090  Biso   1.000  H
  S28      1.0000 0.39217  0.84794  0.39534  Biso   1.000  S
  C187     1.0000 0.25310  0.81830  0.39490  Biso   1.000  C
  H190     1.0000 0.20470  0.83310  0.37970  Biso   1.000  H
  H191     1.0000 0.25860  0.77910  0.39230  Biso   1.000  H
  C188     1.0000 0.20100  0.82900  0.42000  Biso   1.000  C
  C189     1.0000 0.22240  0.79520  0.44160  Biso   1.000  C
  H192     1.0000 0.26640  0.76430  0.43920  Biso   1.000  H
  N16      1.0000 0.18680  0.80220  0.46497  Biso   1.000  N
  C190     1.0000 0.11990  0.84520  0.46780  Biso   1.000  C
  H193     1.0000 0.08770  0.85000  0.48400  Biso   1.000  H
  C191     1.0000 0.09740  0.88220  0.44750  Biso   1.000  C
  H194     1.0000 0.05450  0.91330  0.45020  Biso   1.000  H
  C192     1.0000 0.13760  0.87350  0.42360  Biso   1.000  C
  H195     1.0000 0.12180  0.89830  0.40950  Biso   1.000  H
  C193     1.0000 0.22540  0.08230  0.39210  Biso   1.000  C
  C194     1.0000 0.28100  0.11510  0.37130  Biso   1.000  C
  H196     1.0000 0.29120  0.09250  0.35590  Biso   1.000  H
  H197     1.0000 0.35370  0.12810  0.37910  Biso   1.000  H
  H198     1.0000 0.23370  0.14580  0.36560  Biso   1.000  H
  C195     1.0000 0.23800  0.11190  0.41930  Biso   1.000  C
  H199     1.0000 0.16590  0.11370  0.42640  Biso   1.000  H
  H200     1.0000 0.26590  0.14840  0.41680  Biso   1.000  H
  H201     1.0000 0.29140  0.09250  0.43170  Biso   1.000  H
  C196     1.0000 0.09900  0.07630  0.38330  Biso   1.000  C
  H202     1.0000 0.06850  0.04700  0.39330  Biso   1.000  H
  H203     1.0000 0.08800  0.06820  0.36430  Biso   1.000  H
  H204     1.0000 0.06070  0.10980  0.38680  Biso   1.000  H
  N17      1.0000 0.99300  0.00180  0.27040  Biso   1.000  N
  C197     1.0000 0.98050  0.03340  0.28690  Biso   1.000  C
  S29      1.0000 0.98990  0.08091  0.30833  Biso   1.000  S
  N18      1.0000 0.13420  0.78660  0.52278  Biso   1.000  N
  C198     1.0000 0.09460  0.81160  0.53810  Biso   1.000  C
  S30      1.0000 0.04540  0.84565  0.56150  Biso   1.000  S
  S31      1.0000 0.78105  0.40177  0.34003  Biso   1.000  S
  C199     1.0000 0.92140  0.39210  0.33288  Biso   1.000  C
  C200     1.0000 0.98960  0.43490  0.32737  Biso   1.000  C
  C201     1.0000 0.09940  0.42220  0.32141  Biso   1.000  C
  C202     1.0000 0.13100  0.36870  0.31940  Biso   1.000  C
  H205     1.0000 0.20430  0.36120  0.31510  Biso   1.000  H
  C203     1.0000 0.06180  0.32610  0.32330  Biso   1.000  C
  C204     1.0000 0.95760  0.33870  0.33048  Biso   1.000  C
  H206     1.0000 0.90840  0.31040  0.33390  Biso   1.000  H
  S32      1.0000 0.93794  0.50084  0.32410  Biso   1.000  S
  C205     1.0000 0.92300  0.50470  0.28670  Biso   1.000  C
  H207     1.0000 0.88640  0.53890  0.28110  Biso   1.000  H
  H208     1.0000 0.99800  0.50460  0.28040  Biso   1.000  H
  C206     1.0000 0.85920  0.46100  0.27450  Biso   1.000  C
  C207     1.0000 0.74260  0.46470  0.26800  Biso   1.000  C
  H209     1.0000 0.70610  0.49720  0.27180  Biso   1.000  H
  N19      1.0000 0.68320  0.42530  0.25717  Biso   1.000  N
  C208     1.0000 0.73590  0.37920  0.25200  Biso   1.000  C
  H210     1.0000 0.69250  0.35050  0.24420  Biso   1.000  H
  C209     1.0000 0.84720  0.37170  0.25720  Biso   1.000  C
  H211     1.0000 0.88170  0.33940  0.25240  Biso   1.000  H
  C210     1.0000 0.90950  0.41330  0.27000  Biso   1.000  C
  H212     1.0000 0.98630  0.40830  0.27560  Biso   1.000  H
  C211     1.0000 0.09510  0.26700  0.31920  Biso   1.000  C
  C212     1.0000 0.07270  0.25460  0.29120  Biso   1.000  C
  H213     1.0000 0.10970  0.28100  0.28070  Biso   1.000  H
  H214     1.0000 0.99220  0.25560  0.28610  Biso   1.000  H
  H215     1.0000 0.10110  0.21870  0.28780  Biso   1.000  H
  C213     1.0000 0.03490  0.22810  0.33580  Biso   1.000  C
  H216     1.0000 0.95430  0.23240  0.33170  Biso   1.000  H
  H217     1.0000 0.05520  0.23560  0.35470  Biso   1.000  H
  H218     1.0000 0.05630  0.19140  0.33180  Biso   1.000  H
  C214     1.0000 0.21530  0.26020  0.32510  Biso   1.000  C
  H219     1.0000 0.23170  0.22280  0.32990  Biso   1.000  H
  H220     1.0000 0.24220  0.28360  0.34000  Biso   1.000  H
  H221     1.0000 0.25270  0.26960  0.30940  Biso   1.000  H
  S33      1.0000 0.19742  0.47202  0.31414  Biso   1.000  S
  C215     1.0000 0.22030  0.50650  0.34500  Biso   1.000  C
  C216     1.0000 0.27320  0.48320  0.36793  Biso   1.000  C
  C217     1.0000 0.28870  0.51390  0.39140  Biso   1.000  C
  C218     1.0000 0.25670  0.56790  0.39080  Biso   1.000  C
  H222     1.0000 0.27040  0.58890  0.40650  Biso   1.000  H
  C219     1.0000 0.20440  0.59200  0.36750  Biso   1.000  C
  C220     1.0000 0.18480  0.56090  0.34570  Biso   1.000  C
  H223     1.0000 0.14580  0.57590  0.33020  Biso   1.000  H
  S34      1.0000 0.32990  0.41746  0.36712  Biso   1.000  S
  C221     1.0000 0.47230  0.43070  0.35760  Biso   1.000  C
  H224     1.0000 0.47840  0.46700  0.34990  Biso   1.000  H
  H225     1.0000 0.52970  0.42620  0.37280  Biso   1.000  H
  C222     1.0000 0.48060  0.38570  0.33610  Biso   1.000  C
  C223     1.0000 0.47990  0.41230  0.31190  Biso   1.000  C
  H226     1.0000 0.46640  0.44980  0.31100  Biso   1.000  H
  N20      1.0000 0.49890  0.38410  0.28920  Biso   1.000  N
  C224     1.0000 0.51870  0.32920  0.29050  Biso   1.000  C
  H227     1.0000 0.53170  0.31000  0.27490  Biso   1.000  H
  C225     1.0000 0.51940  0.30260  0.31460  Biso   1.000  C
  H228     1.0000 0.53290  0.26510  0.31550  Biso   1.000  H
  C226     1.0000 0.50030  0.33080  0.33741  Biso   1.000  C
  H229     1.0000 0.50080  0.31260  0.35390  Biso   1.000  H
  C227     1.0000 0.16920  0.65080  0.36630  Biso   1.000  C
  C228     1.0000 0.14940  0.67060  0.39450  Biso   1.000  C
  H230     1.0000 0.22060  0.67180  0.40570  Biso   1.000  H
  H231     1.0000 0.09860  0.64600  0.40240  Biso   1.000  H
  H232     1.0000 0.11670  0.70660  0.39330  Biso   1.000  H
  C229     1.0000 0.25680  0.68330  0.35630  Biso   1.000  C
  H233     1.0000 0.32280  0.68300  0.36930  Biso   1.000  H
  H234     1.0000 0.23040  0.72020  0.35360  Biso   1.000  H
  H235     1.0000 0.27610  0.66850  0.33950  Biso   1.000  H
  C230     1.0000 0.05940  0.65800  0.34770  Biso   1.000  C
  H236     1.0000 0.04160  0.69620  0.34590  Biso   1.000  H
  H237     1.0000 0.99860  0.63930  0.35530  Biso   1.000  H
  H238     1.0000 0.06870  0.64300  0.33020  Biso   1.000  H
  S35      1.0000 0.35100  0.48864  0.42200  Biso   1.000  S
  C231     1.0000 0.24820  0.44040  0.43038  Biso   1.000  C
  C232     1.0000 0.14290  0.45470  0.43613  Biso   1.000  C
  C233     1.0000 0.06760  0.41340  0.44161  Biso   1.000  C
  C234     1.0000 0.10370  0.36030  0.44269  Biso   1.000  C
  H239     1.0000 0.05450  0.33320  0.44770  Biso   1.000  H
  C235     1.0000 0.20950  0.34570  0.43665  Biso   1.000  C
  C236     1.0000 0.28210  0.38620  0.43042  Biso   1.000  C
  H240     1.0000 0.35480  0.37730  0.42620  Biso   1.000  H
  S36      1.0000 0.10160  0.52351  0.43731  Biso   1.000  S
  C237     1.0000 0.13400  0.53550  0.47236  Biso   1.000  C
  H241     1.0000 0.10100  0.50700  0.48270  Biso   1.000  H
  H242     1.0000 0.21570  0.53520  0.47690  Biso   1.000  H
  C238     1.0000 0.08660  0.59000  0.47915  Biso   1.000  C
  C239     1.0000 0.16110  0.63400  0.48232  Biso   1.000  C
  H243     1.0000 0.23740  0.62830  0.48010  Biso   1.000  H
  N21      1.0000 0.12840  0.68260  0.48825  Biso   1.000  N
  C240     1.0000 0.01760  0.69110  0.49045  Biso   1.000  C
  H244     1.0000 0.99280  0.72590  0.49460  Biso   1.000  H
  C241     1.0000 0.94060  0.64930  0.48670  Biso   1.000  C
  H245     1.0000 0.86370  0.65580  0.48780  Biso   1.000  H
  C242     1.0000 0.97790  0.59840  0.48122  Biso   1.000  C
  H246     1.0000 0.92670  0.56950  0.47890  Biso   1.000  H
  C243     1.0000 0.24160  0.28610  0.43520  Biso   1.000  C
  C244     1.0000 0.21720  0.25710  0.46030  Biso   1.000  C
  H247     1.0000 0.22900  0.21850  0.45820  Biso   1.000  H
  H248     1.0000 0.13980  0.26360  0.46370  Biso   1.000  H
  H249     1.0000 0.26720  0.27040  0.47540  Biso   1.000  H
  C245     1.0000 0.16610  0.26330  0.41110  Biso   1.000  C
  H250     1.0000 0.16760  0.28760  0.39600  Biso   1.000  H
  H251     1.0000 0.08960  0.26000  0.41580  Biso   1.000  H
  H252     1.0000 0.19360  0.22800  0.40640  Biso   1.000  H
  C246     1.0000 0.36000  0.27700  0.43190  Biso   1.000  C
  H253     1.0000 0.40600  0.30090  0.44390  Biso   1.000  H
  H254     1.0000 0.37350  0.28450  0.41350  Biso   1.000  H
  H255     1.0000 0.37940  0.23970  0.43620  Biso   1.000  H
  S37      1.0000 0.92798  0.42622  0.44826  Biso   1.000  S
  C247     1.0000 0.86570  0.44940  0.41667  Biso   1.000  C
  C248     1.0000 0.85100  0.41650  0.39430  Biso   1.000  C
  C249     1.0000 0.80080  0.43900  0.37032  Biso   1.000  C
  C250     1.0000 0.75750  0.49030  0.37045  Biso   1.000  C
  H256     1.0000 0.71860  0.50390  0.35460  Biso   1.000  H
  C251     1.0000 0.76890  0.52260  0.39302  Biso   1.000  C
  C252     1.0000 0.82440  0.50130  0.41548  Biso   1.000  C
  H257     1.0000 0.83510  0.52300  0.43090  Biso   1.000  H
  S38      1.0000 0.89217  0.34794  0.39534  Biso   1.000  S
  C253     1.0000 0.75310  0.31830  0.39490  Biso   1.000  C
  H258     1.0000 0.70470  0.33310  0.37970  Biso   1.000  H
  H259     1.0000 0.75860  0.27910  0.39230  Biso   1.000  H
  C254     1.0000 0.70100  0.32900  0.42000  Biso   1.000  C
  C255     1.0000 0.72240  0.29520  0.44160  Biso   1.000  C
  H260     1.0000 0.76640  0.26430  0.43920  Biso   1.000  H
  N22      1.0000 0.68680  0.30220  0.46497  Biso   1.000  N
  C256     1.0000 0.61990  0.34520  0.46780  Biso   1.000  C
  H261     1.0000 0.58770  0.35000  0.48400  Biso   1.000  H
  C257     1.0000 0.59740  0.38220  0.44750  Biso   1.000  C
  H262     1.0000 0.55450  0.41330  0.45020  Biso   1.000  H
  C258     1.0000 0.63760  0.37350  0.42360  Biso   1.000  C
  H263     1.0000 0.62180  0.39830  0.40950  Biso   1.000  H
  C259     1.0000 0.72540  0.58230  0.39210  Biso   1.000  C
  C260     1.0000 0.78100  0.61510  0.37130  Biso   1.000  C
  H264     1.0000 0.79120  0.59250  0.35590  Biso   1.000  H
  H265     1.0000 0.85370  0.62810  0.37910  Biso   1.000  H
  H266     1.0000 0.73370  0.64580  0.36560  Biso   1.000  H
  C261     1.0000 0.73800  0.61190  0.41930  Biso   1.000  C
  H267     1.0000 0.66590  0.61370  0.42640  Biso   1.000  H
  H268     1.0000 0.76590  0.64840  0.41680  Biso   1.000  H
  H269     1.0000 0.79140  0.59250  0.43170  Biso   1.000  H
  C262     1.0000 0.59900  0.57630  0.38330  Biso   1.000  C
  H270     1.0000 0.56850  0.54700  0.39330  Biso   1.000  H
  H271     1.0000 0.58800  0.56820  0.36430  Biso   1.000  H
  H272     1.0000 0.56070  0.60980  0.38680  Biso   1.000  H
  N23      1.0000 0.49300  0.50180  0.27040  Biso   1.000  N
  C263     1.0000 0.48050  0.53340  0.28690  Biso   1.000  C
  S39      1.0000 0.48990  0.58091  0.30833  Biso   1.000  S
  N24      1.0000 0.63420  0.28660  0.52278  Biso   1.000  N
  C264     1.0000 0.59460  0.31160  0.53810  Biso   1.000  C
  S40      1.0000 0.54540  0.34565  0.56150  Biso   1.000  S
  S41      1.0000 0.28105  0.09823  0.84003  Biso   1.000  S
  C265     1.0000 0.42140  0.10790  0.83288  Biso   1.000  C
  C266     1.0000 0.48960  0.06510  0.82737  Biso   1.000  C
  C267     1.0000 0.59940  0.07780  0.82141  Biso   1.000  C
  C268     1.0000 0.63100  0.13130  0.81940  Biso   1.000  C
  H273     1.0000 0.70430  0.13880  0.81510  Biso   1.000  H
  C269     1.0000 0.56180  0.17390  0.82330  Biso   1.000  C
  C270     1.0000 0.45760  0.16130  0.83048  Biso   1.000  C
  H274     1.0000 0.40840  0.18960  0.83390  Biso   1.000  H
  S42      1.0000 0.43794  0.99916  0.82410  Biso   1.000  S
  C271     1.0000 0.42300  0.99530  0.78670  Biso   1.000  C
  H275     1.0000 0.38640  0.96110  0.78110  Biso   1.000  H
  H276     1.0000 0.49800  0.99540  0.78040  Biso   1.000  H
  C272     1.0000 0.35920  0.03900  0.77450  Biso   1.000  C
  C273     1.0000 0.24260  0.03530  0.76800  Biso   1.000  C
  H277     1.0000 0.20610  0.00280  0.77180  Biso   1.000  H
  N25      1.0000 0.18320  0.07470  0.75717  Biso   1.000  N
  C274     1.0000 0.23590  0.12080  0.75200  Biso   1.000  C
  H278     1.0000 0.19250  0.14950  0.74420  Biso   1.000  H
  C275     1.0000 0.34720  0.12830  0.75720  Biso   1.000  C
  H279     1.0000 0.38170  0.16060  0.75240  Biso   1.000  H
  C276     1.0000 0.40950  0.08670  0.77000  Biso   1.000  C
  H280     1.0000 0.48630  0.09170  0.77560  Biso   1.000  H
  C277     1.0000 0.59510  0.23300  0.81920  Biso   1.000  C
  C278     1.0000 0.57270  0.24540  0.79120  Biso   1.000  C
  H281     1.0000 0.60970  0.21900  0.78070  Biso   1.000  H
  H282     1.0000 0.49220  0.24440  0.78610  Biso   1.000  H
  H283     1.0000 0.60110  0.28130  0.78780  Biso   1.000  H
  C279     1.0000 0.53490  0.27190  0.83580  Biso   1.000  C
  H284     1.0000 0.45430  0.26760  0.83170  Biso   1.000  H
  H285     1.0000 0.55520  0.26440  0.85470  Biso   1.000  H
  H286     1.0000 0.55630  0.30860  0.83180  Biso   1.000  H
  C280     1.0000 0.71530  0.23980  0.82510  Biso   1.000  C
  H287     1.0000 0.73170  0.27720  0.82990  Biso   1.000  H
  H288     1.0000 0.74220  0.21640  0.84000  Biso   1.000  H
  H289     1.0000 0.75270  0.23040  0.80940  Biso   1.000  H
  S43      1.0000 0.69742  0.02798  0.81414  Biso   1.000  S
  C281     1.0000 0.72030  0.99350  0.84500  Biso   1.000  C
  C282     1.0000 0.77320  0.01680  0.86793  Biso   1.000  C
  C283     1.0000 0.78870  0.98610  0.89140  Biso   1.000  C
  C284     1.0000 0.75670  0.93210  0.89080  Biso   1.000  C
  H290     1.0000 0.77040  0.91110  0.90650  Biso   1.000  H
  C285     1.0000 0.70440  0.90800  0.86750  Biso   1.000  C
  C286     1.0000 0.68480  0.93910  0.84570  Biso   1.000  C
  H291     1.0000 0.64580  0.92410  0.83020  Biso   1.000  H
  S44      1.0000 0.82990  0.08254  0.86712  Biso   1.000  S
  C287     1.0000 0.97230  0.06930  0.85760  Biso   1.000  C
  H292     1.0000 0.97840  0.03300  0.84990  Biso   1.000  H
  H293     1.0000 0.02970  0.07380  0.87280  Biso   1.000  H
  C288     1.0000 0.98060  0.11430  0.83610  Biso   1.000  C
  C289     1.0000 0.97990  0.08770  0.81190  Biso   1.000  C
  H294     1.0000 0.96640  0.05020  0.81100  Biso   1.000  H
  N26      1.0000 0.99890  0.11590  0.78920  Biso   1.000  N
  C290     1.0000 0.01870  0.17080  0.79050  Biso   1.000  C
  H295     1.0000 0.03170  0.19000  0.77490  Biso   1.000  H
  C291     1.0000 0.01940  0.19740  0.81460  Biso   1.000  C
  H296     1.0000 0.03290  0.23490  0.81550  Biso   1.000  H
  C292     1.0000 0.00030  0.16920  0.83741  Biso   1.000  C
  H297     1.0000 0.00080  0.18740  0.85390  Biso   1.000  H
  C293     1.0000 0.66920  0.84920  0.86630  Biso   1.000  C
  C294     1.0000 0.64940  0.82940  0.89450  Biso   1.000  C
  H298     1.0000 0.72060  0.82820  0.90570  Biso   1.000  H
  H299     1.0000 0.59860  0.85400  0.90240  Biso   1.000  H
  H300     1.0000 0.61670  0.79340  0.89330  Biso   1.000  H
  C295     1.0000 0.75680  0.81670  0.85630  Biso   1.000  C
  H301     1.0000 0.82280  0.81700  0.86930  Biso   1.000  H
  H302     1.0000 0.73040  0.77980  0.85360  Biso   1.000  H
  H303     1.0000 0.77610  0.83150  0.83950  Biso   1.000  H
  C296     1.0000 0.55940  0.84200  0.84770  Biso   1.000  C
  H304     1.0000 0.54160  0.80380  0.84590  Biso   1.000  H
  H305     1.0000 0.49860  0.86070  0.85530  Biso   1.000  H
  H306     1.0000 0.56870  0.85700  0.83020  Biso   1.000  H
  S45      1.0000 0.85100  0.01136  0.92200  Biso   1.000  S
  C297     1.0000 0.74820  0.05960  0.93038  Biso   1.000  C
  C298     1.0000 0.64290  0.04530  0.93613  Biso   1.000  C
  C299     1.0000 0.56760  0.08660  0.94161  Biso   1.000  C
  C300     1.0000 0.60370  0.13970  0.94269  Biso   1.000  C
  H307     1.0000 0.55450  0.16680  0.94770  Biso   1.000  H
  C301     1.0000 0.70950  0.15430  0.93665  Biso   1.000  C
  C302     1.0000 0.78210  0.11380  0.93042  Biso   1.000  C
  H308     1.0000 0.85480  0.12270  0.92620  Biso   1.000  H
  S46      1.0000 0.60160  0.97649  0.93731  Biso   1.000  S
  C303     1.0000 0.63400  0.96450  0.97236  Biso   1.000  C
  H309     1.0000 0.60100  0.99300  0.98270  Biso   1.000  H
  H310     1.0000 0.71570  0.96480  0.97690  Biso   1.000  H
  C304     1.0000 0.58660  0.91000  0.97915  Biso   1.000  C
  C305     1.0000 0.66110  0.86600  0.98232  Biso   1.000  C
  H311     1.0000 0.73740  0.87170  0.98010  Biso   1.000  H
  N27      1.0000 0.62840  0.81740  0.98825  Biso   1.000  N
  C306     1.0000 0.51760  0.80890  0.99045  Biso   1.000  C
  H312     1.0000 0.49280  0.77410  0.99460  Biso   1.000  H
  C307     1.0000 0.44060  0.85070  0.98670  Biso   1.000  C
  H313     1.0000 0.36370  0.84420  0.98780  Biso   1.000  H
  C308     1.0000 0.47790  0.90160  0.98122  Biso   1.000  C
  H314     1.0000 0.42670  0.93050  0.97890  Biso   1.000  H
  C309     1.0000 0.74160  0.21390  0.93520  Biso   1.000  C
  C310     1.0000 0.71720  0.24290  0.96030  Biso   1.000  C
  H315     1.0000 0.72900  0.28150  0.95820  Biso   1.000  H
  H316     1.0000 0.63980  0.23640  0.96370  Biso   1.000  H
  H317     1.0000 0.76720  0.22960  0.97540  Biso   1.000  H
  C311     1.0000 0.66610  0.23670  0.91110  Biso   1.000  C
  H318     1.0000 0.66760  0.21240  0.89600  Biso   1.000  H
  H319     1.0000 0.58960  0.24000  0.91580  Biso   1.000  H
  H320     1.0000 0.69360  0.27200  0.90640  Biso   1.000  H
  C312     1.0000 0.86000  0.22300  0.93190  Biso   1.000  C
  H321     1.0000 0.90600  0.19910  0.94390  Biso   1.000  H
  H322     1.0000 0.87350  0.21550  0.91350  Biso   1.000  H
  H323     1.0000 0.87940  0.26030  0.93620  Biso   1.000  H
  S47      1.0000 0.42798  0.07378  0.94826  Biso   1.000  S
  C313     1.0000 0.36570  0.05060  0.91667  Biso   1.000  C
  C314     1.0000 0.35100  0.08350  0.89430  Biso   1.000  C
  C315     1.0000 0.30080  0.06100  0.87032  Biso   1.000  C
  C316     1.0000 0.25750  0.00970  0.87045  Biso   1.000  C
  H324     1.0000 0.21860  0.99610  0.85460  Biso   1.000  H
  C317     1.0000 0.26890  0.97740  0.89302  Biso   1.000  C
  C318     1.0000 0.32440  0.99870  0.91548  Biso   1.000  C
  H325     1.0000 0.33510  0.97700  0.93090  Biso   1.000  H
  S48      1.0000 0.39217  0.15206  0.89534  Biso   1.000  S
  C319     1.0000 0.25310  0.18170  0.89490  Biso   1.000  C
  H326     1.0000 0.20470  0.16690  0.87970  Biso   1.000  H
  H327     1.0000 0.25860  0.22090  0.89230  Biso   1.000  H
  C320     1.0000 0.20100  0.17100  0.92000  Biso   1.000  C
  C321     1.0000 0.22240  0.20480  0.94160  Biso   1.000  C
  H328     1.0000 0.26640  0.23570  0.93920  Biso   1.000  H
  N28      1.0000 0.18680  0.19780  0.96497  Biso   1.000  N
  C322     1.0000 0.11990  0.15480  0.96780  Biso   1.000  C
  H329     1.0000 0.08770  0.15000  0.98400  Biso   1.000  H
  C323     1.0000 0.09740  0.11780  0.94750  Biso   1.000  C
  H330     1.0000 0.05450  0.08670  0.95020  Biso   1.000  H
  C324     1.0000 0.13760  0.12650  0.92360  Biso   1.000  C
  H331     1.0000 0.12180  0.10170  0.90950  Biso   1.000  H
  C325     1.0000 0.22540  0.91770  0.89210  Biso   1.000  C
  C326     1.0000 0.28100  0.88490  0.87130  Biso   1.000  C
  H332     1.0000 0.29120  0.90750  0.85590  Biso   1.000  H
  H333     1.0000 0.35370  0.87190  0.87910  Biso   1.000  H
  H334     1.0000 0.23370  0.85420  0.86560  Biso   1.000  H
  C327     1.0000 0.23800  0.88810  0.91930  Biso   1.000  C
  H335     1.0000 0.16590  0.88630  0.92640  Biso   1.000  H
  H336     1.0000 0.26590  0.85160  0.91680  Biso   1.000  H
  H337     1.0000 0.29140  0.90750  0.93170  Biso   1.000  H
  C328     1.0000 0.09900  0.92370  0.88330  Biso   1.000  C
  H338     1.0000 0.06850  0.95300  0.89330  Biso   1.000  H
  H339     1.0000 0.08800  0.93180  0.86430  Biso   1.000  H
  H340     1.0000 0.06070  0.89020  0.88680  Biso   1.000  H
  N29      1.0000 0.99300  0.99820  0.77040  Biso   1.000  N
  C329     1.0000 0.98050  0.96660  0.78690  Biso   1.000  C
  S49      1.0000 0.98990  0.91909  0.80833  Biso   1.000  S
  N30      1.0000 0.13420  0.21340  0.02278  Biso   1.000  N
  C330     1.0000 0.09460  0.18840  0.03810  Biso   1.000  C
  S50      1.0000 0.04540  0.15435  0.06150  Biso   1.000  S
  S51      1.0000 0.78105  0.59823  0.84003  Biso   1.000  S
  C331     1.0000 0.92140  0.60790  0.83288  Biso   1.000  C
  C332     1.0000 0.98960  0.56510  0.82737  Biso   1.000  C
  C333     1.0000 0.09940  0.57780  0.82141  Biso   1.000  C
  C334     1.0000 0.13100  0.63130  0.81940  Biso   1.000  C
  H341     1.0000 0.20430  0.63880  0.81510  Biso   1.000  H
  C335     1.0000 0.06180  0.67390  0.82330  Biso   1.000  C
  C336     1.0000 0.95760  0.66130  0.83048  Biso   1.000  C
  H342     1.0000 0.90840  0.68960  0.83390  Biso   1.000  H
  S52      1.0000 0.93794  0.49916  0.82410  Biso   1.000  S
  C337     1.0000 0.92300  0.49530  0.78670  Biso   1.000  C
  H343     1.0000 0.88640  0.46110  0.78110  Biso   1.000  H
  H344     1.0000 0.99800  0.49540  0.78040  Biso   1.000  H
  C338     1.0000 0.85920  0.53900  0.77450  Biso   1.000  C
  C339     1.0000 0.74260  0.53530  0.76800  Biso   1.000  C
  H345     1.0000 0.70610  0.50280  0.77180  Biso   1.000  H
  N31      1.0000 0.68320  0.57470  0.75717  Biso   1.000  N
  C340     1.0000 0.73590  0.62080  0.75200  Biso   1.000  C
  H346     1.0000 0.69250  0.64950  0.74420  Biso   1.000  H
  C341     1.0000 0.84720  0.62830  0.75720  Biso   1.000  C
  H347     1.0000 0.88170  0.66060  0.75240  Biso   1.000  H
  C342     1.0000 0.90950  0.58670  0.77000  Biso   1.000  C
  H348     1.0000 0.98630  0.59170  0.77560  Biso   1.000  H
  C343     1.0000 0.09510  0.73300  0.81920  Biso   1.000  C
  C344     1.0000 0.07270  0.74540  0.79120  Biso   1.000  C
  H349     1.0000 0.10970  0.71900  0.78070  Biso   1.000  H
  H350     1.0000 0.99220  0.74440  0.78610  Biso   1.000  H
  H351     1.0000 0.10110  0.78130  0.78780  Biso   1.000  H
  C345     1.0000 0.03490  0.77190  0.83580  Biso   1.000  C
  H352     1.0000 0.95430  0.76760  0.83170  Biso   1.000  H
  H353     1.0000 0.05520  0.76440  0.85470  Biso   1.000  H
  H354     1.0000 0.05630  0.80860  0.83180  Biso   1.000  H
  C346     1.0000 0.21530  0.73980  0.82510  Biso   1.000  C
  H355     1.0000 0.23170  0.77720  0.82990  Biso   1.000  H
  H356     1.0000 0.24220  0.71640  0.84000  Biso   1.000  H
  H357     1.0000 0.25270  0.73040  0.80940  Biso   1.000  H
  S53      1.0000 0.19742  0.52798  0.81414  Biso   1.000  S
  C347     1.0000 0.22030  0.49350  0.84500  Biso   1.000  C
  C348     1.0000 0.27320  0.51680  0.86793  Biso   1.000  C
  C349     1.0000 0.28870  0.48610  0.89140  Biso   1.000  C
  C350     1.0000 0.25670  0.43210  0.89080  Biso   1.000  C
  H358     1.0000 0.27040  0.41110  0.90650  Biso   1.000  H
  C351     1.0000 0.20440  0.40800  0.86750  Biso   1.000  C
  C352     1.0000 0.18480  0.43910  0.84570  Biso   1.000  C
  H359     1.0000 0.14580  0.42410  0.83020  Biso   1.000  H
  S54      1.0000 0.32990  0.58254  0.86712  Biso   1.000  S
  C353     1.0000 0.47230  0.56930  0.85760  Biso   1.000  C
  H360     1.0000 0.47840  0.53300  0.84990  Biso   1.000  H
  H361     1.0000 0.52970  0.57380  0.87280  Biso   1.000  H
  C354     1.0000 0.48060  0.61430  0.83610  Biso   1.000  C
  C355     1.0000 0.47990  0.58770  0.81190  Biso   1.000  C
  H362     1.0000 0.46640  0.55020  0.81100  Biso   1.000  H
  N32      1.0000 0.49890  0.61590  0.78920  Biso   1.000  N
  C356     1.0000 0.51870  0.67080  0.79050  Biso   1.000  C
  H363     1.0000 0.53170  0.69000  0.77490  Biso   1.000  H
  C357     1.0000 0.51940  0.69740  0.81460  Biso   1.000  C
  H364     1.0000 0.53290  0.73490  0.81550  Biso   1.000  H
  C358     1.0000 0.50030  0.66920  0.83741  Biso   1.000  C
  H365     1.0000 0.50080  0.68740  0.85390  Biso   1.000  H
  C359     1.0000 0.16920  0.34920  0.86630  Biso   1.000  C
  C360     1.0000 0.14940  0.32940  0.89450  Biso   1.000  C
  H366     1.0000 0.22060  0.32820  0.90570  Biso   1.000  H
  H367     1.0000 0.09860  0.35400  0.90240  Biso   1.000  H
  H368     1.0000 0.11670  0.29340  0.89330  Biso   1.000  H
  C361     1.0000 0.25680  0.31670  0.85630  Biso   1.000  C
  H369     1.0000 0.32280  0.31700  0.86930  Biso   1.000  H
  H370     1.0000 0.23040  0.27980  0.85360  Biso   1.000  H
  H371     1.0000 0.27610  0.33150  0.83950  Biso   1.000  H
  C362     1.0000 0.05940  0.34200  0.84770  Biso   1.000  C
  H372     1.0000 0.04160  0.30380  0.84590  Biso   1.000  H
  H373     1.0000 0.99860  0.36070  0.85530  Biso   1.000  H
  H374     1.0000 0.06870  0.35700  0.83020  Biso   1.000  H
  S55      1.0000 0.35100  0.51136  0.92200  Biso   1.000  S
  C363     1.0000 0.24820  0.55960  0.93038  Biso   1.000  C
  C364     1.0000 0.14290  0.54530  0.93613  Biso   1.000  C
  C365     1.0000 0.06760  0.58660  0.94161  Biso   1.000  C
  C366     1.0000 0.10370  0.63970  0.94269  Biso   1.000  C
  H375     1.0000 0.05450  0.66680  0.94770  Biso   1.000  H
  C367     1.0000 0.20950  0.65430  0.93665  Biso   1.000  C
  C368     1.0000 0.28210  0.61380  0.93042  Biso   1.000  C
  H376     1.0000 0.35480  0.62270  0.92620  Biso   1.000  H
  S56      1.0000 0.10160  0.47649  0.93731  Biso   1.000  S
  C369     1.0000 0.13400  0.46450  0.97236  Biso   1.000  C
  H377     1.0000 0.10100  0.49300  0.98270  Biso   1.000  H
  H378     1.0000 0.21570  0.46480  0.97690  Biso   1.000  H
  C370     1.0000 0.08660  0.41000  0.97915  Biso   1.000  C
  C371     1.0000 0.16110  0.36600  0.98232  Biso   1.000  C
  H379     1.0000 0.23740  0.37170  0.98010  Biso   1.000  H
  N33      1.0000 0.12840  0.31740  0.98825  Biso   1.000  N
  C372     1.0000 0.01760  0.30890  0.99045  Biso   1.000  C
  H380     1.0000 0.99280  0.27410  0.99460  Biso   1.000  H
  C373     1.0000 0.94060  0.35070  0.98670  Biso   1.000  C
  H381     1.0000 0.86370  0.34420  0.98780  Biso   1.000  H
  C374     1.0000 0.97790  0.40160  0.98122  Biso   1.000  C
  H382     1.0000 0.92670  0.43050  0.97890  Biso   1.000  H
  C375     1.0000 0.24160  0.71390  0.93520  Biso   1.000  C
  C376     1.0000 0.21720  0.74290  0.96030  Biso   1.000  C
  H383     1.0000 0.22900  0.78150  0.95820  Biso   1.000  H
  H384     1.0000 0.13980  0.73640  0.96370  Biso   1.000  H
  H385     1.0000 0.26720  0.72960  0.97540  Biso   1.000  H
  C377     1.0000 0.16610  0.73670  0.91110  Biso   1.000  C
  H386     1.0000 0.16760  0.71240  0.89600  Biso   1.000  H
  H387     1.0000 0.08960  0.74000  0.91580  Biso   1.000  H
  H388     1.0000 0.19360  0.77200  0.90640  Biso   1.000  H
  C378     1.0000 0.36000  0.72300  0.93190  Biso   1.000  C
  H389     1.0000 0.40600  0.69910  0.94390  Biso   1.000  H
  H390     1.0000 0.37350  0.71550  0.91350  Biso   1.000  H
  H391     1.0000 0.37940  0.76030  0.93620  Biso   1.000  H
  S57      1.0000 0.92798  0.57378  0.94826  Biso   1.000  S
  C379     1.0000 0.86570  0.55060  0.91667  Biso   1.000  C
  C380     1.0000 0.85100  0.58350  0.89430  Biso   1.000  C
  C381     1.0000 0.80080  0.56100  0.87032  Biso   1.000  C
  C382     1.0000 0.75750  0.50970  0.87045  Biso   1.000  C
  H392     1.0000 0.71860  0.49610  0.85460  Biso   1.000  H
  C383     1.0000 0.76890  0.47740  0.89302  Biso   1.000  C
  C384     1.0000 0.82440  0.49870  0.91548  Biso   1.000  C
  H393     1.0000 0.83510  0.47700  0.93090  Biso   1.000  H
  S58      1.0000 0.89217  0.65206  0.89534  Biso   1.000  S
  C385     1.0000 0.75310  0.68170  0.89490  Biso   1.000  C
  H394     1.0000 0.70470  0.66690  0.87970  Biso   1.000  H
  H395     1.0000 0.75860  0.72090  0.89230  Biso   1.000  H
  C386     1.0000 0.70100  0.67100  0.92000  Biso   1.000  C
  C387     1.0000 0.72240  0.70480  0.94160  Biso   1.000  C
  H396     1.0000 0.76640  0.73570  0.93920  Biso   1.000  H
  N34      1.0000 0.68680  0.69780  0.96497  Biso   1.000  N
  C388     1.0000 0.61990  0.65480  0.96780  Biso   1.000  C
  H397     1.0000 0.58770  0.65000  0.98400  Biso   1.000  H
  C389     1.0000 0.59740  0.61780  0.94750  Biso   1.000  C
  H398     1.0000 0.55450  0.58670  0.95020  Biso   1.000  H
  C390     1.0000 0.63760  0.62650  0.92360  Biso   1.000  C
  H399     1.0000 0.62180  0.60170  0.90950  Biso   1.000  H
  C391     1.0000 0.72540  0.41770  0.89210  Biso   1.000  C
  C392     1.0000 0.78100  0.38490  0.87130  Biso   1.000  C
  H400     1.0000 0.79120  0.40750  0.85590  Biso   1.000  H
  H401     1.0000 0.85370  0.37190  0.87910  Biso   1.000  H
  H402     1.0000 0.73370  0.35420  0.86560  Biso   1.000  H
  C393     1.0000 0.73800  0.38810  0.91930  Biso   1.000  C
  H403     1.0000 0.66590  0.38630  0.92640  Biso   1.000  H
  H404     1.0000 0.76590  0.35160  0.91680  Biso   1.000  H
  H405     1.0000 0.79140  0.40750  0.93170  Biso   1.000  H
  C394     1.0000 0.59900  0.42370  0.88330  Biso   1.000  C
  H406     1.0000 0.56850  0.45300  0.89330  Biso   1.000  H
  H407     1.0000 0.58800  0.43180  0.86430  Biso   1.000  H
  H408     1.0000 0.56070  0.39020  0.88680  Biso   1.000  H
  N35      1.0000 0.49300  0.49820  0.77040  Biso   1.000  N
  C395     1.0000 0.48050  0.46660  0.78690  Biso   1.000  C
  S59      1.0000 0.48990  0.41909  0.80833  Biso   1.000  S
  N36      1.0000 0.63420  0.71340  0.02278  Biso   1.000  N
  C396     1.0000 0.59460  0.68840  0.03810  Biso   1.000  C
  S60      1.0000 0.54540  0.65435  0.06150  Biso   1.000  S
  S61      1.0000 0.71895  0.09823  0.65997  Biso   1.000  S
  C397     1.0000 0.57860  0.10790  0.66712  Biso   1.000  C
  C398     1.0000 0.51040  0.06510  0.67263  Biso   1.000  C
  C399     1.0000 0.40060  0.07780  0.67859  Biso   1.000  C
  C400     1.0000 0.36900  0.13130  0.68060  Biso   1.000  C
  H409     1.0000 0.29570  0.13880  0.68490  Biso   1.000  H
  C401     1.0000 0.43820  0.17390  0.67670  Biso   1.000  C
  C402     1.0000 0.54240  0.16130  0.66952  Biso   1.000  C
  H410     1.0000 0.59160  0.18960  0.66610  Biso   1.000  H
  S62      1.0000 0.56206  0.99916  0.67590  Biso   1.000  S
  C403     1.0000 0.57700  0.99530  0.71330  Biso   1.000  C
  H411     1.0000 0.61360  0.96110  0.71890  Biso   1.000  H
  H412     1.0000 0.50200  0.99540  0.71960  Biso   1.000  H
  C404     1.0000 0.64080  0.03900  0.72550  Biso   1.000  C
  C405     1.0000 0.75740  0.03530  0.73200  Biso   1.000  C
  H413     1.0000 0.79390  0.00280  0.72820  Biso   1.000  H
  N37      1.0000 0.81680  0.07470  0.74283  Biso   1.000  N
  C406     1.0000 0.76410  0.12080  0.74800  Biso   1.000  C
  H414     1.0000 0.80750  0.14950  0.75580  Biso   1.000  H
  C407     1.0000 0.65280  0.12830  0.74280  Biso   1.000  C
  H415     1.0000 0.61830  0.16060  0.74760  Biso   1.000  H
  C408     1.0000 0.59050  0.08670  0.73000  Biso   1.000  C
  H416     1.0000 0.51370  0.09170  0.72440  Biso   1.000  H
  C409     1.0000 0.40490  0.23300  0.68080  Biso   1.000  C
  C410     1.0000 0.42730  0.24540  0.70880  Biso   1.000  C
  H417     1.0000 0.39030  0.21900  0.71930  Biso   1.000  H
  H418     1.0000 0.50780  0.24440  0.71390  Biso   1.000  H
  H419     1.0000 0.39890  0.28130  0.71220  Biso   1.000  H
  C411     1.0000 0.46510  0.27190  0.66420  Biso   1.000  C
  H420     1.0000 0.54570  0.26760  0.66830  Biso   1.000  H
  H421     1.0000 0.44480  0.26440  0.64530  Biso   1.000  H
  H422     1.0000 0.44370  0.30860  0.66820  Biso   1.000  H
  C412     1.0000 0.28470  0.23980  0.67490  Biso   1.000  C
  H423     1.0000 0.26830  0.27720  0.67010  Biso   1.000  H
  H424     1.0000 0.25780  0.21640  0.66000  Biso   1.000  H
  H425     1.0000 0.24730  0.23040  0.69060  Biso   1.000  H
  S63      1.0000 0.30258  0.02798  0.68586  Biso   1.000  S
  C413     1.0000 0.27970  0.99350  0.65500  Biso   1.000  C
  C414     1.0000 0.22680  0.01680  0.63207  Biso   1.000  C
  C415     1.0000 0.21130  0.98610  0.60860  Biso   1.000  C
  C416     1.0000 0.24330  0.93210  0.60920  Biso   1.000  C
  H426     1.0000 0.22960  0.91110  0.59350  Biso   1.000  H
  C417     1.0000 0.29560  0.90800  0.63250  Biso   1.000  C
  C418     1.0000 0.31520  0.93910  0.65430  Biso   1.000  C
  H427     1.0000 0.35420  0.92410  0.66980  Biso   1.000  H
  S64      1.0000 0.17010  0.08254  0.63288  Biso   1.000  S
  C419     1.0000 0.02770  0.06930  0.64240  Biso   1.000  C
  H428     1.0000 0.02160  0.03300  0.65010  Biso   1.000  H
  H429     1.0000 0.97030  0.07380  0.62720  Biso   1.000  H
  C420     1.0000 0.01940  0.11430  0.66390  Biso   1.000  C
  C421     1.0000 0.02010  0.08770  0.68810  Biso   1.000  C
  H430     1.0000 0.03360  0.05020  0.68900  Biso   1.000  H
  N38      1.0000 0.00110  0.11590  0.71080  Biso   1.000  N
  C422     1.0000 0.98130  0.17080  0.70950  Biso   1.000  C
  H431     1.0000 0.96830  0.19000  0.72510  Biso   1.000  H
  C423     1.0000 0.98060  0.19740  0.68540  Biso   1.000  C
  H432     1.0000 0.96710  0.23490  0.68450  Biso   1.000  H
  C424     1.0000 0.99970  0.16920  0.66259  Biso   1.000  C
  H433     1.0000 0.99920  0.18740  0.64610  Biso   1.000  H
  C425     1.0000 0.33080  0.84920  0.63370  Biso   1.000  C
  C426     1.0000 0.35060  0.82940  0.60550  Biso   1.000  C
  H434     1.0000 0.27940  0.82820  0.59430  Biso   1.000  H
  H435     1.0000 0.40140  0.85400  0.59760  Biso   1.000  H
  H436     1.0000 0.38330  0.79340  0.60670  Biso   1.000  H
  C427     1.0000 0.24320  0.81670  0.64370  Biso   1.000  C
  H437     1.0000 0.17720  0.81700  0.63070  Biso   1.000  H
  H438     1.0000 0.26960  0.77980  0.64640  Biso   1.000  H
  H439     1.0000 0.22390  0.83150  0.66050  Biso   1.000  H
  C428     1.0000 0.44060  0.84200  0.65230  Biso   1.000  C
  H440     1.0000 0.45840  0.80380  0.65410  Biso   1.000  H
  H441     1.0000 0.50140  0.86070  0.64470  Biso   1.000  H
  H442     1.0000 0.43130  0.85700  0.66980  Biso   1.000  H
  S65      1.0000 0.14900  0.01136  0.57800  Biso   1.000  S
  C429     1.0000 0.25180  0.05960  0.56962  Biso   1.000  C
  C430     1.0000 0.35710  0.04530  0.56387  Biso   1.000  C
  C431     1.0000 0.43240  0.08660  0.55839  Biso   1.000  C
  C432     1.0000 0.39630  0.13970  0.55731  Biso   1.000  C
  H443     1.0000 0.44550  0.16680  0.55230  Biso   1.000  H
  C433     1.0000 0.29050  0.15430  0.56335  Biso   1.000  C
  C434     1.0000 0.21790  0.11380  0.56958  Biso   1.000  C
  H444     1.0000 0.14520  0.12270  0.57380  Biso   1.000  H
  S66      1.0000 0.39840  0.97649  0.56269  Biso   1.000  S
  C435     1.0000 0.36600  0.96450  0.52764  Biso   1.000  C
  H445     1.0000 0.39900  0.99300  0.51730  Biso   1.000  H
  H446     1.0000 0.28430  0.96480  0.52310  Biso   1.000  H
  C436     1.0000 0.41340  0.91000  0.52085  Biso   1.000  C
  C437     1.0000 0.33890  0.86600  0.51768  Biso   1.000  C
  H447     1.0000 0.26260  0.87170  0.51990  Biso   1.000  H
  N39      1.0000 0.37160  0.81740  0.51175  Biso   1.000  N
  C438     1.0000 0.48240  0.80890  0.50955  Biso   1.000  C
  H448     1.0000 0.50720  0.77410  0.50540  Biso   1.000  H
  C439     1.0000 0.55940  0.85070  0.51330  Biso   1.000  C
  H449     1.0000 0.63630  0.84420  0.51220  Biso   1.000  H
  C440     1.0000 0.52210  0.90160  0.51878  Biso   1.000  C
  H450     1.0000 0.57330  0.93050  0.52110  Biso   1.000  H
  C441     1.0000 0.25840  0.21390  0.56480  Biso   1.000  C
  C442     1.0000 0.28280  0.24290  0.53970  Biso   1.000  C
  H451     1.0000 0.27100  0.28150  0.54180  Biso   1.000  H
  H452     1.0000 0.36020  0.23640  0.53630  Biso   1.000  H
  H453     1.0000 0.23280  0.22960  0.52460  Biso   1.000  H
  C443     1.0000 0.33390  0.23670  0.58890  Biso   1.000  C
  H454     1.0000 0.33240  0.21240  0.60400  Biso   1.000  H
  H455     1.0000 0.41040  0.24000  0.58420  Biso   1.000  H
  H456     1.0000 0.30640  0.27200  0.59360  Biso   1.000  H
  C444     1.0000 0.14000  0.22300  0.56810  Biso   1.000  C
  H457     1.0000 0.09400  0.19910  0.55610  Biso   1.000  H
  H458     1.0000 0.12650  0.21550  0.58650  Biso   1.000  H
  H459     1.0000 0.12060  0.26030  0.56380  Biso   1.000  H
  S67      1.0000 0.57202  0.07378  0.55174  Biso   1.000  S
  C445     1.0000 0.63430  0.05060  0.58333  Biso   1.000  C
  C446     1.0000 0.64900  0.08350  0.60570  Biso   1.000  C
  C447     1.0000 0.69920  0.06100  0.62968  Biso   1.000  C
  C448     1.0000 0.74250  0.00970  0.62955  Biso   1.000  C
  H460     1.0000 0.78140  0.99610  0.64540  Biso   1.000  H
  C449     1.0000 0.73110  0.97740  0.60698  Biso   1.000  C
  C450     1.0000 0.67560  0.99870  0.58452  Biso   1.000  C
  H461     1.0000 0.66490  0.97700  0.56910  Biso   1.000  H
  S68      1.0000 0.60783  0.15206  0.60466  Biso   1.000  S
  C451     1.0000 0.74690  0.18170  0.60510  Biso   1.000  C
  H462     1.0000 0.79530  0.16690  0.62030  Biso   1.000  H
  H463     1.0000 0.74140  0.22090  0.60770  Biso   1.000  H
  C452     1.0000 0.79900  0.17100  0.58000  Biso   1.000  C
  C453     1.0000 0.77760  0.20480  0.55840  Biso   1.000  C
  H464     1.0000 0.73360  0.23570  0.56080  Biso   1.000  H
  N40      1.0000 0.81320  0.19780  0.53503  Biso   1.000  N
  C454     1.0000 0.88010  0.15480  0.53220  Biso   1.000  C
  H465     1.0000 0.91230  0.15000  0.51600  Biso   1.000  H
  C455     1.0000 0.90260  0.11780  0.55250  Biso   1.000  C
  H466     1.0000 0.94550  0.08670  0.54980  Biso   1.000  H
  C456     1.0000 0.86240  0.12650  0.57640  Biso   1.000  C
  H467     1.0000 0.87820  0.10170  0.59050  Biso   1.000  H
  C457     1.0000 0.77460  0.91770  0.60790  Biso   1.000  C
  C458     1.0000 0.71900  0.88490  0.62870  Biso   1.000  C
  H468     1.0000 0.70880  0.90750  0.64410  Biso   1.000  H
  H469     1.0000 0.64630  0.87190  0.62090  Biso   1.000  H
  H470     1.0000 0.76630  0.85420  0.63440  Biso   1.000  H
  C459     1.0000 0.76200  0.88810  0.58070  Biso   1.000  C
  H471     1.0000 0.83410  0.88630  0.57360  Biso   1.000  H
  H472     1.0000 0.73410  0.85160  0.58320  Biso   1.000  H
  H473     1.0000 0.70860  0.90750  0.56830  Biso   1.000  H
  C460     1.0000 0.90100  0.92370  0.61670  Biso   1.000  C
  H474     1.0000 0.93150  0.95300  0.60670  Biso   1.000  H
  H475     1.0000 0.91200  0.93180  0.63570  Biso   1.000  H
  H476     1.0000 0.93930  0.89020  0.61320  Biso   1.000  H
  N41      1.0000 0.00700  0.99820  0.72960  Biso   1.000  N
  C461     1.0000 0.01950  0.96660  0.71310  Biso   1.000  C
  S69      1.0000 0.01010  0.91909  0.69167  Biso   1.000  S
  N42      1.0000 0.86580  0.21340  0.47722  Biso   1.000  N
  C462     1.0000 0.90540  0.18840  0.46190  Biso   1.000  C
  S70      1.0000 0.95460  0.15435  0.43850  Biso   1.000  S
  S71      1.0000 0.21895  0.59823  0.65997  Biso   1.000  S
  C463     1.0000 0.07860  0.60790  0.66712  Biso   1.000  C
  C464     1.0000 0.01040  0.56510  0.67263  Biso   1.000  C
  C465     1.0000 0.90060  0.57780  0.67859  Biso   1.000  C
  C466     1.0000 0.86900  0.63130  0.68060  Biso   1.000  C
  H477     1.0000 0.79570  0.63880  0.68490  Biso   1.000  H
  C467     1.0000 0.93820  0.67390  0.67670  Biso   1.000  C
  C468     1.0000 0.04240  0.66130  0.66952  Biso   1.000  C
  H478     1.0000 0.09160  0.68960  0.66610  Biso   1.000  H
  S72      1.0000 0.06206  0.49916  0.67590  Biso   1.000  S
  C469     1.0000 0.07700  0.49530  0.71330  Biso   1.000  C
  H479     1.0000 0.11360  0.46110  0.71890  Biso   1.000  H
  H480     1.0000 0.00200  0.49540  0.71960  Biso   1.000  H
  C470     1.0000 0.14080  0.53900  0.72550  Biso   1.000  C
  C471     1.0000 0.25740  0.53530  0.73200  Biso   1.000  C
  H481     1.0000 0.29390  0.50280  0.72820  Biso   1.000  H
  N43      1.0000 0.31680  0.57470  0.74283  Biso   1.000  N
  C472     1.0000 0.26410  0.62080  0.74800  Biso   1.000  C
  H482     1.0000 0.30750  0.64950  0.75580  Biso   1.000  H
  C473     1.0000 0.15280  0.62830  0.74280  Biso   1.000  C
  H483     1.0000 0.11830  0.66060  0.74760  Biso   1.000  H
  C474     1.0000 0.09050  0.58670  0.73000  Biso   1.000  C
  H484     1.0000 0.01370  0.59170  0.72440  Biso   1.000  H
  C475     1.0000 0.90490  0.73300  0.68080  Biso   1.000  C
  C476     1.0000 0.92730  0.74540  0.70880  Biso   1.000  C
  H485     1.0000 0.89030  0.71900  0.71930  Biso   1.000  H
  H486     1.0000 0.00780  0.74440  0.71390  Biso   1.000  H
  H487     1.0000 0.89890  0.78130  0.71220  Biso   1.000  H
  C477     1.0000 0.96510  0.77190  0.66420  Biso   1.000  C
  H488     1.0000 0.04570  0.76760  0.66830  Biso   1.000  H
  H489     1.0000 0.94480  0.76440  0.64530  Biso   1.000  H
  H490     1.0000 0.94370  0.80860  0.66820  Biso   1.000  H
  C478     1.0000 0.78470  0.73980  0.67490  Biso   1.000  C
  H491     1.0000 0.76830  0.77720  0.67010  Biso   1.000  H
  H492     1.0000 0.75780  0.71640  0.66000  Biso   1.000  H
  H493     1.0000 0.74730  0.73040  0.69060  Biso   1.000  H
  S73      1.0000 0.80258  0.52798  0.68586  Biso   1.000  S
  C479     1.0000 0.77970  0.49350  0.65500  Biso   1.000  C
  C480     1.0000 0.72680  0.51680  0.63207  Biso   1.000  C
  C481     1.0000 0.71130  0.48610  0.60860  Biso   1.000  C
  C482     1.0000 0.74330  0.43210  0.60920  Biso   1.000  C
  H494     1.0000 0.72960  0.41110  0.59350  Biso   1.000  H
  C483     1.0000 0.79560  0.40800  0.63250  Biso   1.000  C
  C484     1.0000 0.81520  0.43910  0.65430  Biso   1.000  C
  H495     1.0000 0.85420  0.42410  0.66980  Biso   1.000  H
  S74      1.0000 0.67010  0.58254  0.63288  Biso   1.000  S
  C485     1.0000 0.52770  0.56930  0.64240  Biso   1.000  C
  H496     1.0000 0.52160  0.53300  0.65010  Biso   1.000  H
  H497     1.0000 0.47030  0.57380  0.62720  Biso   1.000  H
  C486     1.0000 0.51940  0.61430  0.66390  Biso   1.000  C
  C487     1.0000 0.52010  0.58770  0.68810  Biso   1.000  C
  H498     1.0000 0.53360  0.55020  0.68900  Biso   1.000  H
  N44      1.0000 0.50110  0.61590  0.71080  Biso   1.000  N
  C488     1.0000 0.48130  0.67080  0.70950  Biso   1.000  C
  H499     1.0000 0.46830  0.69000  0.72510  Biso   1.000  H
  C489     1.0000 0.48060  0.69740  0.68540  Biso   1.000  C
  H500     1.0000 0.46710  0.73490  0.68450  Biso   1.000  H
  C490     1.0000 0.49970  0.66920  0.66259  Biso   1.000  C
  H501     1.0000 0.49920  0.68740  0.64610  Biso   1.000  H
  C491     1.0000 0.83080  0.34920  0.63370  Biso   1.000  C
  C492     1.0000 0.85060  0.32940  0.60550  Biso   1.000  C
  H502     1.0000 0.77940  0.32820  0.59430  Biso   1.000  H
  H503     1.0000 0.90140  0.35400  0.59760  Biso   1.000  H
  H504     1.0000 0.88330  0.29340  0.60670  Biso   1.000  H
  C493     1.0000 0.74320  0.31670  0.64370  Biso   1.000  C
  H505     1.0000 0.67720  0.31700  0.63070  Biso   1.000  H
  H506     1.0000 0.76960  0.27980  0.64640  Biso   1.000  H
  H507     1.0000 0.72390  0.33150  0.66050  Biso   1.000  H
  C494     1.0000 0.94060  0.34200  0.65230  Biso   1.000  C
  H508     1.0000 0.95840  0.30380  0.65410  Biso   1.000  H
  H509     1.0000 0.00140  0.36070  0.64470  Biso   1.000  H
  H510     1.0000 0.93130  0.35700  0.66980  Biso   1.000  H
  S75      1.0000 0.64900  0.51136  0.57800  Biso   1.000  S
  C495     1.0000 0.75180  0.55960  0.56962  Biso   1.000  C
  C496     1.0000 0.85710  0.54530  0.56387  Biso   1.000  C
  C497     1.0000 0.93240  0.58660  0.55839  Biso   1.000  C
  C498     1.0000 0.89630  0.63970  0.55731  Biso   1.000  C
  H511     1.0000 0.94550  0.66680  0.55230  Biso   1.000  H
  C499     1.0000 0.79050  0.65430  0.56335  Biso   1.000  C
  C500     1.0000 0.71790  0.61380  0.56958  Biso   1.000  C
  H512     1.0000 0.64520  0.62270  0.57380  Biso   1.000  H
  S76      1.0000 0.89840  0.47649  0.56269  Biso   1.000  S
  C501     1.0000 0.86600  0.46450  0.52764  Biso   1.000  C
  H513     1.0000 0.89900  0.49300  0.51730  Biso   1.000  H
  H514     1.0000 0.78430  0.46480  0.52310  Biso   1.000  H
  C502     1.0000 0.91340  0.41000  0.52085  Biso   1.000  C
  C503     1.0000 0.83890  0.36600  0.51768  Biso   1.000  C
  H515     1.0000 0.76260  0.37170  0.51990  Biso   1.000  H
  N45      1.0000 0.87160  0.31740  0.51175  Biso   1.000  N
  C504     1.0000 0.98240  0.30890  0.50955  Biso   1.000  C
  H516     1.0000 0.00720  0.27410  0.50540  Biso   1.000  H
  C505     1.0000 0.05940  0.35070  0.51330  Biso   1.000  C
  H517     1.0000 0.13630  0.34420  0.51220  Biso   1.000  H
  C506     1.0000 0.02210  0.40160  0.51878  Biso   1.000  C
  H518     1.0000 0.07330  0.43050  0.52110  Biso   1.000  H
  C507     1.0000 0.75840  0.71390  0.56480  Biso   1.000  C
  C508     1.0000 0.78280  0.74290  0.53970  Biso   1.000  C
  H519     1.0000 0.77100  0.78150  0.54180  Biso   1.000  H
  H520     1.0000 0.86020  0.73640  0.53630  Biso   1.000  H
  H521     1.0000 0.73280  0.72960  0.52460  Biso   1.000  H
  C509     1.0000 0.83390  0.73670  0.58890  Biso   1.000  C
  H522     1.0000 0.83240  0.71240  0.60400  Biso   1.000  H
  H523     1.0000 0.91040  0.74000  0.58420  Biso   1.000  H
  H524     1.0000 0.80640  0.77200  0.59360  Biso   1.000  H
  C510     1.0000 0.64000  0.72300  0.56810  Biso   1.000  C
  H525     1.0000 0.59400  0.69910  0.55610  Biso   1.000  H
  H526     1.0000 0.62650  0.71550  0.58650  Biso   1.000  H
  H527     1.0000 0.62060  0.76030  0.56380  Biso   1.000  H
  S77      1.0000 0.07202  0.57378  0.55174  Biso   1.000  S
  C511     1.0000 0.13430  0.55060  0.58333  Biso   1.000  C
  C512     1.0000 0.14900  0.58350  0.60570  Biso   1.000  C
  C513     1.0000 0.19920  0.56100  0.62968  Biso   1.000  C
  C514     1.0000 0.24250  0.50970  0.62955  Biso   1.000  C
  H528     1.0000 0.28140  0.49610  0.64540  Biso   1.000  H
  C515     1.0000 0.23110  0.47740  0.60698  Biso   1.000  C
  C516     1.0000 0.17560  0.49870  0.58452  Biso   1.000  C
  H529     1.0000 0.16490  0.47700  0.56910  Biso   1.000  H
  S78      1.0000 0.10783  0.65206  0.60466  Biso   1.000  S
  C517     1.0000 0.24690  0.68170  0.60510  Biso   1.000  C
  H530     1.0000 0.29530  0.66690  0.62030  Biso   1.000  H
  H531     1.0000 0.24140  0.72090  0.60770  Biso   1.000  H
  C518     1.0000 0.29900  0.67100  0.58000  Biso   1.000  C
  C519     1.0000 0.27760  0.70480  0.55840  Biso   1.000  C
  H532     1.0000 0.23360  0.73570  0.56080  Biso   1.000  H
  N46      1.0000 0.31320  0.69780  0.53503  Biso   1.000  N
  C520     1.0000 0.38010  0.65480  0.53220  Biso   1.000  C
  H533     1.0000 0.41230  0.65000  0.51600  Biso   1.000  H
  C521     1.0000 0.40260  0.61780  0.55250  Biso   1.000  C
  H534     1.0000 0.44550  0.58670  0.54980  Biso   1.000  H
  C522     1.0000 0.36240  0.62650  0.57640  Biso   1.000  C
  H535     1.0000 0.37820  0.60170  0.59050  Biso   1.000  H
  C523     1.0000 0.27460  0.41770  0.60790  Biso   1.000  C
  C524     1.0000 0.21900  0.38490  0.62870  Biso   1.000  C
  H536     1.0000 0.20880  0.40750  0.64410  Biso   1.000  H
  H537     1.0000 0.14630  0.37190  0.62090  Biso   1.000  H
  H538     1.0000 0.26630  0.35420  0.63440  Biso   1.000  H
  C525     1.0000 0.26200  0.38810  0.58070  Biso   1.000  C
  H539     1.0000 0.33410  0.38630  0.57360  Biso   1.000  H
  H540     1.0000 0.23410  0.35160  0.58320  Biso   1.000  H
  H541     1.0000 0.20860  0.40750  0.56830  Biso   1.000  H
  C526     1.0000 0.40100  0.42370  0.61670  Biso   1.000  C
  H542     1.0000 0.43150  0.45300  0.60670  Biso   1.000  H
  H543     1.0000 0.41200  0.43180  0.63570  Biso   1.000  H
  H544     1.0000 0.43930  0.39020  0.61320  Biso   1.000  H
  N47      1.0000 0.50700  0.49820  0.72960  Biso   1.000  N
  C527     1.0000 0.51950  0.46660  0.71310  Biso   1.000  C
  S79      1.0000 0.51010  0.41909  0.69167  Biso   1.000  S
  N48      1.0000 0.36580  0.71340  0.47722  Biso   1.000  N
  C528     1.0000 0.40540  0.68840  0.46190  Biso   1.000  C
  S80      1.0000 0.45460  0.65435  0.43850  Biso   1.000  S
  Fe1      1.0000 0.00000  0.92859  0.25000  Biso   1.000  Fe
  Fe2      1.0000 0.50000  0.42859  0.25000  Biso   1.000  Fe
  Fe3      1.0000 0.00000  0.07141  0.75000  Biso   1.000  Fe
  Fe4      1.0000 0.50000  0.57141  0.75000  Biso   1.000  Fe
  Fe5      1.0000 0.75000  0.75000  0.00000  Biso   1.000  Fe
  Fe6      1.0000 0.25000  0.75000  0.50000  Biso   1.000  Fe
  Fe7      1.0000 0.25000  0.25000  0.00000  Biso   1.000  Fe
  Fe8      1.0000 0.75000  0.25000  0.50000  Biso   1.000  Fe
