data_image0
_cell_length_a       34.841
_cell_length_b       14.7428
_cell_length_c       31.043
_cell_angle_alpha    90
_cell_angle_beta     101.299
_cell_angle_gamma    90

_symmetry_space_group_name_H-M    "P 1"
_symmetry_int_tables_number       1

loop_
  _symmetry_equiv_pos_as_xyz
  'x, y, z'

loop_
  _atom_site_label
  _atom_site_occupancy
  _atom_site_fract_x
  _atom_site_fract_y
  _atom_site_fract_z
  _atom_site_thermal_displace_type
  _atom_site_B_iso_or_equiv
  _atom_site_type_symbol
  I1       1.0000 0.12041  0.25365  0.55554  Biso   1.000  I
  Zn1      1.0000 0.08369  0.36833  0.59243  Biso   1.000  Zn
  I2       1.0000 0.02644  0.34491  0.63106  Biso   1.000  I
  N1       1.0000 0.56910  0.02700  0.04770  Biso   1.000  N
  N2       1.0000 0.12430  0.43640  0.63880  Biso   1.000  N
  C1       1.0000 0.15230  0.39410  0.66760  Biso   1.000  C
  C2       1.0000 0.11910  0.52570  0.64470  Biso   1.000  C
  C3       1.0000 0.17450  0.43740  0.70280  Biso   1.000  C
  H1       1.0000 0.15680  0.33280  0.66340  Biso   1.000  H
  C4       1.0000 0.14030  0.57430  0.67850  Biso   1.000  C
  H2       1.0000 0.10010  0.55580  0.62460  Biso   1.000  H
  H3       1.0000 0.19310  0.40540  0.72260  Biso   1.000  H
  C5       1.0000 0.16900  0.53030  0.70890  Biso   1.000  C
  H4       1.0000 0.13560  0.63590  0.68120  Biso   1.000  H
  C6       1.0000 0.19220  0.58230  0.74570  Biso   1.000  C
  N3       1.0000 0.18240  0.66940  0.74890  Biso   1.000  N
  N4       1.0000 0.22170  0.54100  0.77190  Biso   1.000  N
  C7       1.0000 0.20480  0.71560  0.78160  Biso   1.000  C
  C8       1.0000 0.24090  0.59240  0.80480  Biso   1.000  C
  C9       1.0000 0.19640  0.81300  0.78210  Biso   1.000  C
  N5       1.0000 0.23340  0.68050  0.81090  Biso   1.000  N
  C10      1.0000 0.27280  0.54800  0.83630  Biso   1.000  C
  C11      1.0000 0.16300  0.84860  0.75490  Biso   1.000  C
  C12      1.0000 0.22230  0.87480  0.80590  Biso   1.000  C
  C13      1.0000 0.29200  0.59220  0.87300  Biso   1.000  C
  C14      1.0000 0.28320  0.45930  0.82910  Biso   1.000  C
  C15      1.0000 0.15670  0.94080  0.75350  Biso   1.000  C
  H5       1.0000 0.14510  0.81000  0.73790  Biso   1.000  H
  C16      1.0000 0.21490  0.96660  0.80110  Biso   1.000  C
  H6       1.0000 0.24450  0.85440  0.82510  Biso   1.000  H
  C17      1.0000 0.32110  0.54610  0.90150  Biso   1.000  C
  H7       1.0000 0.28560  0.65160  0.87880  Biso   1.000  H
  C18      1.0000 0.31260  0.41920  0.85890  Biso   1.000  C
  H8       1.0000 0.27050  0.42760  0.80460  Biso   1.000  H
  N6       1.0000 0.18230  0.99840  0.77570  Biso   1.000  N
  H9       1.0000 0.13370  0.96340  0.73640  Biso   1.000  H
  H10      1.0000 0.23320  0.00740  0.81590  Biso   1.000  H
  N7       1.0000 0.33130  0.46110  0.89510  Biso   1.000  N
  H11      1.0000 0.33420  0.57630  0.92630  Biso   1.000  H
  H12      1.0000 0.31980  0.36010  0.85360  Biso   1.000  H
  Zn2      1.0000 0.16882  0.13595  0.76885  Biso   1.000  Zn
  Zn3      1.0000 0.37417  0.40016  0.94090  Biso   1.000  Zn
  N8       1.0000 0.63750  0.65600  0.81830  Biso   1.000  N
  I3       1.0000 0.12275  0.15165  0.69512  Biso   1.000  I
  I4       1.0000 0.22975  0.23323  0.79116  Biso   1.000  I
  I5       1.0000 0.39696  0.26219  0.90304  Biso   1.000  I
  I6       1.0000 0.35106  0.40344  0.01316  Biso   1.000  I
  N9       1.0000 0.41930  0.49160  0.94460  Biso   1.000  N
  C19      1.0000 0.43440  0.50610  0.90860  Biso   1.000  C
  C20      1.0000 0.43640  0.53450  0.98120  Biso   1.000  C
  C21      1.0000 0.46610  0.55890  0.90820  Biso   1.000  C
  H13      1.0000 0.42250  0.47830  0.88250  Biso   1.000  H
  H14      1.0000 0.42630  0.52530  0.00650  Biso   1.000  H
  C22      1.0000 0.46800  0.59170  0.98370  Biso   1.000  C
  C23      1.0000 0.48350  0.60370  0.94590  Biso   1.000  C
  H15      1.0000 0.47610  0.56490  0.88270  Biso   1.000  H
  H16      1.0000 0.47860  0.62130  0.00980  Biso   1.000  H
  C24      1.0000 0.51730  0.66410  0.94530  Biso   1.000  C
  N10      1.0000 0.53910  0.64490  0.91510  Biso   1.000  N
  N11      1.0000 0.52260  0.73360  0.97280  Biso   1.000  N
  C25      1.0000 0.56730  0.70550  0.91310  Biso   1.000  C
  C26      1.0000 0.55110  0.79100  0.96630  Biso   1.000  C
  C27      1.0000 0.59200  0.68790  0.88080  Biso   1.000  C
  N12      1.0000 0.57340  0.78110  0.93730  Biso   1.000  N
  C28      1.0000 0.55630  0.87390  0.99410  Biso   1.000  C
  C29      1.0000 0.59320  0.60240  0.86250  Biso   1.000  C
  C30      1.0000 0.61510  0.75410  0.86870  Biso   1.000  C
  C31      1.0000 0.53140  0.89600  0.02150  Biso   1.000  C
  C32      1.0000 0.58800  0.93160  0.99320  Biso   1.000  C
  C33      1.0000 0.61660  0.58970  0.83130  Biso   1.000  C
  H17      1.0000 0.57870  0.55470  0.87070  Biso   1.000  H
  C34      1.0000 0.63800  0.73210  0.83870  Biso   1.000  C
  H18      1.0000 0.61540  0.81230  0.88030  Biso   1.000  H
  C35      1.0000 0.53830  0.97320  0.04810  Biso   1.000  C
  H19      1.0000 0.50980  0.85960  0.02250  Biso   1.000  H
  C36      1.0000 0.59370  0.00570  0.02050  Biso   1.000  C
  H20      1.0000 0.60510  0.91990  0.97430  Biso   1.000  H
  H21      1.0000 0.61770  0.53230  0.81910  Biso   1.000  H
  H22      1.0000 0.65530  0.77610  0.83260  Biso   1.000  H
  H23      1.0000 0.52110  0.98730  0.06650  Biso   1.000  H
  H24      1.0000 0.61520  0.04270  0.02030  Biso   1.000  H
  I7       1.0000 0.62041  0.75365  0.55554  Biso   1.000  I
  Zn4      1.0000 0.58369  0.86833  0.59243  Biso   1.000  Zn
  I8       1.0000 0.52644  0.84491  0.63106  Biso   1.000  I
  N13      1.0000 0.06910  0.52700  0.04770  Biso   1.000  N
  N14      1.0000 0.62430  0.93640  0.63880  Biso   1.000  N
  C37      1.0000 0.65230  0.89410  0.66760  Biso   1.000  C
  C38      1.0000 0.61910  0.02570  0.64470  Biso   1.000  C
  C39      1.0000 0.67450  0.93740  0.70280  Biso   1.000  C
  H25      1.0000 0.65680  0.83280  0.66340  Biso   1.000  H
  C40      1.0000 0.64030  0.07430  0.67850  Biso   1.000  C
  H26      1.0000 0.60010  0.05580  0.62460  Biso   1.000  H
  H27      1.0000 0.69310  0.90540  0.72260  Biso   1.000  H
  C41      1.0000 0.66900  0.03030  0.70890  Biso   1.000  C
  H28      1.0000 0.63560  0.13590  0.68120  Biso   1.000  H
  C42      1.0000 0.69220  0.08230  0.74570  Biso   1.000  C
  N15      1.0000 0.68240  0.16940  0.74890  Biso   1.000  N
  N16      1.0000 0.72170  0.04100  0.77190  Biso   1.000  N
  C43      1.0000 0.70480  0.21560  0.78160  Biso   1.000  C
  C44      1.0000 0.74090  0.09240  0.80480  Biso   1.000  C
  C45      1.0000 0.69640  0.31300  0.78210  Biso   1.000  C
  N17      1.0000 0.73340  0.18050  0.81090  Biso   1.000  N
  C46      1.0000 0.77280  0.04800  0.83630  Biso   1.000  C
  C47      1.0000 0.66300  0.34860  0.75490  Biso   1.000  C
  C48      1.0000 0.72230  0.37480  0.80590  Biso   1.000  C
  C49      1.0000 0.79200  0.09220  0.87300  Biso   1.000  C
  C50      1.0000 0.78320  0.95930  0.82910  Biso   1.000  C
  C51      1.0000 0.65670  0.44080  0.75350  Biso   1.000  C
  H29      1.0000 0.64510  0.31000  0.73790  Biso   1.000  H
  C52      1.0000 0.71490  0.46660  0.80110  Biso   1.000  C
  H30      1.0000 0.74450  0.35440  0.82510  Biso   1.000  H
  C53      1.0000 0.82110  0.04610  0.90150  Biso   1.000  C
  H31      1.0000 0.78560  0.15160  0.87880  Biso   1.000  H
  C54      1.0000 0.81260  0.91920  0.85890  Biso   1.000  C
  H32      1.0000 0.77050  0.92760  0.80460  Biso   1.000  H
  N18      1.0000 0.68230  0.49840  0.77570  Biso   1.000  N
  H33      1.0000 0.63370  0.46340  0.73640  Biso   1.000  H
  H34      1.0000 0.73320  0.50740  0.81590  Biso   1.000  H
  N19      1.0000 0.83130  0.96110  0.89510  Biso   1.000  N
  H35      1.0000 0.83420  0.07630  0.92630  Biso   1.000  H
  H36      1.0000 0.81980  0.86010  0.85360  Biso   1.000  H
  Zn5      1.0000 0.66882  0.63595  0.76885  Biso   1.000  Zn
  Zn6      1.0000 0.87417  0.90016  0.94090  Biso   1.000  Zn
  N20      1.0000 0.13750  0.15600  0.81830  Biso   1.000  N
  I9       1.0000 0.62275  0.65165  0.69512  Biso   1.000  I
  I10      1.0000 0.72975  0.73323  0.79116  Biso   1.000  I
  I11      1.0000 0.89696  0.76219  0.90304  Biso   1.000  I
  I12      1.0000 0.85106  0.90344  0.01316  Biso   1.000  I
  N21      1.0000 0.91930  0.99160  0.94460  Biso   1.000  N
  C55      1.0000 0.93440  0.00610  0.90860  Biso   1.000  C
  C56      1.0000 0.93640  0.03450  0.98120  Biso   1.000  C
  C57      1.0000 0.96610  0.05890  0.90820  Biso   1.000  C
  H37      1.0000 0.92250  0.97830  0.88250  Biso   1.000  H
  H38      1.0000 0.92630  0.02530  0.00650  Biso   1.000  H
  C58      1.0000 0.96800  0.09170  0.98370  Biso   1.000  C
  C59      1.0000 0.98350  0.10370  0.94590  Biso   1.000  C
  H39      1.0000 0.97610  0.06490  0.88270  Biso   1.000  H
  H40      1.0000 0.97860  0.12130  0.00980  Biso   1.000  H
  C60      1.0000 0.01730  0.16410  0.94530  Biso   1.000  C
  N22      1.0000 0.03910  0.14490  0.91510  Biso   1.000  N
  N23      1.0000 0.02260  0.23360  0.97280  Biso   1.000  N
  C61      1.0000 0.06730  0.20550  0.91310  Biso   1.000  C
  C62      1.0000 0.05110  0.29100  0.96630  Biso   1.000  C
  C63      1.0000 0.09200  0.18790  0.88080  Biso   1.000  C
  N24      1.0000 0.07340  0.28110  0.93730  Biso   1.000  N
  C64      1.0000 0.05630  0.37390  0.99410  Biso   1.000  C
  C65      1.0000 0.09320  0.10240  0.86250  Biso   1.000  C
  C66      1.0000 0.11510  0.25410  0.86870  Biso   1.000  C
  C67      1.0000 0.03140  0.39600  0.02150  Biso   1.000  C
  C68      1.0000 0.08800  0.43160  0.99320  Biso   1.000  C
  C69      1.0000 0.11660  0.08970  0.83130  Biso   1.000  C
  H41      1.0000 0.07870  0.05470  0.87070  Biso   1.000  H
  C70      1.0000 0.13800  0.23210  0.83870  Biso   1.000  C
  H42      1.0000 0.11540  0.31230  0.88030  Biso   1.000  H
  C71      1.0000 0.03830  0.47320  0.04810  Biso   1.000  C
  H43      1.0000 0.00980  0.35960  0.02250  Biso   1.000  H
  C72      1.0000 0.09370  0.50570  0.02050  Biso   1.000  C
  H44      1.0000 0.10510  0.41990  0.97430  Biso   1.000  H
  H45      1.0000 0.11770  0.03230  0.81910  Biso   1.000  H
  H46      1.0000 0.15530  0.27610  0.83260  Biso   1.000  H
  H47      1.0000 0.02110  0.48730  0.06650  Biso   1.000  H
  H48      1.0000 0.11520  0.54270  0.02030  Biso   1.000  H
  I13      1.0000 0.12041  0.74635  0.05554  Biso   1.000  I
  Zn7      1.0000 0.08369  0.63167  0.09243  Biso   1.000  Zn
  I14      1.0000 0.02644  0.65509  0.13106  Biso   1.000  I
  N25      1.0000 0.56910  0.97300  0.54770  Biso   1.000  N
  N26      1.0000 0.12430  0.56360  0.13880  Biso   1.000  N
  C73      1.0000 0.15230  0.60590  0.16760  Biso   1.000  C
  C74      1.0000 0.11910  0.47430  0.14470  Biso   1.000  C
  C75      1.0000 0.17450  0.56260  0.20280  Biso   1.000  C
  H49      1.0000 0.15680  0.66720  0.16340  Biso   1.000  H
  C76      1.0000 0.14030  0.42570  0.17850  Biso   1.000  C
  H50      1.0000 0.10010  0.44420  0.12460  Biso   1.000  H
  H51      1.0000 0.19310  0.59460  0.22260  Biso   1.000  H
  C77      1.0000 0.16900  0.46970  0.20890  Biso   1.000  C
  H52      1.0000 0.13560  0.36410  0.18120  Biso   1.000  H
  C78      1.0000 0.19220  0.41770  0.24570  Biso   1.000  C
  N27      1.0000 0.18240  0.33060  0.24890  Biso   1.000  N
  N28      1.0000 0.22170  0.45900  0.27190  Biso   1.000  N
  C79      1.0000 0.20480  0.28440  0.28160  Biso   1.000  C
  C80      1.0000 0.24090  0.40760  0.30480  Biso   1.000  C
  C81      1.0000 0.19640  0.18700  0.28210  Biso   1.000  C
  N29      1.0000 0.23340  0.31950  0.31090  Biso   1.000  N
  C82      1.0000 0.27280  0.45200  0.33630  Biso   1.000  C
  C83      1.0000 0.16300  0.15140  0.25490  Biso   1.000  C
  C84      1.0000 0.22230  0.12520  0.30590  Biso   1.000  C
  C85      1.0000 0.29200  0.40780  0.37300  Biso   1.000  C
  C86      1.0000 0.28320  0.54070  0.32910  Biso   1.000  C
  C87      1.0000 0.15670  0.05920  0.25350  Biso   1.000  C
  H53      1.0000 0.14510  0.19000  0.23790  Biso   1.000  H
  C88      1.0000 0.21490  0.03340  0.30110  Biso   1.000  C
  H54      1.0000 0.24450  0.14560  0.32510  Biso   1.000  H
  C89      1.0000 0.32110  0.45390  0.40150  Biso   1.000  C
  H55      1.0000 0.28560  0.34840  0.37880  Biso   1.000  H
  C90      1.0000 0.31260  0.58080  0.35890  Biso   1.000  C
  H56      1.0000 0.27050  0.57240  0.30460  Biso   1.000  H
  N30      1.0000 0.18230  0.00160  0.27570  Biso   1.000  N
  H57      1.0000 0.13370  0.03660  0.23640  Biso   1.000  H
  H58      1.0000 0.23320  0.99260  0.31590  Biso   1.000  H
  N31      1.0000 0.33130  0.53890  0.39510  Biso   1.000  N
  H59      1.0000 0.33420  0.42370  0.42630  Biso   1.000  H
  H60      1.0000 0.31980  0.63990  0.35360  Biso   1.000  H
  Zn8      1.0000 0.16882  0.86405  0.26885  Biso   1.000  Zn
  Zn9      1.0000 0.37417  0.59984  0.44090  Biso   1.000  Zn
  N32      1.0000 0.63750  0.34400  0.31830  Biso   1.000  N
  I15      1.0000 0.12275  0.84835  0.19512  Biso   1.000  I
  I16      1.0000 0.22975  0.76677  0.29116  Biso   1.000  I
  I17      1.0000 0.39696  0.73781  0.40304  Biso   1.000  I
  I18      1.0000 0.35106  0.59656  0.51316  Biso   1.000  I
  N33      1.0000 0.41930  0.50840  0.44460  Biso   1.000  N
  C91      1.0000 0.43440  0.49390  0.40860  Biso   1.000  C
  C92      1.0000 0.43640  0.46550  0.48120  Biso   1.000  C
  C93      1.0000 0.46610  0.44110  0.40820  Biso   1.000  C
  H61      1.0000 0.42250  0.52170  0.38250  Biso   1.000  H
  H62      1.0000 0.42630  0.47470  0.50650  Biso   1.000  H
  C94      1.0000 0.46800  0.40830  0.48370  Biso   1.000  C
  C95      1.0000 0.48350  0.39630  0.44590  Biso   1.000  C
  H63      1.0000 0.47610  0.43510  0.38270  Biso   1.000  H
  H64      1.0000 0.47860  0.37870  0.50980  Biso   1.000  H
  C96      1.0000 0.51730  0.33590  0.44530  Biso   1.000  C
  N34      1.0000 0.53910  0.35510  0.41510  Biso   1.000  N
  N35      1.0000 0.52260  0.26640  0.47280  Biso   1.000  N
  C97      1.0000 0.56730  0.29450  0.41310  Biso   1.000  C
  C98      1.0000 0.55110  0.20900  0.46630  Biso   1.000  C
  C99      1.0000 0.59200  0.31210  0.38080  Biso   1.000  C
  N36      1.0000 0.57340  0.21890  0.43730  Biso   1.000  N
  C100     1.0000 0.55630  0.12610  0.49410  Biso   1.000  C
  C101     1.0000 0.59320  0.39760  0.36250  Biso   1.000  C
  C102     1.0000 0.61510  0.24590  0.36870  Biso   1.000  C
  C103     1.0000 0.53140  0.10400  0.52150  Biso   1.000  C
  C104     1.0000 0.58800  0.06840  0.49320  Biso   1.000  C
  C105     1.0000 0.61660  0.41030  0.33130  Biso   1.000  C
  H65      1.0000 0.57870  0.44530  0.37070  Biso   1.000  H
  C106     1.0000 0.63800  0.26790  0.33870  Biso   1.000  C
  H66      1.0000 0.61540  0.18770  0.38030  Biso   1.000  H
  C107     1.0000 0.53830  0.02680  0.54810  Biso   1.000  C
  H67      1.0000 0.50980  0.14040  0.52250  Biso   1.000  H
  C108     1.0000 0.59370  0.99430  0.52050  Biso   1.000  C
  H68      1.0000 0.60510  0.08010  0.47430  Biso   1.000  H
  H69      1.0000 0.61770  0.46770  0.31910  Biso   1.000  H
  H70      1.0000 0.65530  0.22390  0.33260  Biso   1.000  H
  H71      1.0000 0.52110  0.01270  0.56650  Biso   1.000  H
  H72      1.0000 0.61520  0.95730  0.52030  Biso   1.000  H
  I19      1.0000 0.62041  0.24635  0.05554  Biso   1.000  I
  Zn10     1.0000 0.58369  0.13167  0.09243  Biso   1.000  Zn
  I20      1.0000 0.52644  0.15509  0.13106  Biso   1.000  I
  N37      1.0000 0.06910  0.47300  0.54770  Biso   1.000  N
  N38      1.0000 0.62430  0.06360  0.13880  Biso   1.000  N
  C109     1.0000 0.65230  0.10590  0.16760  Biso   1.000  C
  C110     1.0000 0.61910  0.97430  0.14470  Biso   1.000  C
  C111     1.0000 0.67450  0.06260  0.20280  Biso   1.000  C
  H73      1.0000 0.65680  0.16720  0.16340  Biso   1.000  H
  C112     1.0000 0.64030  0.92570  0.17850  Biso   1.000  C
  H74      1.0000 0.60010  0.94420  0.12460  Biso   1.000  H
  H75      1.0000 0.69310  0.09460  0.22260  Biso   1.000  H
  C113     1.0000 0.66900  0.96970  0.20890  Biso   1.000  C
  H76      1.0000 0.63560  0.86410  0.18120  Biso   1.000  H
  C114     1.0000 0.69220  0.91770  0.24570  Biso   1.000  C
  N39      1.0000 0.68240  0.83060  0.24890  Biso   1.000  N
  N40      1.0000 0.72170  0.95900  0.27190  Biso   1.000  N
  C115     1.0000 0.70480  0.78440  0.28160  Biso   1.000  C
  C116     1.0000 0.74090  0.90760  0.30480  Biso   1.000  C
  C117     1.0000 0.69640  0.68700  0.28210  Biso   1.000  C
  N41      1.0000 0.73340  0.81950  0.31090  Biso   1.000  N
  C118     1.0000 0.77280  0.95200  0.33630  Biso   1.000  C
  C119     1.0000 0.66300  0.65140  0.25490  Biso   1.000  C
  C120     1.0000 0.72230  0.62520  0.30590  Biso   1.000  C
  C121     1.0000 0.79200  0.90780  0.37300  Biso   1.000  C
  C122     1.0000 0.78320  0.04070  0.32910  Biso   1.000  C
  C123     1.0000 0.65670  0.55920  0.25350  Biso   1.000  C
  H77      1.0000 0.64510  0.69000  0.23790  Biso   1.000  H
  C124     1.0000 0.71490  0.53340  0.30110  Biso   1.000  C
  H78      1.0000 0.74450  0.64560  0.32510  Biso   1.000  H
  C125     1.0000 0.82110  0.95390  0.40150  Biso   1.000  C
  H79      1.0000 0.78560  0.84840  0.37880  Biso   1.000  H
  C126     1.0000 0.81260  0.08080  0.35890  Biso   1.000  C
  H80      1.0000 0.77050  0.07240  0.30460  Biso   1.000  H
  N42      1.0000 0.68230  0.50160  0.27570  Biso   1.000  N
  H81      1.0000 0.63370  0.53660  0.23640  Biso   1.000  H
  H82      1.0000 0.73320  0.49260  0.31590  Biso   1.000  H
  N43      1.0000 0.83130  0.03890  0.39510  Biso   1.000  N
  H83      1.0000 0.83420  0.92370  0.42630  Biso   1.000  H
  H84      1.0000 0.81980  0.13990  0.35360  Biso   1.000  H
  Zn11     1.0000 0.66882  0.36405  0.26885  Biso   1.000  Zn
  Zn12     1.0000 0.87417  0.09984  0.44090  Biso   1.000  Zn
  N44      1.0000 0.13750  0.84400  0.31830  Biso   1.000  N
  I21      1.0000 0.62275  0.34835  0.19512  Biso   1.000  I
  I22      1.0000 0.72975  0.26677  0.29116  Biso   1.000  I
  I23      1.0000 0.89696  0.23781  0.40304  Biso   1.000  I
  I24      1.0000 0.85106  0.09656  0.51316  Biso   1.000  I
  N45      1.0000 0.91930  0.00840  0.44460  Biso   1.000  N
  C127     1.0000 0.93440  0.99390  0.40860  Biso   1.000  C
  C128     1.0000 0.93640  0.96550  0.48120  Biso   1.000  C
  C129     1.0000 0.96610  0.94110  0.40820  Biso   1.000  C
  H85      1.0000 0.92250  0.02170  0.38250  Biso   1.000  H
  H86      1.0000 0.92630  0.97470  0.50650  Biso   1.000  H
  C130     1.0000 0.96800  0.90830  0.48370  Biso   1.000  C
  C131     1.0000 0.98350  0.89630  0.44590  Biso   1.000  C
  H87      1.0000 0.97610  0.93510  0.38270  Biso   1.000  H
  H88      1.0000 0.97860  0.87870  0.50980  Biso   1.000  H
  C132     1.0000 0.01730  0.83590  0.44530  Biso   1.000  C
  N46      1.0000 0.03910  0.85510  0.41510  Biso   1.000  N
  N47      1.0000 0.02260  0.76640  0.47280  Biso   1.000  N
  C133     1.0000 0.06730  0.79450  0.41310  Biso   1.000  C
  C134     1.0000 0.05110  0.70900  0.46630  Biso   1.000  C
  C135     1.0000 0.09200  0.81210  0.38080  Biso   1.000  C
  N48      1.0000 0.07340  0.71890  0.43730  Biso   1.000  N
  C136     1.0000 0.05630  0.62610  0.49410  Biso   1.000  C
  C137     1.0000 0.09320  0.89760  0.36250  Biso   1.000  C
  C138     1.0000 0.11510  0.74590  0.36870  Biso   1.000  C
  C139     1.0000 0.03140  0.60400  0.52150  Biso   1.000  C
  C140     1.0000 0.08800  0.56840  0.49320  Biso   1.000  C
  C141     1.0000 0.11660  0.91030  0.33130  Biso   1.000  C
  H89      1.0000 0.07870  0.94530  0.37070  Biso   1.000  H
  C142     1.0000 0.13800  0.76790  0.33870  Biso   1.000  C
  H90      1.0000 0.11540  0.68770  0.38030  Biso   1.000  H
  C143     1.0000 0.03830  0.52680  0.54810  Biso   1.000  C
  H91      1.0000 0.00980  0.64040  0.52250  Biso   1.000  H
  C144     1.0000 0.09370  0.49430  0.52050  Biso   1.000  C
  H92      1.0000 0.10510  0.58010  0.47430  Biso   1.000  H
  H93      1.0000 0.11770  0.96770  0.31910  Biso   1.000  H
  H94      1.0000 0.15530  0.72390  0.33260  Biso   1.000  H
  H95      1.0000 0.02110  0.51270  0.56650  Biso   1.000  H
  H96      1.0000 0.11520  0.45730  0.52030  Biso   1.000  H
  I25      1.0000 0.87959  0.25365  0.94446  Biso   1.000  I
  Zn13     1.0000 0.91631  0.36833  0.90757  Biso   1.000  Zn
  I26      1.0000 0.97356  0.34491  0.86894  Biso   1.000  I
  N49      1.0000 0.43090  0.02700  0.45230  Biso   1.000  N
  N50      1.0000 0.87570  0.43640  0.86120  Biso   1.000  N
  C145     1.0000 0.84770  0.39410  0.83240  Biso   1.000  C
  C146     1.0000 0.88090  0.52570  0.85530  Biso   1.000  C
  C147     1.0000 0.82550  0.43740  0.79720  Biso   1.000  C
  H97      1.0000 0.84320  0.33280  0.83660  Biso   1.000  H
  C148     1.0000 0.85970  0.57430  0.82150  Biso   1.000  C
  H98      1.0000 0.89990  0.55580  0.87540  Biso   1.000  H
  H99      1.0000 0.80690  0.40540  0.77740  Biso   1.000  H
  C149     1.0000 0.83100  0.53030  0.79110  Biso   1.000  C
  H100     1.0000 0.86440  0.63590  0.81880  Biso   1.000  H
  C150     1.0000 0.80780  0.58230  0.75430  Biso   1.000  C
  N51      1.0000 0.81760  0.66940  0.75110  Biso   1.000  N
  N52      1.0000 0.77830  0.54100  0.72810  Biso   1.000  N
  C151     1.0000 0.79520  0.71560  0.71840  Biso   1.000  C
  C152     1.0000 0.75910  0.59240  0.69520  Biso   1.000  C
  C153     1.0000 0.80360  0.81300  0.71790  Biso   1.000  C
  N53      1.0000 0.76660  0.68050  0.68910  Biso   1.000  N
  C154     1.0000 0.72720  0.54800  0.66370  Biso   1.000  C
  C155     1.0000 0.83700  0.84860  0.74510  Biso   1.000  C
  C156     1.0000 0.77770  0.87480  0.69410  Biso   1.000  C
  C157     1.0000 0.70800  0.59220  0.62700  Biso   1.000  C
  C158     1.0000 0.71680  0.45930  0.67090  Biso   1.000  C
  C159     1.0000 0.84330  0.94080  0.74650  Biso   1.000  C
  H101     1.0000 0.85490  0.81000  0.76210  Biso   1.000  H
  C160     1.0000 0.78510  0.96660  0.69890  Biso   1.000  C
  H102     1.0000 0.75550  0.85440  0.67490  Biso   1.000  H
  C161     1.0000 0.67890  0.54610  0.59850  Biso   1.000  C
  H103     1.0000 0.71440  0.65160  0.62120  Biso   1.000  H
  C162     1.0000 0.68740  0.41920  0.64110  Biso   1.000  C
  H104     1.0000 0.72950  0.42760  0.69540  Biso   1.000  H
  N54      1.0000 0.81770  0.99840  0.72430  Biso   1.000  N
  H105     1.0000 0.86630  0.96340  0.76360  Biso   1.000  H
  H106     1.0000 0.76680  0.00740  0.68410  Biso   1.000  H
  N55      1.0000 0.66870  0.46110  0.60490  Biso   1.000  N
  H107     1.0000 0.66580  0.57630  0.57370  Biso   1.000  H
  H108     1.0000 0.68020  0.36010  0.64640  Biso   1.000  H
  Zn14     1.0000 0.83118  0.13595  0.73115  Biso   1.000  Zn
  Zn15     1.0000 0.62583  0.40016  0.55910  Biso   1.000  Zn
  N56      1.0000 0.36250  0.65600  0.68170  Biso   1.000  N
  I27      1.0000 0.87725  0.15165  0.80488  Biso   1.000  I
  I28      1.0000 0.77025  0.23323  0.70884  Biso   1.000  I
  I29      1.0000 0.60304  0.26219  0.59696  Biso   1.000  I
  I30      1.0000 0.64894  0.40344  0.48684  Biso   1.000  I
  N57      1.0000 0.58070  0.49160  0.55540  Biso   1.000  N
  C163     1.0000 0.56560  0.50610  0.59140  Biso   1.000  C
  C164     1.0000 0.56360  0.53450  0.51880  Biso   1.000  C
  C165     1.0000 0.53390  0.55890  0.59180  Biso   1.000  C
  H109     1.0000 0.57750  0.47830  0.61750  Biso   1.000  H
  H110     1.0000 0.57370  0.52530  0.49350  Biso   1.000  H
  C166     1.0000 0.53200  0.59170  0.51630  Biso   1.000  C
  C167     1.0000 0.51650  0.60370  0.55410  Biso   1.000  C
  H111     1.0000 0.52390  0.56490  0.61730  Biso   1.000  H
  H112     1.0000 0.52140  0.62130  0.49020  Biso   1.000  H
  C168     1.0000 0.48270  0.66410  0.55470  Biso   1.000  C
  N58      1.0000 0.46090  0.64490  0.58490  Biso   1.000  N
  N59      1.0000 0.47740  0.73360  0.52720  Biso   1.000  N
  C169     1.0000 0.43270  0.70550  0.58690  Biso   1.000  C
  C170     1.0000 0.44890  0.79100  0.53370  Biso   1.000  C
  C171     1.0000 0.40800  0.68790  0.61920  Biso   1.000  C
  N60      1.0000 0.42660  0.78110  0.56270  Biso   1.000  N
  C172     1.0000 0.44370  0.87390  0.50590  Biso   1.000  C
  C173     1.0000 0.40680  0.60240  0.63750  Biso   1.000  C
  C174     1.0000 0.38490  0.75410  0.63130  Biso   1.000  C
  C175     1.0000 0.46860  0.89600  0.47850  Biso   1.000  C
  C176     1.0000 0.41200  0.93160  0.50680  Biso   1.000  C
  C177     1.0000 0.38340  0.58970  0.66870  Biso   1.000  C
  H113     1.0000 0.42130  0.55470  0.62930  Biso   1.000  H
  C178     1.0000 0.36200  0.73210  0.66130  Biso   1.000  C
  H114     1.0000 0.38460  0.81230  0.61970  Biso   1.000  H
  C179     1.0000 0.46170  0.97320  0.45190  Biso   1.000  C
  H115     1.0000 0.49020  0.85960  0.47750  Biso   1.000  H
  C180     1.0000 0.40630  0.00570  0.47950  Biso   1.000  C
  H116     1.0000 0.39490  0.91990  0.52570  Biso   1.000  H
  H117     1.0000 0.38230  0.53230  0.68090  Biso   1.000  H
  H118     1.0000 0.34470  0.77610  0.66740  Biso   1.000  H
  H119     1.0000 0.47890  0.98730  0.43350  Biso   1.000  H
  H120     1.0000 0.38480  0.04270  0.47970  Biso   1.000  H
  I31      1.0000 0.37959  0.75365  0.94446  Biso   1.000  I
  Zn16     1.0000 0.41631  0.86833  0.90757  Biso   1.000  Zn
  I32      1.0000 0.47356  0.84491  0.86894  Biso   1.000  I
  N61      1.0000 0.93090  0.52700  0.45230  Biso   1.000  N
  N62      1.0000 0.37570  0.93640  0.86120  Biso   1.000  N
  C181     1.0000 0.34770  0.89410  0.83240  Biso   1.000  C
  C182     1.0000 0.38090  0.02570  0.85530  Biso   1.000  C
  C183     1.0000 0.32550  0.93740  0.79720  Biso   1.000  C
  H121     1.0000 0.34320  0.83280  0.83660  Biso   1.000  H
  C184     1.0000 0.35970  0.07430  0.82150  Biso   1.000  C
  H122     1.0000 0.39990  0.05580  0.87540  Biso   1.000  H
  H123     1.0000 0.30690  0.90540  0.77740  Biso   1.000  H
  C185     1.0000 0.33100  0.03030  0.79110  Biso   1.000  C
  H124     1.0000 0.36440  0.13590  0.81880  Biso   1.000  H
  C186     1.0000 0.30780  0.08230  0.75430  Biso   1.000  C
  N63      1.0000 0.31760  0.16940  0.75110  Biso   1.000  N
  N64      1.0000 0.27830  0.04100  0.72810  Biso   1.000  N
  C187     1.0000 0.29520  0.21560  0.71840  Biso   1.000  C
  C188     1.0000 0.25910  0.09240  0.69520  Biso   1.000  C
  C189     1.0000 0.30360  0.31300  0.71790  Biso   1.000  C
  N65      1.0000 0.26660  0.18050  0.68910  Biso   1.000  N
  C190     1.0000 0.22720  0.04800  0.66370  Biso   1.000  C
  C191     1.0000 0.33700  0.34860  0.74510  Biso   1.000  C
  C192     1.0000 0.27770  0.37480  0.69410  Biso   1.000  C
  C193     1.0000 0.20800  0.09220  0.62700  Biso   1.000  C
  C194     1.0000 0.21680  0.95930  0.67090  Biso   1.000  C
  C195     1.0000 0.34330  0.44080  0.74650  Biso   1.000  C
  H125     1.0000 0.35490  0.31000  0.76210  Biso   1.000  H
  C196     1.0000 0.28510  0.46660  0.69890  Biso   1.000  C
  H126     1.0000 0.25550  0.35440  0.67490  Biso   1.000  H
  C197     1.0000 0.17890  0.04610  0.59850  Biso   1.000  C
  H127     1.0000 0.21440  0.15160  0.62120  Biso   1.000  H
  C198     1.0000 0.18740  0.91920  0.64110  Biso   1.000  C
  H128     1.0000 0.22950  0.92760  0.69540  Biso   1.000  H
  N66      1.0000 0.31770  0.49840  0.72430  Biso   1.000  N
  H129     1.0000 0.36630  0.46340  0.76360  Biso   1.000  H
  H130     1.0000 0.26680  0.50740  0.68410  Biso   1.000  H
  N67      1.0000 0.16870  0.96110  0.60490  Biso   1.000  N
  H131     1.0000 0.16580  0.07630  0.57370  Biso   1.000  H
  H132     1.0000 0.18020  0.86010  0.64640  Biso   1.000  H
  Zn17     1.0000 0.33118  0.63595  0.73115  Biso   1.000  Zn
  Zn18     1.0000 0.12583  0.90016  0.55910  Biso   1.000  Zn
  N68      1.0000 0.86250  0.15600  0.68170  Biso   1.000  N
  I33      1.0000 0.37725  0.65165  0.80488  Biso   1.000  I
  I34      1.0000 0.27025  0.73323  0.70884  Biso   1.000  I
  I35      1.0000 0.10304  0.76219  0.59696  Biso   1.000  I
  I36      1.0000 0.14894  0.90344  0.48684  Biso   1.000  I
  N69      1.0000 0.08070  0.99160  0.55540  Biso   1.000  N
  C199     1.0000 0.06560  0.00610  0.59140  Biso   1.000  C
  C200     1.0000 0.06360  0.03450  0.51880  Biso   1.000  C
  C201     1.0000 0.03390  0.05890  0.59180  Biso   1.000  C
  H133     1.0000 0.07750  0.97830  0.61750  Biso   1.000  H
  H134     1.0000 0.07370  0.02530  0.49350  Biso   1.000  H
  C202     1.0000 0.03200  0.09170  0.51630  Biso   1.000  C
  C203     1.0000 0.01650  0.10370  0.55410  Biso   1.000  C
  H135     1.0000 0.02390  0.06490  0.61730  Biso   1.000  H
  H136     1.0000 0.02140  0.12130  0.49020  Biso   1.000  H
  C204     1.0000 0.98270  0.16410  0.55470  Biso   1.000  C
  N70      1.0000 0.96090  0.14490  0.58490  Biso   1.000  N
  N71      1.0000 0.97740  0.23360  0.52720  Biso   1.000  N
  C205     1.0000 0.93270  0.20550  0.58690  Biso   1.000  C
  C206     1.0000 0.94890  0.29100  0.53370  Biso   1.000  C
  C207     1.0000 0.90800  0.18790  0.61920  Biso   1.000  C
  N72      1.0000 0.92660  0.28110  0.56270  Biso   1.000  N
  C208     1.0000 0.94370  0.37390  0.50590  Biso   1.000  C
  C209     1.0000 0.90680  0.10240  0.63750  Biso   1.000  C
  C210     1.0000 0.88490  0.25410  0.63130  Biso   1.000  C
  C211     1.0000 0.96860  0.39600  0.47850  Biso   1.000  C
  C212     1.0000 0.91200  0.43160  0.50680  Biso   1.000  C
  C213     1.0000 0.88340  0.08970  0.66870  Biso   1.000  C
  H137     1.0000 0.92130  0.05470  0.62930  Biso   1.000  H
  C214     1.0000 0.86200  0.23210  0.66130  Biso   1.000  C
  H138     1.0000 0.88460  0.31230  0.61970  Biso   1.000  H
  C215     1.0000 0.96170  0.47320  0.45190  Biso   1.000  C
  H139     1.0000 0.99020  0.35960  0.47750  Biso   1.000  H
  C216     1.0000 0.90630  0.50570  0.47950  Biso   1.000  C
  H140     1.0000 0.89490  0.41990  0.52570  Biso   1.000  H
  H141     1.0000 0.88230  0.03230  0.68090  Biso   1.000  H
  H142     1.0000 0.84470  0.27610  0.66740  Biso   1.000  H
  H143     1.0000 0.97890  0.48730  0.43350  Biso   1.000  H
  H144     1.0000 0.88480  0.54270  0.47970  Biso   1.000  H
  I37      1.0000 0.87959  0.74635  0.44446  Biso   1.000  I
  Zn19     1.0000 0.91631  0.63167  0.40757  Biso   1.000  Zn
  I38      1.0000 0.97356  0.65509  0.36894  Biso   1.000  I
  N73      1.0000 0.43090  0.97300  0.95230  Biso   1.000  N
  N74      1.0000 0.87570  0.56360  0.36120  Biso   1.000  N
  C217     1.0000 0.84770  0.60590  0.33240  Biso   1.000  C
  C218     1.0000 0.88090  0.47430  0.35530  Biso   1.000  C
  C219     1.0000 0.82550  0.56260  0.29720  Biso   1.000  C
  H145     1.0000 0.84320  0.66720  0.33660  Biso   1.000  H
  C220     1.0000 0.85970  0.42570  0.32150  Biso   1.000  C
  H146     1.0000 0.89990  0.44420  0.37540  Biso   1.000  H
  H147     1.0000 0.80690  0.59460  0.27740  Biso   1.000  H
  C221     1.0000 0.83100  0.46970  0.29110  Biso   1.000  C
  H148     1.0000 0.86440  0.36410  0.31880  Biso   1.000  H
  C222     1.0000 0.80780  0.41770  0.25430  Biso   1.000  C
  N75      1.0000 0.81760  0.33060  0.25110  Biso   1.000  N
  N76      1.0000 0.77830  0.45900  0.22810  Biso   1.000  N
  C223     1.0000 0.79520  0.28440  0.21840  Biso   1.000  C
  C224     1.0000 0.75910  0.40760  0.19520  Biso   1.000  C
  C225     1.0000 0.80360  0.18700  0.21790  Biso   1.000  C
  N77      1.0000 0.76660  0.31950  0.18910  Biso   1.000  N
  C226     1.0000 0.72720  0.45200  0.16370  Biso   1.000  C
  C227     1.0000 0.83700  0.15140  0.24510  Biso   1.000  C
  C228     1.0000 0.77770  0.12520  0.19410  Biso   1.000  C
  C229     1.0000 0.70800  0.40780  0.12700  Biso   1.000  C
  C230     1.0000 0.71680  0.54070  0.17090  Biso   1.000  C
  C231     1.0000 0.84330  0.05920  0.24650  Biso   1.000  C
  H149     1.0000 0.85490  0.19000  0.26210  Biso   1.000  H
  C232     1.0000 0.78510  0.03340  0.19890  Biso   1.000  C
  H150     1.0000 0.75550  0.14560  0.17490  Biso   1.000  H
  C233     1.0000 0.67890  0.45390  0.09850  Biso   1.000  C
  H151     1.0000 0.71440  0.34840  0.12120  Biso   1.000  H
  C234     1.0000 0.68740  0.58080  0.14110  Biso   1.000  C
  H152     1.0000 0.72950  0.57240  0.19540  Biso   1.000  H
  N78      1.0000 0.81770  0.00160  0.22430  Biso   1.000  N
  H153     1.0000 0.86630  0.03660  0.26360  Biso   1.000  H
  H154     1.0000 0.76680  0.99260  0.18410  Biso   1.000  H
  N79      1.0000 0.66870  0.53890  0.10490  Biso   1.000  N
  H155     1.0000 0.66580  0.42370  0.07370  Biso   1.000  H
  H156     1.0000 0.68020  0.63990  0.14640  Biso   1.000  H
  Zn20     1.0000 0.83118  0.86405  0.23115  Biso   1.000  Zn
  Zn21     1.0000 0.62583  0.59984  0.05910  Biso   1.000  Zn
  N80      1.0000 0.36250  0.34400  0.18170  Biso   1.000  N
  I39      1.0000 0.87725  0.84835  0.30488  Biso   1.000  I
  I40      1.0000 0.77025  0.76677  0.20884  Biso   1.000  I
  I41      1.0000 0.60304  0.73781  0.09696  Biso   1.000  I
  I42      1.0000 0.64894  0.59656  0.98684  Biso   1.000  I
  N81      1.0000 0.58070  0.50840  0.05540  Biso   1.000  N
  C235     1.0000 0.56560  0.49390  0.09140  Biso   1.000  C
  C236     1.0000 0.56360  0.46550  0.01880  Biso   1.000  C
  C237     1.0000 0.53390  0.44110  0.09180  Biso   1.000  C
  H157     1.0000 0.57750  0.52170  0.11750  Biso   1.000  H
  H158     1.0000 0.57370  0.47470  0.99350  Biso   1.000  H
  C238     1.0000 0.53200  0.40830  0.01630  Biso   1.000  C
  C239     1.0000 0.51650  0.39630  0.05410  Biso   1.000  C
  H159     1.0000 0.52390  0.43510  0.11730  Biso   1.000  H
  H160     1.0000 0.52140  0.37870  0.99020  Biso   1.000  H
  C240     1.0000 0.48270  0.33590  0.05470  Biso   1.000  C
  N82      1.0000 0.46090  0.35510  0.08490  Biso   1.000  N
  N83      1.0000 0.47740  0.26640  0.02720  Biso   1.000  N
  C241     1.0000 0.43270  0.29450  0.08690  Biso   1.000  C
  C242     1.0000 0.44890  0.20900  0.03370  Biso   1.000  C
  C243     1.0000 0.40800  0.31210  0.11920  Biso   1.000  C
  N84      1.0000 0.42660  0.21890  0.06270  Biso   1.000  N
  C244     1.0000 0.44370  0.12610  0.00590  Biso   1.000  C
  C245     1.0000 0.40680  0.39760  0.13750  Biso   1.000  C
  C246     1.0000 0.38490  0.24590  0.13130  Biso   1.000  C
  C247     1.0000 0.46860  0.10400  0.97850  Biso   1.000  C
  C248     1.0000 0.41200  0.06840  0.00680  Biso   1.000  C
  C249     1.0000 0.38340  0.41030  0.16870  Biso   1.000  C
  H161     1.0000 0.42130  0.44530  0.12930  Biso   1.000  H
  C250     1.0000 0.36200  0.26790  0.16130  Biso   1.000  C
  H162     1.0000 0.38460  0.18770  0.11970  Biso   1.000  H
  C251     1.0000 0.46170  0.02680  0.95190  Biso   1.000  C
  H163     1.0000 0.49020  0.14040  0.97750  Biso   1.000  H
  C252     1.0000 0.40630  0.99430  0.97950  Biso   1.000  C
  H164     1.0000 0.39490  0.08010  0.02570  Biso   1.000  H
  H165     1.0000 0.38230  0.46770  0.18090  Biso   1.000  H
  H166     1.0000 0.34470  0.22390  0.16740  Biso   1.000  H
  H167     1.0000 0.47890  0.01270  0.93350  Biso   1.000  H
  H168     1.0000 0.38480  0.95730  0.97970  Biso   1.000  H
  I43      1.0000 0.37959  0.24635  0.44446  Biso   1.000  I
  Zn22     1.0000 0.41631  0.13167  0.40757  Biso   1.000  Zn
  I44      1.0000 0.47356  0.15509  0.36894  Biso   1.000  I
  N85      1.0000 0.93090  0.47300  0.95230  Biso   1.000  N
  N86      1.0000 0.37570  0.06360  0.36120  Biso   1.000  N
  C253     1.0000 0.34770  0.10590  0.33240  Biso   1.000  C
  C254     1.0000 0.38090  0.97430  0.35530  Biso   1.000  C
  C255     1.0000 0.32550  0.06260  0.29720  Biso   1.000  C
  H169     1.0000 0.34320  0.16720  0.33660  Biso   1.000  H
  C256     1.0000 0.35970  0.92570  0.32150  Biso   1.000  C
  H170     1.0000 0.39990  0.94420  0.37540  Biso   1.000  H
  H171     1.0000 0.30690  0.09460  0.27740  Biso   1.000  H
  C257     1.0000 0.33100  0.96970  0.29110  Biso   1.000  C
  H172     1.0000 0.36440  0.86410  0.31880  Biso   1.000  H
  C258     1.0000 0.30780  0.91770  0.25430  Biso   1.000  C
  N87      1.0000 0.31760  0.83060  0.25110  Biso   1.000  N
  N88      1.0000 0.27830  0.95900  0.22810  Biso   1.000  N
  C259     1.0000 0.29520  0.78440  0.21840  Biso   1.000  C
  C260     1.0000 0.25910  0.90760  0.19520  Biso   1.000  C
  C261     1.0000 0.30360  0.68700  0.21790  Biso   1.000  C
  N89      1.0000 0.26660  0.81950  0.18910  Biso   1.000  N
  C262     1.0000 0.22720  0.95200  0.16370  Biso   1.000  C
  C263     1.0000 0.33700  0.65140  0.24510  Biso   1.000  C
  C264     1.0000 0.27770  0.62520  0.19410  Biso   1.000  C
  C265     1.0000 0.20800  0.90780  0.12700  Biso   1.000  C
  C266     1.0000 0.21680  0.04070  0.17090  Biso   1.000  C
  C267     1.0000 0.34330  0.55920  0.24650  Biso   1.000  C
  H173     1.0000 0.35490  0.69000  0.26210  Biso   1.000  H
  C268     1.0000 0.28510  0.53340  0.19890  Biso   1.000  C
  H174     1.0000 0.25550  0.64560  0.17490  Biso   1.000  H
  C269     1.0000 0.17890  0.95390  0.09850  Biso   1.000  C
  H175     1.0000 0.21440  0.84840  0.12120  Biso   1.000  H
  C270     1.0000 0.18740  0.08080  0.14110  Biso   1.000  C
  H176     1.0000 0.22950  0.07240  0.19540  Biso   1.000  H
  N90      1.0000 0.31770  0.50160  0.22430  Biso   1.000  N
  H177     1.0000 0.36630  0.53660  0.26360  Biso   1.000  H
  H178     1.0000 0.26680  0.49260  0.18410  Biso   1.000  H
  N91      1.0000 0.16870  0.03890  0.10490  Biso   1.000  N
  H179     1.0000 0.16580  0.92370  0.07370  Biso   1.000  H
  H180     1.0000 0.18020  0.13990  0.14640  Biso   1.000  H
  Zn23     1.0000 0.33118  0.36405  0.23115  Biso   1.000  Zn
  Zn24     1.0000 0.12583  0.09984  0.05910  Biso   1.000  Zn
  N92      1.0000 0.86250  0.84400  0.18170  Biso   1.000  N
  I45      1.0000 0.37725  0.34835  0.30488  Biso   1.000  I
  I46      1.0000 0.27025  0.26677  0.20884  Biso   1.000  I
  I47      1.0000 0.10304  0.23781  0.09696  Biso   1.000  I
  I48      1.0000 0.14894  0.09656  0.98684  Biso   1.000  I
  N93      1.0000 0.08070  0.00840  0.05540  Biso   1.000  N
  C271     1.0000 0.06560  0.99390  0.09140  Biso   1.000  C
  C272     1.0000 0.06360  0.96550  0.01880  Biso   1.000  C
  C273     1.0000 0.03390  0.94110  0.09180  Biso   1.000  C
  H181     1.0000 0.07750  0.02170  0.11750  Biso   1.000  H
  H182     1.0000 0.07370  0.97470  0.99350  Biso   1.000  H
  C274     1.0000 0.03200  0.90830  0.01630  Biso   1.000  C
  C275     1.0000 0.01650  0.89630  0.05410  Biso   1.000  C
  H183     1.0000 0.02390  0.93510  0.11730  Biso   1.000  H
  H184     1.0000 0.02140  0.87870  0.99020  Biso   1.000  H
  C276     1.0000 0.98270  0.83590  0.05470  Biso   1.000  C
  N94      1.0000 0.96090  0.85510  0.08490  Biso   1.000  N
  N95      1.0000 0.97740  0.76640  0.02720  Biso   1.000  N
  C277     1.0000 0.93270  0.79450  0.08690  Biso   1.000  C
  C278     1.0000 0.94890  0.70900  0.03370  Biso   1.000  C
  C279     1.0000 0.90800  0.81210  0.11920  Biso   1.000  C
  N96      1.0000 0.92660  0.71890  0.06270  Biso   1.000  N
  C280     1.0000 0.94370  0.62610  0.00590  Biso   1.000  C
  C281     1.0000 0.90680  0.89760  0.13750  Biso   1.000  C
  C282     1.0000 0.88490  0.74590  0.13130  Biso   1.000  C
  C283     1.0000 0.96860  0.60400  0.97850  Biso   1.000  C
  C284     1.0000 0.91200  0.56840  0.00680  Biso   1.000  C
  C285     1.0000 0.88340  0.91030  0.16870  Biso   1.000  C
  H185     1.0000 0.92130  0.94530  0.12930  Biso   1.000  H
  C286     1.0000 0.86200  0.76790  0.16130  Biso   1.000  C
  H186     1.0000 0.88460  0.68770  0.11970  Biso   1.000  H
  C287     1.0000 0.96170  0.52680  0.95190  Biso   1.000  C
  H187     1.0000 0.99020  0.64040  0.97750  Biso   1.000  H
  C288     1.0000 0.90630  0.49430  0.97950  Biso   1.000  C
  H188     1.0000 0.89490  0.58010  0.02570  Biso   1.000  H
  H189     1.0000 0.88230  0.96770  0.18090  Biso   1.000  H
  H190     1.0000 0.84470  0.72390  0.16740  Biso   1.000  H
  H191     1.0000 0.97890  0.51270  0.93350  Biso   1.000  H
  H192     1.0000 0.88480  0.45730  0.97970  Biso   1.000  H
