data_image0
_cell_length_a       35.577
_cell_length_b       14.634
_cell_length_c       30.5
_cell_angle_alpha    90
_cell_angle_beta     102.333
_cell_angle_gamma    90

_symmetry_space_group_name_H-M    "P 1"
_symmetry_int_tables_number       1

loop_
  _symmetry_equiv_pos_as_xyz
  'x, y, z'

loop_
  _atom_site_label
  _atom_site_occupancy
  _atom_site_fract_x
  _atom_site_fract_y
  _atom_site_fract_z
  _atom_site_thermal_displace_type
  _atom_site_B_iso_or_equiv
  _atom_site_type_symbol
  Br1      1.0000 0.27234  0.23568  0.70941  Biso   1.000  Br
  Br2      1.0000 0.36894  0.15165  0.80065  Biso   1.000  Br
  Br3      1.0000 0.38231  0.74434  0.43678  Biso   1.000  Br
  Br4      1.0000 0.46949  0.66778  0.37220  Biso   1.000  Br
  Br5      1.0000 0.10445  0.73824  0.09392  Biso   1.000  Br
  Br6      1.0000 0.13455  0.59958  0.98817  Biso   1.000  Br
  C1       1.0000 0.17230  0.45300  0.09730  Biso   1.000  C
  H1       1.0000 0.15830  0.42220  0.07250  Biso   1.000  H
  C2       1.0000 0.20170  0.40610  0.12600  Biso   1.000  C
  H2       1.0000 0.20700  0.34540  0.12060  Biso   1.000  H
  C3       1.0000 0.22265  0.45160  0.16254  Biso   1.000  C
  C4       1.0000 0.21363  0.54280  0.16900  Biso   1.000  C
  H3       1.0000 0.22770  0.57560  0.19310  Biso   1.000  H
  C5       1.0000 0.18412  0.58310  0.13960  Biso   1.000  C
  H4       1.0000 0.17800  0.64350  0.14460  Biso   1.000  H
  C6       1.0000 0.25424  0.40690  0.19412  Biso   1.000  C
  C7       1.0000 0.28923  0.28180  0.21800  Biso   1.000  C
  C8       1.0000 0.30400  0.41520  0.25394  Biso   1.000  C
  C9       1.0000 0.29796  0.18080  0.21650  Biso   1.000  C
  C10      1.0000 0.27279  0.12020  0.19120  Biso   1.000  C
  H5       1.0000 0.25020  0.14090  0.17250  Biso   1.000  H
  C11      1.0000 0.28163  0.02650  0.19390  Biso   1.000  C
  H6       1.0000 0.26480  0.98550  0.17650  Biso   1.000  H
  C12      1.0000 0.33820  0.05400  0.24330  Biso   1.000  C
  H7       1.0000 0.36120  0.03190  0.26020  Biso   1.000  H
  C13      1.0000 0.33190  0.14530  0.24320  Biso   1.000  C
  H8       1.0000 0.34990  0.18400  0.26050  Biso   1.000  H
  C14      1.0000 0.38050  0.47390  0.35390  Biso   1.000  C
  H9       1.0000 0.39930  0.44350  0.37470  Biso   1.000  H
  C15      1.0000 0.35720  0.42420  0.32130  Biso   1.000  C
  H10      1.0000 0.36020  0.36130  0.31960  Biso   1.000  H
  C16      1.0000 0.32889  0.46880  0.29058  Biso   1.000  C
  C17      1.0000 0.32502  0.56360  0.29480  Biso   1.000  C
  H11      1.0000 0.30610  0.59540  0.27490  Biso   1.000  H
  C18      1.0000 0.34951  0.60880  0.32860  Biso   1.000  C
  H12      1.0000 0.34660  0.67150  0.33160  Biso   1.000  H
  C19      1.0000 0.46114  0.47490  0.45071  Biso   1.000  C
  H13      1.0000 0.47820  0.48840  0.43240  Biso   1.000  H
  C20      1.0000 0.46737  0.39700  0.47660  Biso   1.000  C
  H14      1.0000 0.48740  0.35760  0.47450  Biso   1.000  H
  C21      1.0000 0.44315  0.37830  0.50582  Biso   1.000  C
  C22      1.0000 0.41340  0.43970  0.50670  Biso   1.000  C
  H15      1.0000 0.39670  0.42990  0.52580  Biso   1.000  H
  C23      1.0000 0.40910  0.51380  0.47950  Biso   1.000  C
  H16      1.0000 0.38920  0.55440  0.48070  Biso   1.000  H
  C24      1.0000 0.44860  0.29450  0.53482  Biso   1.000  C
  C25      1.0000 0.48125  0.16700  0.55879  Biso   1.000  C
  C26      1.0000 0.43335  0.21360  0.59074  Biso   1.000  C
  C27      1.0000 0.40848  0.19780  0.62310  Biso   1.000  C
  C28      1.0000 0.41920  0.14400  0.65990  Biso   1.000  C
  H17      1.0000 0.44340  0.11680  0.66580  Biso   1.000  H
  C29      1.0000 0.39520  0.12920  0.68820  Biso   1.000  C
  H18      1.0000 0.40380  0.09210  0.71300  Biso   1.000  H
  C30      1.0000 0.34900  0.21640  0.64590  Biso   1.000  C
  H19      1.0000 0.32450  0.24180  0.64040  Biso   1.000  H
  C31      1.0000 0.37210  0.23410  0.61590  Biso   1.000  C
  H20      1.0000 0.36310  0.27060  0.59090  Biso   1.000  H
  C32      1.0000 0.51339  0.10270  0.55758  Biso   1.000  C
  C33      1.0000 0.53000  0.09770  0.52080  Biso   1.000  C
  H21      1.0000 0.52110  0.13410  0.49580  Biso   1.000  H
  C34      1.0000 0.56021  0.03760  0.52180  Biso   1.000  C
  H22      1.0000 0.57100  0.03310  0.49660  Biso   1.000  H
  C35      1.0000 0.55840  0.99170  0.59310  Biso   1.000  C
  H23      1.0000 0.56800  0.95530  0.61790  Biso   1.000  H
  C36      1.0000 0.52830  0.04920  0.59460  Biso   1.000  C
  H24      1.0000 0.51800  0.05220  0.62020  Biso   1.000  H
  N1       1.0000 0.16315  0.53890  0.10339  Biso   1.000  N
  N2       1.0000 0.31354  0.99450  0.22087  Biso   1.000  N
  N3       1.0000 0.37749  0.56540  0.35743  Biso   1.000  N
  N4       1.0000 0.26038  0.31590  0.18814  Biso   1.000  N
  N5       1.0000 0.31256  0.32710  0.25111  Biso   1.000  N
  N6       1.0000 0.27463  0.45880  0.22698  Biso   1.000  N
  N7       1.0000 0.43209  0.53150  0.45067  Biso   1.000  N
  N8       1.0000 0.57448  0.98560  0.55767  Biso   1.000  N
  N9       1.0000 0.36000  0.16470  0.68245  Biso   1.000  N
  N10      1.0000 0.42594  0.28760  0.56454  Biso   1.000  N
  N11      1.0000 0.47570  0.23600  0.52913  Biso   1.000  N
  N12      1.0000 0.46108  0.15280  0.59036  Biso   1.000  N
  Zn1      1.0000 0.32728  0.14378  0.72863  Biso   1.000  Zn
  Zn2      1.0000 0.41729  0.63624  0.40476  Biso   1.000  Zn
  Zn3      1.0000 0.11959  0.60315  0.05905  Biso   1.000  Zn
  Br7      1.0000 0.77234  0.73568  0.70941  Biso   1.000  Br
  Br8      1.0000 0.86894  0.65165  0.80065  Biso   1.000  Br
  Br9      1.0000 0.88231  0.24434  0.43678  Biso   1.000  Br
  Br10     1.0000 0.96949  0.16778  0.37220  Biso   1.000  Br
  Br11     1.0000 0.60445  0.23824  0.09392  Biso   1.000  Br
  Br12     1.0000 0.63455  0.09958  0.98817  Biso   1.000  Br
  C37      1.0000 0.67230  0.95300  0.09730  Biso   1.000  C
  H25      1.0000 0.65830  0.92220  0.07250  Biso   1.000  H
  C38      1.0000 0.70170  0.90610  0.12600  Biso   1.000  C
  H26      1.0000 0.70700  0.84540  0.12060  Biso   1.000  H
  C39      1.0000 0.72265  0.95160  0.16254  Biso   1.000  C
  C40      1.0000 0.71363  0.04280  0.16900  Biso   1.000  C
  H27      1.0000 0.72770  0.07560  0.19310  Biso   1.000  H
  C41      1.0000 0.68412  0.08310  0.13960  Biso   1.000  C
  H28      1.0000 0.67800  0.14350  0.14460  Biso   1.000  H
  C42      1.0000 0.75424  0.90690  0.19412  Biso   1.000  C
  C43      1.0000 0.78923  0.78180  0.21800  Biso   1.000  C
  C44      1.0000 0.80400  0.91520  0.25394  Biso   1.000  C
  C45      1.0000 0.79796  0.68080  0.21650  Biso   1.000  C
  C46      1.0000 0.77279  0.62020  0.19120  Biso   1.000  C
  H29      1.0000 0.75020  0.64090  0.17250  Biso   1.000  H
  C47      1.0000 0.78163  0.52650  0.19390  Biso   1.000  C
  H30      1.0000 0.76480  0.48550  0.17650  Biso   1.000  H
  C48      1.0000 0.83820  0.55400  0.24330  Biso   1.000  C
  H31      1.0000 0.86120  0.53190  0.26020  Biso   1.000  H
  C49      1.0000 0.83190  0.64530  0.24320  Biso   1.000  C
  H32      1.0000 0.84990  0.68400  0.26050  Biso   1.000  H
  C50      1.0000 0.88050  0.97390  0.35390  Biso   1.000  C
  H33      1.0000 0.89930  0.94350  0.37470  Biso   1.000  H
  C51      1.0000 0.85720  0.92420  0.32130  Biso   1.000  C
  H34      1.0000 0.86020  0.86130  0.31960  Biso   1.000  H
  C52      1.0000 0.82889  0.96880  0.29058  Biso   1.000  C
  C53      1.0000 0.82502  0.06360  0.29480  Biso   1.000  C
  H35      1.0000 0.80610  0.09540  0.27490  Biso   1.000  H
  C54      1.0000 0.84951  0.10880  0.32860  Biso   1.000  C
  H36      1.0000 0.84660  0.17150  0.33160  Biso   1.000  H
  C55      1.0000 0.96114  0.97490  0.45071  Biso   1.000  C
  H37      1.0000 0.97820  0.98840  0.43240  Biso   1.000  H
  C56      1.0000 0.96737  0.89700  0.47660  Biso   1.000  C
  H38      1.0000 0.98740  0.85760  0.47450  Biso   1.000  H
  C57      1.0000 0.94315  0.87830  0.50582  Biso   1.000  C
  C58      1.0000 0.91340  0.93970  0.50670  Biso   1.000  C
  H39      1.0000 0.89670  0.92990  0.52580  Biso   1.000  H
  C59      1.0000 0.90910  0.01380  0.47950  Biso   1.000  C
  H40      1.0000 0.88920  0.05440  0.48070  Biso   1.000  H
  C60      1.0000 0.94860  0.79450  0.53482  Biso   1.000  C
  C61      1.0000 0.98125  0.66700  0.55879  Biso   1.000  C
  C62      1.0000 0.93335  0.71360  0.59074  Biso   1.000  C
  C63      1.0000 0.90848  0.69780  0.62310  Biso   1.000  C
  C64      1.0000 0.91920  0.64400  0.65990  Biso   1.000  C
  H41      1.0000 0.94340  0.61680  0.66580  Biso   1.000  H
  C65      1.0000 0.89520  0.62920  0.68820  Biso   1.000  C
  H42      1.0000 0.90380  0.59210  0.71300  Biso   1.000  H
  C66      1.0000 0.84900  0.71640  0.64590  Biso   1.000  C
  H43      1.0000 0.82450  0.74180  0.64040  Biso   1.000  H
  C67      1.0000 0.87210  0.73410  0.61590  Biso   1.000  C
  H44      1.0000 0.86310  0.77060  0.59090  Biso   1.000  H
  C68      1.0000 0.01339  0.60270  0.55758  Biso   1.000  C
  C69      1.0000 0.03000  0.59770  0.52080  Biso   1.000  C
  H45      1.0000 0.02110  0.63410  0.49580  Biso   1.000  H
  C70      1.0000 0.06021  0.53760  0.52180  Biso   1.000  C
  H46      1.0000 0.07100  0.53310  0.49660  Biso   1.000  H
  C71      1.0000 0.05840  0.49170  0.59310  Biso   1.000  C
  H47      1.0000 0.06800  0.45530  0.61790  Biso   1.000  H
  C72      1.0000 0.02830  0.54920  0.59460  Biso   1.000  C
  H48      1.0000 0.01800  0.55220  0.62020  Biso   1.000  H
  N13      1.0000 0.66315  0.03890  0.10339  Biso   1.000  N
  N14      1.0000 0.81354  0.49450  0.22087  Biso   1.000  N
  N15      1.0000 0.87749  0.06540  0.35743  Biso   1.000  N
  N16      1.0000 0.76038  0.81590  0.18814  Biso   1.000  N
  N17      1.0000 0.81256  0.82710  0.25111  Biso   1.000  N
  N18      1.0000 0.77463  0.95880  0.22698  Biso   1.000  N
  N19      1.0000 0.93209  0.03150  0.45067  Biso   1.000  N
  N20      1.0000 0.07448  0.48560  0.55767  Biso   1.000  N
  N21      1.0000 0.86000  0.66470  0.68245  Biso   1.000  N
  N22      1.0000 0.92594  0.78760  0.56454  Biso   1.000  N
  N23      1.0000 0.97570  0.73600  0.52913  Biso   1.000  N
  N24      1.0000 0.96108  0.65280  0.59036  Biso   1.000  N
  Zn4      1.0000 0.82728  0.64378  0.72863  Biso   1.000  Zn
  Zn5      1.0000 0.91729  0.13624  0.40476  Biso   1.000  Zn
  Zn6      1.0000 0.61959  0.10315  0.05905  Biso   1.000  Zn
  Br13     1.0000 0.27234  0.76432  0.20941  Biso   1.000  Br
  Br14     1.0000 0.36894  0.84835  0.30065  Biso   1.000  Br
  Br15     1.0000 0.38231  0.25566  0.93678  Biso   1.000  Br
  Br16     1.0000 0.46949  0.33222  0.87220  Biso   1.000  Br
  Br17     1.0000 0.10445  0.26176  0.59392  Biso   1.000  Br
  Br18     1.0000 0.13455  0.40042  0.48817  Biso   1.000  Br
  C73      1.0000 0.17230  0.54700  0.59730  Biso   1.000  C
  H49      1.0000 0.15830  0.57780  0.57250  Biso   1.000  H
  C74      1.0000 0.20170  0.59390  0.62600  Biso   1.000  C
  H50      1.0000 0.20700  0.65460  0.62060  Biso   1.000  H
  C75      1.0000 0.22265  0.54840  0.66254  Biso   1.000  C
  C76      1.0000 0.21363  0.45720  0.66900  Biso   1.000  C
  H51      1.0000 0.22770  0.42440  0.69310  Biso   1.000  H
  C77      1.0000 0.18412  0.41690  0.63960  Biso   1.000  C
  H52      1.0000 0.17800  0.35650  0.64460  Biso   1.000  H
  C78      1.0000 0.25424  0.59310  0.69412  Biso   1.000  C
  C79      1.0000 0.28923  0.71820  0.71800  Biso   1.000  C
  C80      1.0000 0.30400  0.58480  0.75394  Biso   1.000  C
  C81      1.0000 0.29796  0.81920  0.71650  Biso   1.000  C
  C82      1.0000 0.27279  0.87980  0.69120  Biso   1.000  C
  H53      1.0000 0.25020  0.85910  0.67250  Biso   1.000  H
  C83      1.0000 0.28163  0.97350  0.69390  Biso   1.000  C
  H54      1.0000 0.26480  0.01450  0.67650  Biso   1.000  H
  C84      1.0000 0.33820  0.94600  0.74330  Biso   1.000  C
  H55      1.0000 0.36120  0.96810  0.76020  Biso   1.000  H
  C85      1.0000 0.33190  0.85470  0.74320  Biso   1.000  C
  H56      1.0000 0.34990  0.81600  0.76050  Biso   1.000  H
  C86      1.0000 0.38050  0.52610  0.85390  Biso   1.000  C
  H57      1.0000 0.39930  0.55650  0.87470  Biso   1.000  H
  C87      1.0000 0.35720  0.57580  0.82130  Biso   1.000  C
  H58      1.0000 0.36020  0.63870  0.81960  Biso   1.000  H
  C88      1.0000 0.32889  0.53120  0.79058  Biso   1.000  C
  C89      1.0000 0.32502  0.43640  0.79480  Biso   1.000  C
  H59      1.0000 0.30610  0.40460  0.77490  Biso   1.000  H
  C90      1.0000 0.34951  0.39120  0.82860  Biso   1.000  C
  H60      1.0000 0.34660  0.32850  0.83160  Biso   1.000  H
  C91      1.0000 0.46114  0.52510  0.95071  Biso   1.000  C
  H61      1.0000 0.47820  0.51160  0.93240  Biso   1.000  H
  C92      1.0000 0.46737  0.60300  0.97660  Biso   1.000  C
  H62      1.0000 0.48740  0.64240  0.97450  Biso   1.000  H
  C93      1.0000 0.44315  0.62170  0.00582  Biso   1.000  C
  C94      1.0000 0.41340  0.56030  0.00670  Biso   1.000  C
  H63      1.0000 0.39670  0.57010  0.02580  Biso   1.000  H
  C95      1.0000 0.40910  0.48620  0.97950  Biso   1.000  C
  H64      1.0000 0.38920  0.44560  0.98070  Biso   1.000  H
  C96      1.0000 0.44860  0.70550  0.03482  Biso   1.000  C
  C97      1.0000 0.48125  0.83300  0.05879  Biso   1.000  C
  C98      1.0000 0.43335  0.78640  0.09074  Biso   1.000  C
  C99      1.0000 0.40848  0.80220  0.12310  Biso   1.000  C
  C100     1.0000 0.41920  0.85600  0.15990  Biso   1.000  C
  H65      1.0000 0.44340  0.88320  0.16580  Biso   1.000  H
  C101     1.0000 0.39520  0.87080  0.18820  Biso   1.000  C
  H66      1.0000 0.40380  0.90790  0.21300  Biso   1.000  H
  C102     1.0000 0.34900  0.78360  0.14590  Biso   1.000  C
  H67      1.0000 0.32450  0.75820  0.14040  Biso   1.000  H
  C103     1.0000 0.37210  0.76590  0.11590  Biso   1.000  C
  H68      1.0000 0.36310  0.72940  0.09090  Biso   1.000  H
  C104     1.0000 0.51339  0.89730  0.05758  Biso   1.000  C
  C105     1.0000 0.53000  0.90230  0.02080  Biso   1.000  C
  H69      1.0000 0.52110  0.86590  0.99580  Biso   1.000  H
  C106     1.0000 0.56021  0.96240  0.02180  Biso   1.000  C
  H70      1.0000 0.57100  0.96690  0.99660  Biso   1.000  H
  C107     1.0000 0.55840  0.00830  0.09310  Biso   1.000  C
  H71      1.0000 0.56800  0.04470  0.11790  Biso   1.000  H
  C108     1.0000 0.52830  0.95080  0.09460  Biso   1.000  C
  H72      1.0000 0.51800  0.94780  0.12020  Biso   1.000  H
  N25      1.0000 0.16315  0.46110  0.60339  Biso   1.000  N
  N26      1.0000 0.31354  0.00550  0.72087  Biso   1.000  N
  N27      1.0000 0.37749  0.43460  0.85743  Biso   1.000  N
  N28      1.0000 0.26038  0.68410  0.68814  Biso   1.000  N
  N29      1.0000 0.31256  0.67290  0.75111  Biso   1.000  N
  N30      1.0000 0.27463  0.54120  0.72698  Biso   1.000  N
  N31      1.0000 0.43209  0.46850  0.95067  Biso   1.000  N
  N32      1.0000 0.57448  0.01440  0.05767  Biso   1.000  N
  N33      1.0000 0.36000  0.83530  0.18245  Biso   1.000  N
  N34      1.0000 0.42594  0.71240  0.06454  Biso   1.000  N
  N35      1.0000 0.47570  0.76400  0.02913  Biso   1.000  N
  N36      1.0000 0.46108  0.84720  0.09036  Biso   1.000  N
  Zn7      1.0000 0.32728  0.85622  0.22863  Biso   1.000  Zn
  Zn8      1.0000 0.41729  0.36376  0.90476  Biso   1.000  Zn
  Zn9      1.0000 0.11959  0.39685  0.55905  Biso   1.000  Zn
  Br19     1.0000 0.77234  0.26432  0.20941  Biso   1.000  Br
  Br20     1.0000 0.86894  0.34835  0.30065  Biso   1.000  Br
  Br21     1.0000 0.88231  0.75566  0.93678  Biso   1.000  Br
  Br22     1.0000 0.96949  0.83222  0.87220  Biso   1.000  Br
  Br23     1.0000 0.60445  0.76176  0.59392  Biso   1.000  Br
  Br24     1.0000 0.63455  0.90042  0.48817  Biso   1.000  Br
  C109     1.0000 0.67230  0.04700  0.59730  Biso   1.000  C
  H73      1.0000 0.65830  0.07780  0.57250  Biso   1.000  H
  C110     1.0000 0.70170  0.09390  0.62600  Biso   1.000  C
  H74      1.0000 0.70700  0.15460  0.62060  Biso   1.000  H
  C111     1.0000 0.72265  0.04840  0.66254  Biso   1.000  C
  C112     1.0000 0.71363  0.95720  0.66900  Biso   1.000  C
  H75      1.0000 0.72770  0.92440  0.69310  Biso   1.000  H
  C113     1.0000 0.68412  0.91690  0.63960  Biso   1.000  C
  H76      1.0000 0.67800  0.85650  0.64460  Biso   1.000  H
  C114     1.0000 0.75424  0.09310  0.69412  Biso   1.000  C
  C115     1.0000 0.78923  0.21820  0.71800  Biso   1.000  C
  C116     1.0000 0.80400  0.08480  0.75394  Biso   1.000  C
  C117     1.0000 0.79796  0.31920  0.71650  Biso   1.000  C
  C118     1.0000 0.77279  0.37980  0.69120  Biso   1.000  C
  H77      1.0000 0.75020  0.35910  0.67250  Biso   1.000  H
  C119     1.0000 0.78163  0.47350  0.69390  Biso   1.000  C
  H78      1.0000 0.76480  0.51450  0.67650  Biso   1.000  H
  C120     1.0000 0.83820  0.44600  0.74330  Biso   1.000  C
  H79      1.0000 0.86120  0.46810  0.76020  Biso   1.000  H
  C121     1.0000 0.83190  0.35470  0.74320  Biso   1.000  C
  H80      1.0000 0.84990  0.31600  0.76050  Biso   1.000  H
  C122     1.0000 0.88050  0.02610  0.85390  Biso   1.000  C
  H81      1.0000 0.89930  0.05650  0.87470  Biso   1.000  H
  C123     1.0000 0.85720  0.07580  0.82130  Biso   1.000  C
  H82      1.0000 0.86020  0.13870  0.81960  Biso   1.000  H
  C124     1.0000 0.82889  0.03120  0.79058  Biso   1.000  C
  C125     1.0000 0.82502  0.93640  0.79480  Biso   1.000  C
  H83      1.0000 0.80610  0.90460  0.77490  Biso   1.000  H
  C126     1.0000 0.84951  0.89120  0.82860  Biso   1.000  C
  H84      1.0000 0.84660  0.82850  0.83160  Biso   1.000  H
  C127     1.0000 0.96114  0.02510  0.95071  Biso   1.000  C
  H85      1.0000 0.97820  0.01160  0.93240  Biso   1.000  H
  C128     1.0000 0.96737  0.10300  0.97660  Biso   1.000  C
  H86      1.0000 0.98740  0.14240  0.97450  Biso   1.000  H
  C129     1.0000 0.94315  0.12170  0.00582  Biso   1.000  C
  C130     1.0000 0.91340  0.06030  0.00670  Biso   1.000  C
  H87      1.0000 0.89670  0.07010  0.02580  Biso   1.000  H
  C131     1.0000 0.90910  0.98620  0.97950  Biso   1.000  C
  H88      1.0000 0.88920  0.94560  0.98070  Biso   1.000  H
  C132     1.0000 0.94860  0.20550  0.03482  Biso   1.000  C
  C133     1.0000 0.98125  0.33300  0.05879  Biso   1.000  C
  C134     1.0000 0.93335  0.28640  0.09074  Biso   1.000  C
  C135     1.0000 0.90848  0.30220  0.12310  Biso   1.000  C
  C136     1.0000 0.91920  0.35600  0.15990  Biso   1.000  C
  H89      1.0000 0.94340  0.38320  0.16580  Biso   1.000  H
  C137     1.0000 0.89520  0.37080  0.18820  Biso   1.000  C
  H90      1.0000 0.90380  0.40790  0.21300  Biso   1.000  H
  C138     1.0000 0.84900  0.28360  0.14590  Biso   1.000  C
  H91      1.0000 0.82450  0.25820  0.14040  Biso   1.000  H
  C139     1.0000 0.87210  0.26590  0.11590  Biso   1.000  C
  H92      1.0000 0.86310  0.22940  0.09090  Biso   1.000  H
  C140     1.0000 0.01339  0.39730  0.05758  Biso   1.000  C
  C141     1.0000 0.03000  0.40230  0.02080  Biso   1.000  C
  H93      1.0000 0.02110  0.36590  0.99580  Biso   1.000  H
  C142     1.0000 0.06021  0.46240  0.02180  Biso   1.000  C
  H94      1.0000 0.07100  0.46690  0.99660  Biso   1.000  H
  C143     1.0000 0.05840  0.50830  0.09310  Biso   1.000  C
  H95      1.0000 0.06800  0.54470  0.11790  Biso   1.000  H
  C144     1.0000 0.02830  0.45080  0.09460  Biso   1.000  C
  H96      1.0000 0.01800  0.44780  0.12020  Biso   1.000  H
  N37      1.0000 0.66315  0.96110  0.60339  Biso   1.000  N
  N38      1.0000 0.81354  0.50550  0.72087  Biso   1.000  N
  N39      1.0000 0.87749  0.93460  0.85743  Biso   1.000  N
  N40      1.0000 0.76038  0.18410  0.68814  Biso   1.000  N
  N41      1.0000 0.81256  0.17290  0.75111  Biso   1.000  N
  N42      1.0000 0.77463  0.04120  0.72698  Biso   1.000  N
  N43      1.0000 0.93209  0.96850  0.95067  Biso   1.000  N
  N44      1.0000 0.07448  0.51440  0.05767  Biso   1.000  N
  N45      1.0000 0.86000  0.33530  0.18245  Biso   1.000  N
  N46      1.0000 0.92594  0.21240  0.06454  Biso   1.000  N
  N47      1.0000 0.97570  0.26400  0.02913  Biso   1.000  N
  N48      1.0000 0.96108  0.34720  0.09036  Biso   1.000  N
  Zn10     1.0000 0.82728  0.35622  0.22863  Biso   1.000  Zn
  Zn11     1.0000 0.91729  0.86376  0.90476  Biso   1.000  Zn
  Zn12     1.0000 0.61959  0.89685  0.55905  Biso   1.000  Zn
  Br25     1.0000 0.72766  0.23568  0.79059  Biso   1.000  Br
  Br26     1.0000 0.63106  0.15165  0.69935  Biso   1.000  Br
  Br27     1.0000 0.61769  0.74434  0.06322  Biso   1.000  Br
  Br28     1.0000 0.53051  0.66778  0.12780  Biso   1.000  Br
  Br29     1.0000 0.89555  0.73824  0.40608  Biso   1.000  Br
  Br30     1.0000 0.86545  0.59958  0.51183  Biso   1.000  Br
  C145     1.0000 0.82770  0.45300  0.40270  Biso   1.000  C
  H97      1.0000 0.84170  0.42220  0.42750  Biso   1.000  H
  C146     1.0000 0.79830  0.40610  0.37400  Biso   1.000  C
  H98      1.0000 0.79300  0.34540  0.37940  Biso   1.000  H
  C147     1.0000 0.77735  0.45160  0.33746  Biso   1.000  C
  C148     1.0000 0.78637  0.54280  0.33100  Biso   1.000  C
  H99      1.0000 0.77230  0.57560  0.30690  Biso   1.000  H
  C149     1.0000 0.81588  0.58310  0.36040  Biso   1.000  C
  H100     1.0000 0.82200  0.64350  0.35540  Biso   1.000  H
  C150     1.0000 0.74576  0.40690  0.30588  Biso   1.000  C
  C151     1.0000 0.71077  0.28180  0.28200  Biso   1.000  C
  C152     1.0000 0.69600  0.41520  0.24606  Biso   1.000  C
  C153     1.0000 0.70204  0.18080  0.28350  Biso   1.000  C
  C154     1.0000 0.72721  0.12020  0.30880  Biso   1.000  C
  H101     1.0000 0.74980  0.14090  0.32750  Biso   1.000  H
  C155     1.0000 0.71837  0.02650  0.30610  Biso   1.000  C
  H102     1.0000 0.73520  0.98550  0.32350  Biso   1.000  H
  C156     1.0000 0.66180  0.05400  0.25670  Biso   1.000  C
  H103     1.0000 0.63880  0.03190  0.23980  Biso   1.000  H
  C157     1.0000 0.66810  0.14530  0.25680  Biso   1.000  C
  H104     1.0000 0.65010  0.18400  0.23950  Biso   1.000  H
  C158     1.0000 0.61950  0.47390  0.14610  Biso   1.000  C
  H105     1.0000 0.60070  0.44350  0.12530  Biso   1.000  H
  C159     1.0000 0.64280  0.42420  0.17870  Biso   1.000  C
  H106     1.0000 0.63980  0.36130  0.18040  Biso   1.000  H
  C160     1.0000 0.67111  0.46880  0.20942  Biso   1.000  C
  C161     1.0000 0.67498  0.56360  0.20520  Biso   1.000  C
  H107     1.0000 0.69390  0.59540  0.22510  Biso   1.000  H
  C162     1.0000 0.65049  0.60880  0.17140  Biso   1.000  C
  H108     1.0000 0.65340  0.67150  0.16840  Biso   1.000  H
  C163     1.0000 0.53886  0.47490  0.04929  Biso   1.000  C
  H109     1.0000 0.52180  0.48840  0.06760  Biso   1.000  H
  C164     1.0000 0.53263  0.39700  0.02340  Biso   1.000  C
  H110     1.0000 0.51260  0.35760  0.02550  Biso   1.000  H
  C165     1.0000 0.55685  0.37830  0.99418  Biso   1.000  C
  C166     1.0000 0.58660  0.43970  0.99330  Biso   1.000  C
  H111     1.0000 0.60330  0.42990  0.97420  Biso   1.000  H
  C167     1.0000 0.59090  0.51380  0.02050  Biso   1.000  C
  H112     1.0000 0.61080  0.55440  0.01930  Biso   1.000  H
  C168     1.0000 0.55140  0.29450  0.96518  Biso   1.000  C
  C169     1.0000 0.51875  0.16700  0.94121  Biso   1.000  C
  C170     1.0000 0.56665  0.21360  0.90926  Biso   1.000  C
  C171     1.0000 0.59152  0.19780  0.87690  Biso   1.000  C
  C172     1.0000 0.58080  0.14400  0.84010  Biso   1.000  C
  H113     1.0000 0.55660  0.11680  0.83420  Biso   1.000  H
  C173     1.0000 0.60480  0.12920  0.81180  Biso   1.000  C
  H114     1.0000 0.59620  0.09210  0.78700  Biso   1.000  H
  C174     1.0000 0.65100  0.21640  0.85410  Biso   1.000  C
  H115     1.0000 0.67550  0.24180  0.85960  Biso   1.000  H
  C175     1.0000 0.62790  0.23410  0.88410  Biso   1.000  C
  H116     1.0000 0.63690  0.27060  0.90910  Biso   1.000  H
  C176     1.0000 0.48661  0.10270  0.94242  Biso   1.000  C
  C177     1.0000 0.47000  0.09770  0.97920  Biso   1.000  C
  H117     1.0000 0.47890  0.13410  0.00420  Biso   1.000  H
  C178     1.0000 0.43979  0.03760  0.97820  Biso   1.000  C
  H118     1.0000 0.42900  0.03310  0.00340  Biso   1.000  H
  C179     1.0000 0.44160  0.99170  0.90690  Biso   1.000  C
  H119     1.0000 0.43200  0.95530  0.88210  Biso   1.000  H
  C180     1.0000 0.47170  0.04920  0.90540  Biso   1.000  C
  H120     1.0000 0.48200  0.05220  0.87980  Biso   1.000  H
  N49      1.0000 0.83685  0.53890  0.39661  Biso   1.000  N
  N50      1.0000 0.68646  0.99450  0.27913  Biso   1.000  N
  N51      1.0000 0.62251  0.56540  0.14257  Biso   1.000  N
  N52      1.0000 0.73962  0.31590  0.31186  Biso   1.000  N
  N53      1.0000 0.68744  0.32710  0.24889  Biso   1.000  N
  N54      1.0000 0.72537  0.45880  0.27302  Biso   1.000  N
  N55      1.0000 0.56791  0.53150  0.04933  Biso   1.000  N
  N56      1.0000 0.42552  0.98560  0.94233  Biso   1.000  N
  N57      1.0000 0.64000  0.16470  0.81755  Biso   1.000  N
  N58      1.0000 0.57406  0.28760  0.93546  Biso   1.000  N
  N59      1.0000 0.52430  0.23600  0.97087  Biso   1.000  N
  N60      1.0000 0.53892  0.15280  0.90964  Biso   1.000  N
  Zn13     1.0000 0.67272  0.14378  0.77137  Biso   1.000  Zn
  Zn14     1.0000 0.58271  0.63624  0.09524  Biso   1.000  Zn
  Zn15     1.0000 0.88041  0.60315  0.44095  Biso   1.000  Zn
  Br31     1.0000 0.22766  0.73568  0.79059  Biso   1.000  Br
  Br32     1.0000 0.13106  0.65165  0.69935  Biso   1.000  Br
  Br33     1.0000 0.11769  0.24434  0.06322  Biso   1.000  Br
  Br34     1.0000 0.03051  0.16778  0.12780  Biso   1.000  Br
  Br35     1.0000 0.39555  0.23824  0.40608  Biso   1.000  Br
  Br36     1.0000 0.36545  0.09958  0.51183  Biso   1.000  Br
  C181     1.0000 0.32770  0.95300  0.40270  Biso   1.000  C
  H121     1.0000 0.34170  0.92220  0.42750  Biso   1.000  H
  C182     1.0000 0.29830  0.90610  0.37400  Biso   1.000  C
  H122     1.0000 0.29300  0.84540  0.37940  Biso   1.000  H
  C183     1.0000 0.27735  0.95160  0.33746  Biso   1.000  C
  C184     1.0000 0.28637  0.04280  0.33100  Biso   1.000  C
  H123     1.0000 0.27230  0.07560  0.30690  Biso   1.000  H
  C185     1.0000 0.31588  0.08310  0.36040  Biso   1.000  C
  H124     1.0000 0.32200  0.14350  0.35540  Biso   1.000  H
  C186     1.0000 0.24576  0.90690  0.30588  Biso   1.000  C
  C187     1.0000 0.21077  0.78180  0.28200  Biso   1.000  C
  C188     1.0000 0.19600  0.91520  0.24606  Biso   1.000  C
  C189     1.0000 0.20204  0.68080  0.28350  Biso   1.000  C
  C190     1.0000 0.22721  0.62020  0.30880  Biso   1.000  C
  H125     1.0000 0.24980  0.64090  0.32750  Biso   1.000  H
  C191     1.0000 0.21837  0.52650  0.30610  Biso   1.000  C
  H126     1.0000 0.23520  0.48550  0.32350  Biso   1.000  H
  C192     1.0000 0.16180  0.55400  0.25670  Biso   1.000  C
  H127     1.0000 0.13880  0.53190  0.23980  Biso   1.000  H
  C193     1.0000 0.16810  0.64530  0.25680  Biso   1.000  C
  H128     1.0000 0.15010  0.68400  0.23950  Biso   1.000  H
  C194     1.0000 0.11950  0.97390  0.14610  Biso   1.000  C
  H129     1.0000 0.10070  0.94350  0.12530  Biso   1.000  H
  C195     1.0000 0.14280  0.92420  0.17870  Biso   1.000  C
  H130     1.0000 0.13980  0.86130  0.18040  Biso   1.000  H
  C196     1.0000 0.17111  0.96880  0.20942  Biso   1.000  C
  C197     1.0000 0.17498  0.06360  0.20520  Biso   1.000  C
  H131     1.0000 0.19390  0.09540  0.22510  Biso   1.000  H
  C198     1.0000 0.15049  0.10880  0.17140  Biso   1.000  C
  H132     1.0000 0.15340  0.17150  0.16840  Biso   1.000  H
  C199     1.0000 0.03886  0.97490  0.04929  Biso   1.000  C
  H133     1.0000 0.02180  0.98840  0.06760  Biso   1.000  H
  C200     1.0000 0.03263  0.89700  0.02340  Biso   1.000  C
  H134     1.0000 0.01260  0.85760  0.02550  Biso   1.000  H
  C201     1.0000 0.05685  0.87830  0.99418  Biso   1.000  C
  C202     1.0000 0.08660  0.93970  0.99330  Biso   1.000  C
  H135     1.0000 0.10330  0.92990  0.97420  Biso   1.000  H
  C203     1.0000 0.09090  0.01380  0.02050  Biso   1.000  C
  H136     1.0000 0.11080  0.05440  0.01930  Biso   1.000  H
  C204     1.0000 0.05140  0.79450  0.96518  Biso   1.000  C
  C205     1.0000 0.01875  0.66700  0.94121  Biso   1.000  C
  C206     1.0000 0.06665  0.71360  0.90926  Biso   1.000  C
  C207     1.0000 0.09152  0.69780  0.87690  Biso   1.000  C
  C208     1.0000 0.08080  0.64400  0.84010  Biso   1.000  C
  H137     1.0000 0.05660  0.61680  0.83420  Biso   1.000  H
  C209     1.0000 0.10480  0.62920  0.81180  Biso   1.000  C
  H138     1.0000 0.09620  0.59210  0.78700  Biso   1.000  H
  C210     1.0000 0.15100  0.71640  0.85410  Biso   1.000  C
  H139     1.0000 0.17550  0.74180  0.85960  Biso   1.000  H
  C211     1.0000 0.12790  0.73410  0.88410  Biso   1.000  C
  H140     1.0000 0.13690  0.77060  0.90910  Biso   1.000  H
  C212     1.0000 0.98661  0.60270  0.94242  Biso   1.000  C
  C213     1.0000 0.97000  0.59770  0.97920  Biso   1.000  C
  H141     1.0000 0.97890  0.63410  0.00420  Biso   1.000  H
  C214     1.0000 0.93979  0.53760  0.97820  Biso   1.000  C
  H142     1.0000 0.92900  0.53310  0.00340  Biso   1.000  H
  C215     1.0000 0.94160  0.49170  0.90690  Biso   1.000  C
  H143     1.0000 0.93200  0.45530  0.88210  Biso   1.000  H
  C216     1.0000 0.97170  0.54920  0.90540  Biso   1.000  C
  H144     1.0000 0.98200  0.55220  0.87980  Biso   1.000  H
  N61      1.0000 0.33685  0.03890  0.39661  Biso   1.000  N
  N62      1.0000 0.18646  0.49450  0.27913  Biso   1.000  N
  N63      1.0000 0.12251  0.06540  0.14257  Biso   1.000  N
  N64      1.0000 0.23962  0.81590  0.31186  Biso   1.000  N
  N65      1.0000 0.18744  0.82710  0.24889  Biso   1.000  N
  N66      1.0000 0.22537  0.95880  0.27302  Biso   1.000  N
  N67      1.0000 0.06791  0.03150  0.04933  Biso   1.000  N
  N68      1.0000 0.92552  0.48560  0.94233  Biso   1.000  N
  N69      1.0000 0.14000  0.66470  0.81755  Biso   1.000  N
  N70      1.0000 0.07406  0.78760  0.93546  Biso   1.000  N
  N71      1.0000 0.02430  0.73600  0.97087  Biso   1.000  N
  N72      1.0000 0.03892  0.65280  0.90964  Biso   1.000  N
  Zn16     1.0000 0.17272  0.64378  0.77137  Biso   1.000  Zn
  Zn17     1.0000 0.08271  0.13624  0.09524  Biso   1.000  Zn
  Zn18     1.0000 0.38041  0.10315  0.44095  Biso   1.000  Zn
  Br37     1.0000 0.72766  0.76432  0.29059  Biso   1.000  Br
  Br38     1.0000 0.63106  0.84835  0.19935  Biso   1.000  Br
  Br39     1.0000 0.61769  0.25566  0.56322  Biso   1.000  Br
  Br40     1.0000 0.53051  0.33222  0.62780  Biso   1.000  Br
  Br41     1.0000 0.89555  0.26176  0.90608  Biso   1.000  Br
  Br42     1.0000 0.86545  0.40042  0.01183  Biso   1.000  Br
  C217     1.0000 0.82770  0.54700  0.90270  Biso   1.000  C
  H145     1.0000 0.84170  0.57780  0.92750  Biso   1.000  H
  C218     1.0000 0.79830  0.59390  0.87400  Biso   1.000  C
  H146     1.0000 0.79300  0.65460  0.87940  Biso   1.000  H
  C219     1.0000 0.77735  0.54840  0.83746  Biso   1.000  C
  C220     1.0000 0.78637  0.45720  0.83100  Biso   1.000  C
  H147     1.0000 0.77230  0.42440  0.80690  Biso   1.000  H
  C221     1.0000 0.81588  0.41690  0.86040  Biso   1.000  C
  H148     1.0000 0.82200  0.35650  0.85540  Biso   1.000  H
  C222     1.0000 0.74576  0.59310  0.80588  Biso   1.000  C
  C223     1.0000 0.71077  0.71820  0.78200  Biso   1.000  C
  C224     1.0000 0.69600  0.58480  0.74606  Biso   1.000  C
  C225     1.0000 0.70204  0.81920  0.78350  Biso   1.000  C
  C226     1.0000 0.72721  0.87980  0.80880  Biso   1.000  C
  H149     1.0000 0.74980  0.85910  0.82750  Biso   1.000  H
  C227     1.0000 0.71837  0.97350  0.80610  Biso   1.000  C
  H150     1.0000 0.73520  0.01450  0.82350  Biso   1.000  H
  C228     1.0000 0.66180  0.94600  0.75670  Biso   1.000  C
  H151     1.0000 0.63880  0.96810  0.73980  Biso   1.000  H
  C229     1.0000 0.66810  0.85470  0.75680  Biso   1.000  C
  H152     1.0000 0.65010  0.81600  0.73950  Biso   1.000  H
  C230     1.0000 0.61950  0.52610  0.64610  Biso   1.000  C
  H153     1.0000 0.60070  0.55650  0.62530  Biso   1.000  H
  C231     1.0000 0.64280  0.57580  0.67870  Biso   1.000  C
  H154     1.0000 0.63980  0.63870  0.68040  Biso   1.000  H
  C232     1.0000 0.67111  0.53120  0.70942  Biso   1.000  C
  C233     1.0000 0.67498  0.43640  0.70520  Biso   1.000  C
  H155     1.0000 0.69390  0.40460  0.72510  Biso   1.000  H
  C234     1.0000 0.65049  0.39120  0.67140  Biso   1.000  C
  H156     1.0000 0.65340  0.32850  0.66840  Biso   1.000  H
  C235     1.0000 0.53886  0.52510  0.54929  Biso   1.000  C
  H157     1.0000 0.52180  0.51160  0.56760  Biso   1.000  H
  C236     1.0000 0.53263  0.60300  0.52340  Biso   1.000  C
  H158     1.0000 0.51260  0.64240  0.52550  Biso   1.000  H
  C237     1.0000 0.55685  0.62170  0.49418  Biso   1.000  C
  C238     1.0000 0.58660  0.56030  0.49330  Biso   1.000  C
  H159     1.0000 0.60330  0.57010  0.47420  Biso   1.000  H
  C239     1.0000 0.59090  0.48620  0.52050  Biso   1.000  C
  H160     1.0000 0.61080  0.44560  0.51930  Biso   1.000  H
  C240     1.0000 0.55140  0.70550  0.46518  Biso   1.000  C
  C241     1.0000 0.51875  0.83300  0.44121  Biso   1.000  C
  C242     1.0000 0.56665  0.78640  0.40926  Biso   1.000  C
  C243     1.0000 0.59152  0.80220  0.37690  Biso   1.000  C
  C244     1.0000 0.58080  0.85600  0.34010  Biso   1.000  C
  H161     1.0000 0.55660  0.88320  0.33420  Biso   1.000  H
  C245     1.0000 0.60480  0.87080  0.31180  Biso   1.000  C
  H162     1.0000 0.59620  0.90790  0.28700  Biso   1.000  H
  C246     1.0000 0.65100  0.78360  0.35410  Biso   1.000  C
  H163     1.0000 0.67550  0.75820  0.35960  Biso   1.000  H
  C247     1.0000 0.62790  0.76590  0.38410  Biso   1.000  C
  H164     1.0000 0.63690  0.72940  0.40910  Biso   1.000  H
  C248     1.0000 0.48661  0.89730  0.44242  Biso   1.000  C
  C249     1.0000 0.47000  0.90230  0.47920  Biso   1.000  C
  H165     1.0000 0.47890  0.86590  0.50420  Biso   1.000  H
  C250     1.0000 0.43979  0.96240  0.47820  Biso   1.000  C
  H166     1.0000 0.42900  0.96690  0.50340  Biso   1.000  H
  C251     1.0000 0.44160  0.00830  0.40690  Biso   1.000  C
  H167     1.0000 0.43200  0.04470  0.38210  Biso   1.000  H
  C252     1.0000 0.47170  0.95080  0.40540  Biso   1.000  C
  H168     1.0000 0.48200  0.94780  0.37980  Biso   1.000  H
  N73      1.0000 0.83685  0.46110  0.89661  Biso   1.000  N
  N74      1.0000 0.68646  0.00550  0.77913  Biso   1.000  N
  N75      1.0000 0.62251  0.43460  0.64257  Biso   1.000  N
  N76      1.0000 0.73962  0.68410  0.81186  Biso   1.000  N
  N77      1.0000 0.68744  0.67290  0.74889  Biso   1.000  N
  N78      1.0000 0.72537  0.54120  0.77302  Biso   1.000  N
  N79      1.0000 0.56791  0.46850  0.54933  Biso   1.000  N
  N80      1.0000 0.42552  0.01440  0.44233  Biso   1.000  N
  N81      1.0000 0.64000  0.83530  0.31755  Biso   1.000  N
  N82      1.0000 0.57406  0.71240  0.43546  Biso   1.000  N
  N83      1.0000 0.52430  0.76400  0.47087  Biso   1.000  N
  N84      1.0000 0.53892  0.84720  0.40964  Biso   1.000  N
  Zn19     1.0000 0.67272  0.85622  0.27137  Biso   1.000  Zn
  Zn20     1.0000 0.58271  0.36376  0.59524  Biso   1.000  Zn
  Zn21     1.0000 0.88041  0.39685  0.94095  Biso   1.000  Zn
  Br43     1.0000 0.22766  0.26432  0.29059  Biso   1.000  Br
  Br44     1.0000 0.13106  0.34835  0.19935  Biso   1.000  Br
  Br45     1.0000 0.11769  0.75566  0.56322  Biso   1.000  Br
  Br46     1.0000 0.03051  0.83222  0.62780  Biso   1.000  Br
  Br47     1.0000 0.39555  0.76176  0.90608  Biso   1.000  Br
  Br48     1.0000 0.36545  0.90042  0.01183  Biso   1.000  Br
  C253     1.0000 0.32770  0.04700  0.90270  Biso   1.000  C
  H169     1.0000 0.34170  0.07780  0.92750  Biso   1.000  H
  C254     1.0000 0.29830  0.09390  0.87400  Biso   1.000  C
  H170     1.0000 0.29300  0.15460  0.87940  Biso   1.000  H
  C255     1.0000 0.27735  0.04840  0.83746  Biso   1.000  C
  C256     1.0000 0.28637  0.95720  0.83100  Biso   1.000  C
  H171     1.0000 0.27230  0.92440  0.80690  Biso   1.000  H
  C257     1.0000 0.31588  0.91690  0.86040  Biso   1.000  C
  H172     1.0000 0.32200  0.85650  0.85540  Biso   1.000  H
  C258     1.0000 0.24576  0.09310  0.80588  Biso   1.000  C
  C259     1.0000 0.21077  0.21820  0.78200  Biso   1.000  C
  C260     1.0000 0.19600  0.08480  0.74606  Biso   1.000  C
  C261     1.0000 0.20204  0.31920  0.78350  Biso   1.000  C
  C262     1.0000 0.22721  0.37980  0.80880  Biso   1.000  C
  H173     1.0000 0.24980  0.35910  0.82750  Biso   1.000  H
  C263     1.0000 0.21837  0.47350  0.80610  Biso   1.000  C
  H174     1.0000 0.23520  0.51450  0.82350  Biso   1.000  H
  C264     1.0000 0.16180  0.44600  0.75670  Biso   1.000  C
  H175     1.0000 0.13880  0.46810  0.73980  Biso   1.000  H
  C265     1.0000 0.16810  0.35470  0.75680  Biso   1.000  C
  H176     1.0000 0.15010  0.31600  0.73950  Biso   1.000  H
  C266     1.0000 0.11950  0.02610  0.64610  Biso   1.000  C
  H177     1.0000 0.10070  0.05650  0.62530  Biso   1.000  H
  C267     1.0000 0.14280  0.07580  0.67870  Biso   1.000  C
  H178     1.0000 0.13980  0.13870  0.68040  Biso   1.000  H
  C268     1.0000 0.17111  0.03120  0.70942  Biso   1.000  C
  C269     1.0000 0.17498  0.93640  0.70520  Biso   1.000  C
  H179     1.0000 0.19390  0.90460  0.72510  Biso   1.000  H
  C270     1.0000 0.15049  0.89120  0.67140  Biso   1.000  C
  H180     1.0000 0.15340  0.82850  0.66840  Biso   1.000  H
  C271     1.0000 0.03886  0.02510  0.54929  Biso   1.000  C
  H181     1.0000 0.02180  0.01160  0.56760  Biso   1.000  H
  C272     1.0000 0.03263  0.10300  0.52340  Biso   1.000  C
  H182     1.0000 0.01260  0.14240  0.52550  Biso   1.000  H
  C273     1.0000 0.05685  0.12170  0.49418  Biso   1.000  C
  C274     1.0000 0.08660  0.06030  0.49330  Biso   1.000  C
  H183     1.0000 0.10330  0.07010  0.47420  Biso   1.000  H
  C275     1.0000 0.09090  0.98620  0.52050  Biso   1.000  C
  H184     1.0000 0.11080  0.94560  0.51930  Biso   1.000  H
  C276     1.0000 0.05140  0.20550  0.46518  Biso   1.000  C
  C277     1.0000 0.01875  0.33300  0.44121  Biso   1.000  C
  C278     1.0000 0.06665  0.28640  0.40926  Biso   1.000  C
  C279     1.0000 0.09152  0.30220  0.37690  Biso   1.000  C
  C280     1.0000 0.08080  0.35600  0.34010  Biso   1.000  C
  H185     1.0000 0.05660  0.38320  0.33420  Biso   1.000  H
  C281     1.0000 0.10480  0.37080  0.31180  Biso   1.000  C
  H186     1.0000 0.09620  0.40790  0.28700  Biso   1.000  H
  C282     1.0000 0.15100  0.28360  0.35410  Biso   1.000  C
  H187     1.0000 0.17550  0.25820  0.35960  Biso   1.000  H
  C283     1.0000 0.12790  0.26590  0.38410  Biso   1.000  C
  H188     1.0000 0.13690  0.22940  0.40910  Biso   1.000  H
  C284     1.0000 0.98661  0.39730  0.44242  Biso   1.000  C
  C285     1.0000 0.97000  0.40230  0.47920  Biso   1.000  C
  H189     1.0000 0.97890  0.36590  0.50420  Biso   1.000  H
  C286     1.0000 0.93979  0.46240  0.47820  Biso   1.000  C
  H190     1.0000 0.92900  0.46690  0.50340  Biso   1.000  H
  C287     1.0000 0.94160  0.50830  0.40690  Biso   1.000  C
  H191     1.0000 0.93200  0.54470  0.38210  Biso   1.000  H
  C288     1.0000 0.97170  0.45080  0.40540  Biso   1.000  C
  H192     1.0000 0.98200  0.44780  0.37980  Biso   1.000  H
  N85      1.0000 0.33685  0.96110  0.89661  Biso   1.000  N
  N86      1.0000 0.18646  0.50550  0.77913  Biso   1.000  N
  N87      1.0000 0.12251  0.93460  0.64257  Biso   1.000  N
  N88      1.0000 0.23962  0.18410  0.81186  Biso   1.000  N
  N89      1.0000 0.18744  0.17290  0.74889  Biso   1.000  N
  N90      1.0000 0.22537  0.04120  0.77302  Biso   1.000  N
  N91      1.0000 0.06791  0.96850  0.54933  Biso   1.000  N
  N92      1.0000 0.92552  0.51440  0.44233  Biso   1.000  N
  N93      1.0000 0.14000  0.33530  0.31755  Biso   1.000  N
  N94      1.0000 0.07406  0.21240  0.43546  Biso   1.000  N
  N95      1.0000 0.02430  0.26400  0.47087  Biso   1.000  N
  N96      1.0000 0.03892  0.34720  0.40964  Biso   1.000  N
  Zn22     1.0000 0.17272  0.35622  0.27137  Biso   1.000  Zn
  Zn23     1.0000 0.08271  0.86376  0.59524  Biso   1.000  Zn
  Zn24     1.0000 0.38041  0.89685  0.94095  Biso   1.000  Zn
