data_IYUHUG_ion_b
_audit_creation_date              2014-07-02
_audit_creation_method            'Materials Studio'
_symmetry_space_group_name_H-M    'P1'
_symmetry_Int_Tables_number       1
_symmetry_cell_setting            triclinic
loop_
_symmetry_equiv_pos_as_xyz
  x,y,z
_cell_length_a                    22.1386
_cell_length_b                    22.1386
_cell_length_c                    36.2651
_cell_angle_alpha                 90.0000
_cell_angle_beta                  90.0000
_cell_angle_gamma                 90.0000
loop_
_atom_site_label
_atom_site_type_symbol
_atom_site_fract_x
_atom_site_fract_y
_atom_site_fract_z
_atom_site_U_iso_or_equiv
_atom_site_adp_type
_atom_site_occupancy
In1    In    0.21649   0.50344   0.65404   0.00000  Uiso   1.00
In2    In    0.15662   0.50044   0.73829   0.00000  Uiso   1.00
In3    In    0.80831   0.98284   0.52189   0.00000  Uiso   1.00
O4     O     0.30360   0.94336   0.97804   0.00000  Uiso   1.00
O5     O     0.20315   0.95456   0.98217   0.00000  Uiso   1.00
O6     O     0.18053   0.56794   0.77079   0.00000  Uiso   1.00
O7     O     0.27796   0.58559   0.75778   0.00000  Uiso   1.00
O8     O     0.14970   0.56449   0.65465   0.00000  Uiso   1.00
O9     O     0.10846   0.56012   0.71118   0.00000  Uiso   1.00
O10    O     0.77955   0.93489   0.60949   0.00000  Uiso   1.00
O11    O     0.84167   0.93115   0.56070   0.00000  Uiso   1.00
O12    O     0.15605   0.43541   0.65423   0.00000  Uiso   1.00
O13    O     0.11606   0.43313   0.71094   0.00000  Uiso   1.00
O14    O     0.77855   0.06165   0.60132   0.00000  Uiso   1.00
O15    O     0.84016   0.05163   0.55233   0.00000  Uiso   1.00
O16    O     0.88469   0.96124   0.49440   0.00000  Uiso   1.00
O17    O     0.08710   0.50167   0.77194   0.00000  Uiso   1.00
O18    O     0.04422   0.41103   0.79662   0.00000  Uiso   1.00
O19    O     0.22609   0.51759   0.70682   0.00000  Uiso   1.00
O20    O     0.20265   0.50897   0.60013   0.00000  Uiso   1.00
N21    N     0.21545   0.66294   0.49310   0.00000  Uiso   1.00
C22    C     0.11052   0.58179   0.67863   0.00000  Uiso   1.00
C23    C     0.06475   0.62871   0.66861   0.00000  Uiso   1.00
C24    C     0.04825   0.63766   0.63171   0.00000  Uiso   1.00
H25    H     0.06819   0.61029   0.61024   0.00000  Uiso   1.00
C26    C     0.00579   0.68180   0.62202   0.00000  Uiso   1.00
H27    H     0.99442   0.68733   0.59318   0.00000  Uiso   1.00
C28    C     0.97872   0.71889   0.64895   0.00000  Uiso   1.00
C29    C     0.99307   0.70823   0.68616   0.00000  Uiso   1.00
H30    H     0.97289   0.73560   0.70766   0.00000  Uiso   1.00
C31    C     0.03561   0.66367   0.69589   0.00000  Uiso   1.00
H32    H     0.04657   0.65752   0.72476   0.00000  Uiso   1.00
C33    C     0.82675   0.91444   0.59315   0.00000  Uiso   1.00
C34    C     0.95673   0.80495   0.60660   0.00000  Uiso   1.00
H35    H     0.99809   0.79496   0.59204   0.00000  Uiso   1.00
C36    C     0.92117   0.85243   0.59393   0.00000  Uiso   1.00
H37    H     0.93669   0.87679   0.57013   0.00000  Uiso   1.00
C38    C     0.86634   0.86773   0.61103   0.00000  Uiso   1.00
C39    C     0.84971   0.83517   0.64292   0.00000  Uiso   1.00
H40    H     0.80803   0.84549   0.65710   0.00000  Uiso   1.00
C41    C     0.88624   0.78735   0.65609   0.00000  Uiso   1.00
H42    H     0.87193   0.76231   0.68020   0.00000  Uiso   1.00
C43    C     0.93970   0.77086   0.63741   0.00000  Uiso   1.00
C44    C     0.22878   0.59932   0.77420   0.00000  Uiso   1.00
C45    C     0.22756   0.65375   0.79854   0.00000  Uiso   1.00
C46    C     0.27656   0.69412   0.79893   0.00000  Uiso   1.00
H47    H     0.31504   0.68676   0.78122   0.00000  Uiso   1.00
C48    C     0.27786   0.74330   0.82319   0.00000  Uiso   1.00
H49    H     0.31685   0.77284   0.82250   0.00000  Uiso   1.00
C50    C     0.23061   0.75310   0.84849   0.00000  Uiso   1.00
C51    C     0.18052   0.71379   0.84725   0.00000  Uiso   1.00
H52    H     0.14335   0.71932   0.86634   0.00000  Uiso   1.00
C53    C     0.17882   0.66514   0.82240   0.00000  Uiso   1.00
H54    H     0.13993   0.63546   0.82271   0.00000  Uiso   1.00
C55    C     0.23517   0.80159   0.87733   0.00000  Uiso   1.00
C56    C     0.18351   0.83178   0.89073   0.00000  Uiso   1.00
H57    H     0.13962   0.82309   0.87867   0.00000  Uiso   1.00
C58    C     0.18776   0.87377   0.91978   0.00000  Uiso   1.00
H59    H     0.14727   0.89661   0.92894   0.00000  Uiso   1.00
C60    C     0.24373   0.88613   0.93656   0.00000  Uiso   1.00
C61    C     0.29535   0.85710   0.92238   0.00000  Uiso   1.00
H62    H     0.33949   0.86579   0.93408   0.00000  Uiso   1.00
C63    C     0.29134   0.81620   0.89310   0.00000  Uiso   1.00
H64    H     0.33248   0.79489   0.88362   0.00000  Uiso   1.00
C65    C     0.25008   0.93048   0.96757   0.00000  Uiso   1.00
C66    C     0.11856   0.41327   0.67778   0.00000  Uiso   1.00
C67    C     0.07511   0.36347   0.66563   0.00000  Uiso   1.00
C68    C     0.07375   0.34427   0.62872   0.00000  Uiso   1.00
H69    H     0.10437   0.36437   0.60896   0.00000  Uiso   1.00
C70    C     0.03279   0.29996   0.61619   0.00000  Uiso   1.00
H71    H     0.03482   0.28954   0.58724   0.00000  Uiso   1.00
C72    C     0.99079   0.27101   0.63988   0.00000  Uiso   1.00
C73    C     0.99191   0.29092   0.67725   0.00000  Uiso   1.00
H74    H     0.96153   0.27187   0.69742   0.00000  Uiso   1.00
C75    C     0.03274   0.33630   0.68974   0.00000  Uiso   1.00
H76    H     0.03076   0.35017   0.71840   0.00000  Uiso   1.00
C77    C     0.94710   0.22143   0.62546   0.00000  Uiso   1.00
C78    C     0.95101   0.19841   0.58891   0.00000  Uiso   1.00
H79    H     0.98503   0.21393   0.56990   0.00000  Uiso   1.00
C80    C     0.91138   0.15359   0.57534   0.00000  Uiso   1.00
H81    H     0.91668   0.13868   0.54708   0.00000  Uiso   1.00
C82    C     0.86584   0.12808   0.59746   0.00000  Uiso   1.00
C83    C     0.86142   0.14991   0.63395   0.00000  Uiso   1.00
H84    H     0.82792   0.13100   0.65240   0.00000  Uiso   1.00
C85    C     0.90063   0.19572   0.64753   0.00000  Uiso   1.00
H86    H     0.89371   0.21039   0.67560   0.00000  Uiso   1.00
C87    C     0.82553   0.07769   0.58279   0.00000  Uiso   1.00
C88    C     0.06561   0.45630   0.78424   0.00000  Uiso   1.00
C89    C     0.27383   0.64158   0.50692   0.00000  Uiso   1.00
In90   In    0.78377   0.49703   0.15400   0.00000  Uiso   1.00
In91   In    0.84306   0.49953   0.23820   0.00000  Uiso   1.00
In92   In    0.19150   0.01656   0.02154   0.00000  Uiso   1.00
O93    O     0.69609   0.05703   0.47856   0.00000  Uiso   1.00
O94    O     0.79656   0.04493   0.48256   0.00000  Uiso   1.00
O95    O     0.82016   0.43228   0.27106   0.00000  Uiso   1.00
O96    O     0.72270   0.41416   0.25728   0.00000  Uiso   1.00
O97    O     0.85120   0.43652   0.15409   0.00000  Uiso   1.00
O98    O     0.89089   0.43958   0.21104   0.00000  Uiso   1.00
O99    O     0.22061   0.06519   0.10884   0.00000  Uiso   1.00
O100   O     0.15786   0.06799   0.06028   0.00000  Uiso   1.00
O101   O     0.84496   0.56445   0.15424   0.00000  Uiso   1.00
O102   O     0.88398   0.56693   0.21110   0.00000  Uiso   1.00
O103   O     0.22140   0.93774   0.10083   0.00000  Uiso   1.00
O104   O     0.15959   0.94788   0.05189   0.00000  Uiso   1.00
O105   O     0.11489   0.03811  -0.00585   0.00000  Uiso   1.00
O106   O     0.91251   0.49887   0.27190   0.00000  Uiso   1.00
O107   O     0.95462   0.58993   0.29653   0.00000  Uiso   1.00
O108   O     0.77306   0.48290   0.20681   0.00000  Uiso   1.00
O109   O     0.79299   0.49266   0.09969   0.00000  Uiso   1.00
N110   N     0.78136   0.33629   0.99270   0.00000  Uiso   1.00
C111   C     0.88970   0.41856   0.17830   0.00000  Uiso   1.00
C112   C     0.93558   0.37156   0.16831   0.00000  Uiso   1.00
C113   C     0.95191   0.36239   0.13138   0.00000  Uiso   1.00
H114   H     0.93189   0.38955   0.10987   0.00000  Uiso   1.00
C115   C     0.99410   0.31801   0.12169   0.00000  Uiso   1.00
H116   H     0.00520   0.31219   0.09283   0.00000  Uiso   1.00
C117   C     0.02112   0.28086   0.14857   0.00000  Uiso   1.00
C118   C     0.00690   0.29156   0.18581   0.00000  Uiso   1.00
H119   H     0.02688   0.26393   0.20723   0.00000  Uiso   1.00
C120   C     0.96459   0.33635   0.19558   0.00000  Uiso   1.00
H121   H     0.95359   0.34237   0.22445   0.00000  Uiso   1.00
C122   C     0.17306   0.08519   0.09259   0.00000  Uiso   1.00
C123   C     0.04269   0.19456   0.10618   0.00000  Uiso   1.00
H124   H     0.00117   0.20440   0.09182   0.00000  Uiso   1.00
C125   C     0.07833   0.14714   0.09345   0.00000  Uiso   1.00
H126   H     0.06261   0.12253   0.06977   0.00000  Uiso   1.00
C127   C     0.13339   0.13203   0.11043   0.00000  Uiso   1.00
C128   C     0.15013   0.16480   0.14216   0.00000  Uiso   1.00
H129   H     0.19188   0.15464   0.15610   0.00000  Uiso   1.00
C130   C     0.11359   0.21247   0.15542   0.00000  Uiso   1.00
H131   H     0.12803   0.23758   0.17948   0.00000  Uiso   1.00
C132   C     0.05992   0.22880   0.13690   0.00000  Uiso   1.00
C133   C     0.77202   0.40068   0.27409   0.00000  Uiso   1.00
C134   C     0.77257   0.34622   0.29861   0.00000  Uiso   1.00
C135   C     0.72343   0.30592   0.29916   0.00000  Uiso   1.00
H136   H     0.68502   0.31301   0.28132   0.00000  Uiso   1.00
C137   C     0.72201   0.25688   0.32361   0.00000  Uiso   1.00
H138   H     0.68308   0.22724   0.32305   0.00000  Uiso   1.00
C139   C     0.76932   0.24708   0.34890   0.00000  Uiso   1.00
C140   C     0.81949   0.28623   0.34748   0.00000  Uiso   1.00
H141   H     0.85682   0.28054   0.36644   0.00000  Uiso   1.00
C142   C     0.82125   0.33480   0.32256   0.00000  Uiso   1.00
H143   H     0.86020   0.36428   0.32270   0.00000  Uiso   1.00
C144   C     0.76480   0.19873   0.37791   0.00000  Uiso   1.00
C145   C     0.81637   0.16817   0.39115   0.00000  Uiso   1.00
H146   H     0.86013   0.17637   0.37884   0.00000  Uiso   1.00
C147   C     0.81211   0.12639   0.42031   0.00000  Uiso   1.00
H148   H     0.85253   0.10333   0.42941   0.00000  Uiso   1.00
C149   C     0.75618   0.11434   0.43726   0.00000  Uiso   1.00
C150   C     0.70464   0.14377   0.42328   0.00000  Uiso   1.00
H151   H     0.66050   0.13505   0.43487   0.00000  Uiso   1.00
C152   C     0.70870   0.18462   0.39396   0.00000  Uiso   1.00
H153   H     0.66765   0.20620   0.38457   0.00000  Uiso   1.00
C154   C     0.74972   0.06960   0.46811   0.00000  Uiso   1.00
C155   C     0.88206   0.58666   0.17792   0.00000  Uiso   1.00
C156   C     0.92554   0.63640   0.16586   0.00000  Uiso   1.00
C157   C     0.92660   0.65579   0.12900   0.00000  Uiso   1.00
H158   H     0.89584   0.63589   0.10927   0.00000  Uiso   1.00
C159   C     0.96736   0.70016   0.11645   0.00000  Uiso   1.00
H160   H     0.96513   0.71053   0.08750   0.00000  Uiso   1.00
C161   C     0.00942   0.72912   0.14009   0.00000  Uiso   1.00
C162   C     0.00851   0.70918   0.17747   0.00000  Uiso   1.00
H163   H     0.03896   0.72824   0.19762   0.00000  Uiso   1.00
C164   C     0.96787   0.66361   0.18995   0.00000  Uiso   1.00
H165   H     0.96986   0.64969   0.21859   0.00000  Uiso   1.00
C166   C     0.05289   0.77868   0.12550   0.00000  Uiso   1.00
C167   C     0.04867   0.80149   0.08893   0.00000  Uiso   1.00
H168   H     0.01452   0.78594   0.07005   0.00000  Uiso   1.00
C169   C     0.08817   0.84619   0.07515   0.00000  Uiso   1.00
H170   H     0.08249   0.86117   0.04692   0.00000  Uiso   1.00
C171   C     0.13397   0.87167   0.09710   0.00000  Uiso   1.00
C172   C     0.13849   0.85026   0.13368   0.00000  Uiso   1.00
H173   H     0.17188   0.86957   0.15201   0.00000  Uiso   1.00
C174   C     0.09939   0.80459   0.14746   0.00000  Uiso   1.00
H175   H     0.10636   0.79020   0.17556   0.00000  Uiso   1.00
C176   C     0.17438   0.92180   0.08233   0.00000  Uiso   1.00
C177   C     0.93364   0.54445   0.28420   0.00000  Uiso   1.00
C178   C     0.72585   0.36015   0.00912   0.00000  Uiso   1.00
In179  In    0.99758   0.71605   0.40403   0.00000  Uiso   1.00
In180  In   -0.00037   0.65675   0.48832   0.00000  Uiso   1.00
In181  In    0.51695   0.30875   0.27169   0.00000  Uiso   1.00
O182   O     0.55671   0.80358   0.72804   0.00000  Uiso   1.00
O183   O     0.54575   0.70310   0.73245   0.00000  Uiso   1.00
O184   O     0.93247   0.67991   0.52106   0.00000  Uiso   1.00
O185   O     0.91415   0.77703   0.50716   0.00000  Uiso   1.00
O186   O     0.93710   0.64872   0.40423   0.00000  Uiso   1.00
O187   O     0.93961   0.60900   0.46126   0.00000  Uiso   1.00
O188   O     0.56628   0.27933   0.35907   0.00000  Uiso   1.00
O189   O     0.56752   0.34283   0.31085   0.00000  Uiso   1.00
O190   O     0.06490   0.65500   0.40433   0.00000  Uiso   1.00
O191   O     0.06714   0.61574   0.46111   0.00000  Uiso   1.00
O192   O     0.43877   0.27882   0.35104   0.00000  Uiso   1.00
O193   O     0.44809   0.34029   0.30196   0.00000  Uiso   1.00
O194   O     0.53833   0.38501   0.24419   0.00000  Uiso   1.00
O195   O    -0.00116   0.58715   0.52187   0.00000  Uiso   1.00
O196   O     0.08973   0.54489   0.54683   0.00000  Uiso   1.00
O197   O     0.98329   0.72640   0.45681   0.00000  Uiso   1.00
O198   O    -0.00609   0.70446   0.34991   0.00000  Uiso   1.00
N199   N     0.84236   0.71869   0.24312   0.00000  Uiso   1.00
C200   C     0.91886   0.61031   0.42844   0.00000  Uiso   1.00
C201   C     0.87177   0.56473   0.41842   0.00000  Uiso   1.00
C202   C     0.86257   0.54850   0.38148   0.00000  Uiso   1.00
H203   H     0.88966   0.56877   0.35996   0.00000  Uiso   1.00
C204   C     0.81829   0.50622   0.37177   0.00000  Uiso   1.00
H205   H     0.81264   0.49498   0.34292   0.00000  Uiso   1.00
C206   C     0.78116   0.47923   0.39867   0.00000  Uiso   1.00
C207   C     0.79181   0.49351   0.43590   0.00000  Uiso   1.00
H208   H     0.76427   0.47347   0.45737   0.00000  Uiso   1.00
C209   C     0.83650   0.53587   0.44567   0.00000  Uiso   1.00
H210   H     0.84236   0.54708   0.47452   0.00000  Uiso   1.00
C211   C     0.58538   0.32740   0.34301   0.00000  Uiso   1.00
C212   C     0.69475   0.45769   0.35646   0.00000  Uiso   1.00
H213   H     0.70470   0.49913   0.34198   0.00000  Uiso   1.00
C214   C     0.64705   0.42228   0.34390   0.00000  Uiso   1.00
H215   H     0.62230   0.43810   0.32027   0.00000  Uiso   1.00
C216   C     0.63206   0.36723   0.36085   0.00000  Uiso   1.00
C217   C     0.66496   0.35037   0.39249   0.00000  Uiso   1.00
H218   H     0.65481   0.30856   0.40638   0.00000  Uiso   1.00
C219   C     0.71281   0.38676   0.40565   0.00000  Uiso   1.00
H220   H     0.73809   0.37219   0.42963   0.00000  Uiso   1.00
C221   C     0.72914   0.44041   0.38711   0.00000  Uiso   1.00
C222   C     0.90078   0.72791   0.52402   0.00000  Uiso   1.00
C223   C     0.84631   0.72721   0.54846   0.00000  Uiso   1.00
C224   C     0.80599   0.77624   0.54893   0.00000  Uiso   1.00
H225   H     0.81317   0.81466   0.53114   0.00000  Uiso   1.00
C226   C     0.75694   0.77768   0.57334   0.00000  Uiso   1.00
H227   H     0.72736   0.81666   0.57273   0.00000  Uiso   1.00
C228   C     0.74720   0.73042   0.59869   0.00000  Uiso   1.00
C229   C     0.78638   0.68029   0.59737   0.00000  Uiso   1.00
H230   H     0.78077   0.64314   0.61643   0.00000  Uiso   1.00
C231   C     0.83491   0.67848   0.57246   0.00000  Uiso   1.00
H232   H     0.86445   0.63956   0.57268   0.00000  Uiso   1.00
C233   C     0.69883   0.73507   0.62765   0.00000  Uiso   1.00
C234   C     0.66858   0.68343   0.64104   0.00000  Uiso   1.00
H235   H     0.67702   0.63957   0.62887   0.00000  Uiso   1.00
C236   C     0.62673   0.68766   0.67015   0.00000  Uiso   1.00
H237   H     0.60389   0.64725   0.67934   0.00000  Uiso   1.00
C238   C     0.61441   0.74361   0.68691   0.00000  Uiso   1.00
C239   C     0.64349   0.79527   0.67274   0.00000  Uiso   1.00
H240   H     0.63447   0.83951   0.68417   0.00000  Uiso   1.00
C241   C     0.68442   0.79124   0.64348   0.00000  Uiso   1.00
H242   H     0.70569   0.83231   0.63396   0.00000  Uiso   1.00
C243   C     0.56980   0.75004   0.71779   0.00000  Uiso   1.00
C244   C     0.08701   0.61782   0.42796   0.00000  Uiso   1.00
C245   C     0.13676   0.57448   0.41590   0.00000  Uiso   1.00
C246   C     0.15622   0.57334   0.37905   0.00000  Uiso   1.00
H247   H     0.13632   0.60412   0.35928   0.00000  Uiso   1.00
C248   C     0.20052   0.53240   0.36654   0.00000  Uiso   1.00
H249   H     0.21089   0.53455   0.33759   0.00000  Uiso   1.00
C250   C     0.22933   0.49029   0.39022   0.00000  Uiso   1.00
C251   C     0.20929   0.49137   0.42758   0.00000  Uiso   1.00
H252   H     0.22821   0.46086   0.44775   0.00000  Uiso   1.00
C253   C     0.16383   0.53220   0.44003   0.00000  Uiso   1.00
H254   H     0.14976   0.53034   0.46864   0.00000  Uiso   1.00
C255   C     0.27884   0.44663   0.37573   0.00000  Uiso   1.00
C256   C     0.30162   0.45071   0.33914   0.00000  Uiso   1.00
H257   H     0.28609   0.48482   0.32023   0.00000  Uiso   1.00
C258   C     0.34630   0.41124   0.32536   0.00000  Uiso   1.00
H259   H     0.36117   0.41681   0.29709   0.00000  Uiso   1.00
C260   C     0.37199   0.36563   0.34731   0.00000  Uiso   1.00
C261   C     0.35050   0.36095   0.38385   0.00000  Uiso   1.00
H262   H     0.36978   0.32741   0.40212   0.00000  Uiso   1.00
C263   C     0.30476   0.40004   0.39769   0.00000  Uiso   1.00
H264   H     0.29037   0.39303   0.42580   0.00000  Uiso   1.00
C265   C     0.42234   0.32556   0.33247   0.00000  Uiso   1.00
C266   C     0.04439   0.56596   0.53433   0.00000  Uiso   1.00
C267   C     0.86140   0.77673   0.25854   0.00000  Uiso   1.00
In268  In    0.00380   0.28367   0.90362   0.00000  Uiso   1.00
In269  In    1.00124   0.34298   0.98800   0.00000  Uiso   1.00
In270  In    0.48344   0.69125   0.77163   0.00000  Uiso   1.00
O271   O     0.44310   0.19589   0.22882   0.00000  Uiso   1.00
O272   O     0.45482   0.29642   0.23255   0.00000  Uiso   1.00
O273   O     0.06759   0.31890   0.02135   0.00000  Uiso   1.00
O274   O     0.08672   0.22223   0.00694   0.00000  Uiso   1.00
O275   O     0.06456   0.35094   0.90365   0.00000  Uiso   1.00
O276   O     0.06137   0.39036   0.96065   0.00000  Uiso   1.00
O277   O     0.43535   0.72110   0.85910   0.00000  Uiso   1.00
O278   O     0.43210   0.65824   0.81055   0.00000  Uiso   1.00
O279   O     0.93668   0.34504   0.90411   0.00000  Uiso   1.00
O280   O     0.93339   0.38367   0.96113   0.00000  Uiso   1.00
O281   O     0.56283   0.72168   0.85087   0.00000  Uiso   1.00
O282   O     0.55208   0.65955   0.80223   0.00000  Uiso   1.00
O283   O     0.46163   0.61422   0.74457   0.00000  Uiso   1.00
O284   O     1.00398   0.41318   0.02114   0.00000  Uiso   1.00
O285   O     0.91511   0.45695   0.04754   0.00000  Uiso   1.00
O286   O     0.01702   0.27315   0.95651   0.00000  Uiso   1.00
O287   O     1.00358   0.29304   0.84916   0.00000  Uiso   1.00
N288   N     0.16858   0.28136   0.74391   0.00000  Uiso   1.00
C289   C     0.08242   0.38935   0.92792   0.00000  Uiso   1.00
C290   C     0.12920   0.43548   0.91804   0.00000  Uiso   1.00
C291   C     0.13823   0.45223   0.88116   0.00000  Uiso   1.00
H292   H     0.11115   0.43225   0.85959   0.00000  Uiso   1.00
C293   C     0.18233   0.49479   0.87162   0.00000  Uiso   1.00
H294   H     0.18811   0.50618   0.84280   0.00000  Uiso   1.00
C295   C     0.21932   0.52175   0.89862   0.00000  Uiso   1.00
C296   C     0.20862   0.50726   0.93580   0.00000  Uiso   1.00
H297   H     0.23607   0.52731   0.95730   0.00000  Uiso   1.00
C298   C     0.16410   0.46461   0.94540   0.00000  Uiso   1.00
H299   H     0.15806   0.45344   0.97424   0.00000  Uiso   1.00
C300   C     0.41511   0.67358   0.84290   0.00000  Uiso   1.00
C301   C     0.30574   0.54325   0.85646   0.00000  Uiso   1.00
H302   H     0.29583   0.50178   0.84205   0.00000  Uiso   1.00
C303   C     0.35328   0.57879   0.84385   0.00000  Uiso   1.00
H304   H     0.37801   0.56291   0.82026   0.00000  Uiso   1.00
C305   C     0.36829   0.63394   0.86079   0.00000  Uiso   1.00
C306   C     0.33545   0.65077   0.89246   0.00000  Uiso   1.00
H307   H     0.34559   0.69261   0.90631   0.00000  Uiso   1.00
C308   C     0.28776   0.61418   0.90569   0.00000  Uiso   1.00
H309   H     0.26260   0.62855   0.92976   0.00000  Uiso   1.00
C310   C     0.27144   0.56054   0.88711   0.00000  Uiso   1.00
C311   C     0.09971   0.27105   0.02414   0.00000  Uiso   1.00
C312   C     0.15406   0.27187   0.04880   0.00000  Uiso   1.00
C313   C     0.19458   0.22291   0.04932   0.00000  Uiso   1.00
H314   H     0.18753   0.18449   0.03155   0.00000  Uiso   1.00
C315   C     0.24359   0.22163   0.07379   0.00000  Uiso   1.00
H316   H     0.27329   0.18271   0.07328   0.00000  Uiso   1.00
C317   C     0.25322   0.26891   0.09910   0.00000  Uiso   1.00
C318   C     0.21400   0.31903   0.09769   0.00000  Uiso   1.00
H319   H     0.21967   0.35635   0.11663   0.00000  Uiso   1.00
C320   C     0.16533   0.32055   0.07280   0.00000  Uiso   1.00
H321   H     0.13562   0.35939   0.07305   0.00000  Uiso   1.00
C322   C     0.30134   0.26426   0.12819   0.00000  Uiso   1.00
C323   C     0.33223   0.31574   0.14121   0.00000  Uiso   1.00
H324   H     0.32442   0.35941   0.12867   0.00000  Uiso   1.00
C325   C     0.37389   0.31152   0.17041   0.00000  Uiso   1.00
H326   H     0.39732   0.35184   0.17930   0.00000  Uiso   1.00
C327   C     0.38547   0.25571   0.18761   0.00000  Uiso   1.00
C328   C     0.35565   0.20417   0.17389   0.00000  Uiso   1.00
H329   H     0.36387   0.16010   0.18582   0.00000  Uiso   1.00
C330   C     0.31487   0.20823   0.14451   0.00000  Uiso   1.00
H331   H     0.29299   0.16730   0.13527   0.00000  Uiso   1.00
C332   C     0.43025   0.24940   0.21834   0.00000  Uiso   1.00
C333   C     0.91392   0.38171   0.92788   0.00000  Uiso   1.00
C334   C     0.86389   0.42484   0.91582   0.00000  Uiso   1.00
C335   C     0.84450   0.42595   0.87893   0.00000  Uiso   1.00
H336   H     0.86442   0.39518   0.85919   0.00000  Uiso   1.00
C337   C     0.80013   0.46680   0.86637   0.00000  Uiso   1.00
H338   H     0.78971   0.46465   0.83743   0.00000  Uiso   1.00
C339   C     0.77118   0.50883   0.89005   0.00000  Uiso   1.00
C340   C     0.79103   0.50769   0.92743   0.00000  Uiso   1.00
H341   H     0.77191   0.53806   0.94762   0.00000  Uiso   1.00
C342   C     0.83648   0.46693   0.93994   0.00000  Uiso   1.00
H343   H     0.85019   0.46875   0.96862   0.00000  Uiso   1.00
C344   C     0.72158   0.55245   0.87561   0.00000  Uiso   1.00
C345   C     0.69863   0.54844   0.83905   0.00000  Uiso   1.00
H346   H     0.71421   0.51442   0.82009   0.00000  Uiso   1.00
C347   C     0.65387   0.58806   0.82542   0.00000  Uiso   1.00
H348   H     0.63875   0.58245   0.79721   0.00000  Uiso   1.00
C349   C     0.62850   0.63379   0.84740   0.00000  Uiso   1.00
C350   C     0.65004   0.63813   0.88401   0.00000  Uiso   1.00
H351   H     0.63077   0.67136   0.90248   0.00000  Uiso   1.00
C352   C     0.69574   0.59889   0.89766   0.00000  Uiso   1.00
H353   H     0.71031   0.60575   0.92575   0.00000  Uiso   1.00
C354   C     0.57843   0.67443   0.83260   0.00000  Uiso   1.00
C355   C     0.95948   0.43509   0.03429   0.00000  Uiso   1.00
C356   C     0.14163   0.22611   0.75860   0.00000  Uiso   1.00
In357  In    0.28350   0.00329   0.09567   0.00000  Uiso   1.00
In358  In    0.34315   1.00066   0.01149   0.00000  Uiso   1.00
In359  In    0.69189   0.48333   0.22796   0.00000  Uiso   1.00
O360   O     0.19605   0.44257   0.77127   0.00000  Uiso   1.00
O361   O     0.29647   0.45449   0.76726   0.00000  Uiso   1.00
O362   O     0.32019   0.06880   0.97937   0.00000  Uiso   1.00
O363   O     0.22250   0.08584   0.99237   0.00000  Uiso   1.00
O364   O     0.35082   0.06397   0.09561   0.00000  Uiso   1.00
O365   O     0.39090   0.06051   0.03875   0.00000  Uiso   1.00
O366   O     0.72101   0.43530   0.14039   0.00000  Uiso   1.00
O367   O     0.65811   0.43184   0.18886   0.00000  Uiso   1.00
O368   O     0.34527   0.93639   0.09586   0.00000  Uiso   1.00
O369   O     0.38427   0.93363   0.03899   0.00000  Uiso   1.00
O370   O     0.72166   0.56242   0.14872   0.00000  Uiso   1.00
O371   O     0.66004   0.55225   0.19787   0.00000  Uiso   1.00
O372   O     0.61469   0.46146   0.25522   0.00000  Uiso   1.00
O373   O     0.41277   1.00098   0.97794   0.00000  Uiso   1.00
O374   O     0.45488   0.90975   0.95351   0.00000  Uiso   1.00
O375   O     0.27315   0.01635   0.04283   0.00000  Uiso   1.00
O376   O     0.29183   1.00787   0.15000   0.00000  Uiso   1.00
N377   N     0.28188   0.16803   0.26225   0.00000  Uiso   1.00
C378   C     0.38953   0.08169   0.07145   0.00000  Uiso   1.00
C379   C     0.43553   0.12858   0.08139   0.00000  Uiso   1.00
C380   C     0.45220   0.13771   0.11827   0.00000  Uiso   1.00
H381   H     0.43225   0.11062   0.13985   0.00000  Uiso   1.00
C382   C     0.49468   0.18192   0.12782   0.00000  Uiso   1.00
H383   H     0.50603   0.18767   0.15665   0.00000  Uiso   1.00
C384   C     0.52162   0.21899   0.10084   0.00000  Uiso   1.00
C385   C     0.50709   0.20823   0.06365   0.00000  Uiso   1.00
H386   H     0.52704   0.23566   0.04213   0.00000  Uiso   1.00
C387   C     0.46450   0.16362   0.05404   0.00000  Uiso   1.00
H388   H     0.45326   0.15759   0.02521   0.00000  Uiso   1.00
C389   C     0.67351   0.41497   0.15655   0.00000  Uiso   1.00
C390   C     0.54384   0.30489   0.14338   0.00000  Uiso   1.00
H391   H     0.50272   0.29467   0.15809   0.00000  Uiso   1.00
C392   C     0.57945   0.35236   0.15599   0.00000  Uiso   1.00
H393   H     0.56406   0.37649   0.17992   0.00000  Uiso   1.00
C394   C     0.63403   0.36807   0.13864   0.00000  Uiso   1.00
C395   C     0.65030   0.33583   0.10659   0.00000  Uiso   1.00
H396   H     0.69158   0.34653   0.09218   0.00000  Uiso   1.00
C397   C     0.61367   0.28806   0.09345   0.00000  Uiso   1.00
H398   H     0.62761   0.26339   0.06911   0.00000  Uiso   1.00
C399   C     0.56054   0.27110   0.11238   0.00000  Uiso   1.00
C400   C     0.27177   0.09988   0.97598   0.00000  Uiso   1.00
C401   C     0.27244   0.15423   0.95148   0.00000  Uiso   1.00
C402   C     0.22314   0.19432   0.95073   0.00000  Uiso   1.00
H403   H     0.18468   0.18718   0.96851   0.00000  Uiso   1.00
C404   C     0.22164   0.24309   0.92611   0.00000  Uiso   1.00
H405   H     0.18258   0.27260   0.92645   0.00000  Uiso   1.00
C406   C     0.26900   0.25278   0.90089   0.00000  Uiso   1.00
C407   C     0.31931   0.21386   0.90246   0.00000  Uiso   1.00
H408   H     0.35662   0.21951   0.88348   0.00000  Uiso   1.00
C409   C     0.32115   0.16553   0.92752   0.00000  Uiso   1.00
H410   H     0.36015   0.13607   0.92743   0.00000  Uiso   1.00
C411   C     0.26448   0.30085   0.87182   0.00000  Uiso   1.00
C412   C     0.31594   0.33211   0.85909   0.00000  Uiso   1.00
H413   H     0.35948   0.32453   0.87186   0.00000  Uiso   1.00
C414   C     0.31185   0.37377   0.82987   0.00000  Uiso   1.00
H415   H     0.35221   0.39730   0.82111   0.00000  Uiso   1.00
C416   C     0.25608   0.38521   0.81254   0.00000  Uiso   1.00
C417   C     0.20461   0.35513   0.82608   0.00000  Uiso   1.00
H418   H     0.16064   0.36316   0.81401   0.00000  Uiso   1.00
C419   C     0.20859   0.31406   0.85525   0.00000  Uiso   1.00
H420   H     0.16772   0.29166   0.86416   0.00000  Uiso   1.00
C421   C     0.24964   0.42990   0.78172   0.00000  Uiso   1.00
C422   C     0.38259   0.91427   0.07227   0.00000  Uiso   1.00
C423   C     0.42640   0.86483   0.08449   0.00000  Uiso   1.00
C424   C     0.42655   0.84448   0.12118   0.00000  Uiso   1.00
H425   H     0.39516   0.86377   0.14076   0.00000  Uiso   1.00
C426   C     0.46711   0.79984   0.13372   0.00000  Uiso   1.00
H427   H     0.46413   0.78866   0.16254   0.00000  Uiso   1.00
C428   C     0.50980   0.77151   0.11022   0.00000  Uiso   1.00
C429   C     0.50995   0.79258   0.07308   0.00000  Uiso   1.00
H430   H     0.54090   0.77408   0.05301   0.00000  Uiso   1.00
C431   C     0.46979   0.83861   0.06068   0.00000  Uiso   1.00
H432   H     0.47295   0.85355   0.03228   0.00000  Uiso   1.00
C433   C     0.55302   0.72160   0.12466   0.00000  Uiso   1.00
C434   C     0.54881   0.69853   0.16119   0.00000  Uiso   1.00
H435   H     0.51474   0.71404   0.18014   0.00000  Uiso   1.00
C436   C     0.58833   0.65367   0.17481   0.00000  Uiso   1.00
H437   H     0.58271   0.63850   0.20302   0.00000  Uiso   1.00
C438   C     0.63411   0.62837   0.15276   0.00000  Uiso   1.00
C439   C     0.63844   0.64989   0.11621   0.00000  Uiso   1.00
H440   H     0.67172   0.63062   0.09780   0.00000  Uiso   1.00
C441   C     0.59934   0.69564   0.10258   0.00000  Uiso   1.00
H442   H     0.60619   0.70997   0.07447   0.00000  Uiso   1.00
C443   C     0.67474   0.57834   0.16742   0.00000  Uiso   1.00
C444   C     0.43390   0.95530   0.96575   0.00000  Uiso   1.00
C445   C     0.22859   0.14160   0.24484   0.00000  Uiso   1.00
In446  In    0.71624   0.99614   0.59592   0.00000  Uiso   1.00
In447  In    0.65655  -0.00071   0.51164   0.00000  Uiso   1.00
In448  In    0.30818   0.51689   0.72796   0.00000  Uiso   1.00
O449   O     0.80335   0.55745   0.27106   0.00000  Uiso   1.00
O450   O     0.70293   0.54547   0.26714   0.00000  Uiso   1.00
O451   O     0.67983   0.93142   0.47933   0.00000  Uiso   1.00
O452   O     0.77720   0.91378   0.49268   0.00000  Uiso   1.00
O453   O     0.64972   0.93482   0.59521   0.00000  Uiso   1.00
O454   O     0.60844   0.93954   0.53872   0.00000  Uiso   1.00
O455   O     0.27978   0.56462   0.64038   0.00000  Uiso   1.00
O456   O     0.34176   0.56813   0.68923   0.00000  Uiso   1.00
O457   O     0.65460   0.06308   0.59614   0.00000  Uiso   1.00
O458   O     0.61524   0.06602   0.53928   0.00000  Uiso   1.00
O459   O     0.27909   0.43830   0.64883   0.00000  Uiso   1.00
O460   O     0.34074   0.44835   0.69774   0.00000  Uiso   1.00
O461   O     0.38472   0.53845   0.75519   0.00000  Uiso   1.00
O462   O     0.58716  -0.00165   0.47781   0.00000  Uiso   1.00
O463   O     0.54416   0.08914   0.45341   0.00000  Uiso   1.00
O464   O     0.72634   0.98319   0.54307   0.00000  Uiso   1.00
O465   O     0.70299  -0.00901   0.64990   0.00000  Uiso   1.00
N466   N     0.71773   0.83666   0.75884   0.00000  Uiso   1.00
C467   C     0.61043   0.91778   0.57125   0.00000  Uiso   1.00
C468   C     0.56437   0.87115   0.58128   0.00000  Uiso   1.00
C469   C     0.54739   0.86269   0.61815   0.00000  Uiso   1.00
H470   H     0.56693   0.89047   0.63956   0.00000  Uiso   1.00
C471   C     0.50502   0.81849   0.62789   0.00000  Uiso   1.00
H472   H     0.49343   0.81314   0.65672   0.00000  Uiso   1.00
C473   C     0.47835   0.78104   0.60101   0.00000  Uiso   1.00
C474   C     0.49280   0.79152   0.56379   0.00000  Uiso   1.00
H475   H     0.47272   0.76401   0.54231   0.00000  Uiso   1.00
C476   C     0.53535   0.83602   0.55404   0.00000  Uiso   1.00
H477   H     0.54644   0.84200   0.52519   0.00000  Uiso   1.00
C478   C     0.32701   0.58489   0.65678   0.00000  Uiso   1.00
C479   C     0.45673   0.69501   0.64344   0.00000  Uiso   1.00
H480   H     0.49798   0.70525   0.65804   0.00000  Uiso   1.00
C481   C     0.42132   0.64738   0.65609   0.00000  Uiso   1.00
H482   H     0.43674   0.62319   0.67994   0.00000  Uiso   1.00
C483   C     0.36665   0.63168   0.63891   0.00000  Uiso   1.00
C484   C     0.35009   0.66406   0.60694   0.00000  Uiso   1.00
H485   H     0.30861   0.65335   0.59268   0.00000  Uiso   1.00
C486   C     0.38637   0.71209   0.59380   0.00000  Uiso   1.00
H487   H     0.37207   0.73703   0.56964   0.00000  Uiso   1.00
C488   C     0.43963   0.72891   0.61257   0.00000  Uiso   1.00
C489   C     0.72813   0.90006   0.47609   0.00000  Uiso   1.00
C490   C     0.72740   0.84579   0.45153   0.00000  Uiso   1.00
C491   C     0.77668   0.80568   0.45072   0.00000  Uiso   1.00
H492   H     0.81532   0.81289   0.46838   0.00000  Uiso   1.00
C493   C     0.77814   0.75694   0.42606   0.00000  Uiso   1.00
H494   H     0.81726   0.72748   0.42634   0.00000  Uiso   1.00
C495   C     0.73075   0.74731   0.40083   0.00000  Uiso   1.00
C496   C     0.68050   0.78634   0.40244   0.00000  Uiso   1.00
H497   H     0.64319   0.78089   0.38344   0.00000  Uiso   1.00
C498   C     0.67875   0.83463   0.42755   0.00000  Uiso   1.00
H499   H     0.63993   0.86431   0.42740   0.00000  Uiso   1.00
C500   C     0.73530   0.69936   0.37168   0.00000  Uiso   1.00
C501   C     0.68385   0.66803   0.35898   0.00000  Uiso   1.00
H502   H     0.64035   0.67544   0.37186   0.00000  Uiso   1.00
C503   C     0.68793   0.62639   0.32974   0.00000  Uiso   1.00
H504   H     0.64764   0.60266   0.32108   0.00000  Uiso   1.00
C505   C     0.74356   0.61514   0.31225   0.00000  Uiso   1.00
C506   C     0.79506   0.64532   0.32574   0.00000  Uiso   1.00
H507   H     0.83905   0.63727   0.31367   0.00000  Uiso   1.00
C508   C     0.79113   0.68621   0.35506   0.00000  Uiso   1.00
H509   H     0.83209   0.70839   0.36407   0.00000  Uiso   1.00
C510   C     0.74982   0.57027   0.28149   0.00000  Uiso   1.00
C511   C     0.61706   0.08517   0.57262   0.00000  Uiso   1.00
C512   C     0.57310   0.13439   0.58496   0.00000  Uiso   1.00
C513   C     0.57291   0.15477   0.62165   0.00000  Uiso   1.00
H514   H     0.60418   0.13544   0.64130   0.00000  Uiso   1.00
C515   C     0.53252   0.19966   0.63408   0.00000  Uiso   1.00
H516   H     0.53558   0.21115   0.66286   0.00000  Uiso   1.00
C517   C     0.48990   0.22798   0.61050   0.00000  Uiso   1.00
C518   C     0.48980   0.20679   0.57340   0.00000  Uiso   1.00
H519   H     0.45898   0.22534   0.55329   0.00000  Uiso   1.00
C520   C     0.52995   0.16073   0.56106   0.00000  Uiso   1.00
H521   H     0.52720   0.14605   0.53259   0.00000  Uiso   1.00
C522   C     0.44680   0.27815   0.62476   0.00000  Uiso   1.00
C523   C     0.45102   0.30138   0.66125   0.00000  Uiso   1.00
H524   H     0.48495   0.28587   0.68028   0.00000  Uiso   1.00
C525   C     0.41166   0.34636   0.67478   0.00000  Uiso   1.00
H526   H     0.41715   0.36153   0.70293   0.00000  Uiso   1.00
C527   C     0.36617   0.37188   0.65262   0.00000  Uiso   1.00
C528   C     0.36161   0.35008   0.61616   0.00000  Uiso   1.00
H529   H     0.32828   0.36924   0.59765   0.00000  Uiso   1.00
C530   C     0.40058   0.30414   0.60261   0.00000  Uiso   1.00
H531   H     0.39371   0.28955   0.57452   0.00000  Uiso   1.00
C532   C     0.32618   0.42233   0.66737   0.00000  Uiso   1.00
C533   C     0.56559   0.04377   0.46564   0.00000  Uiso   1.00
C534   C     0.77256   0.86217   0.74252   0.00000  Uiso   1.00
In535  In    0.50411   0.21657   0.34611   0.00000  Uiso   1.00
In536  In    0.50129   0.15694   0.26185   0.00000  Uiso   1.00
In537  In    0.98329   0.80845   0.47794   0.00000  Uiso   1.00
O538   O     0.94289   0.30396   0.02085   0.00000  Uiso   1.00
O539   O     0.95494   0.20345   0.01708   0.00000  Uiso   1.00
O540   O     0.56821   0.18076   0.22886   0.00000  Uiso   1.00
O541   O     0.58669   0.27771   0.24279   0.00000  Uiso   1.00
O542   O     0.56480   0.14922   0.34618   0.00000  Uiso   1.00
O543   O     0.56133   0.10963   0.28923   0.00000  Uiso   1.00
O544   O     0.93580   0.77875   0.39020   0.00000  Uiso   1.00
O545   O     0.93206   0.84144   0.43882   0.00000  Uiso   1.00
O546   O     0.43728   0.15480   0.34601   0.00000  Uiso   1.00
O547   O     0.43390   0.11599   0.28902   0.00000  Uiso   1.00
O548   O     0.06293   0.77830   0.39881   0.00000  Uiso   1.00
O549   O     0.05194   0.84035   0.44745   0.00000  Uiso   1.00
O550   O     0.96127   0.88490   0.50522   0.00000  Uiso   1.00
O551   O     0.50393   0.08688   0.22857   0.00000  Uiso   1.00
O552   O     0.41502   0.04279   0.20240   0.00000  Uiso   1.00
O553   O     0.51680   0.22699   0.29316   0.00000  Uiso   1.00
O554   O     0.50431   0.20828   0.40065   0.00000  Uiso   1.00
N555   N     0.65958   0.21699   0.51247   0.00000  Uiso   1.00
C556   C     0.58247   0.11069   0.32193   0.00000  Uiso   1.00
C557   C     0.62916   0.06446   0.33174   0.00000  Uiso   1.00
C558   C     0.63803   0.04728   0.36855   0.00000  Uiso   1.00
H559   H     0.61083   0.06699   0.39016   0.00000  Uiso   1.00
C560   C     0.68212   0.00463   0.37796   0.00000  Uiso   1.00
H561   H     0.68782   0.99299   0.40675   0.00000  Uiso   1.00
C562   C     0.71918   0.97793   0.35089   0.00000  Uiso   1.00
C563   C     0.70845   0.99271   0.31375   0.00000  Uiso   1.00
H564   H     0.73578   0.97277   0.29215   0.00000  Uiso   1.00
C565   C     0.66403   0.03554   0.30429   0.00000  Uiso   1.00
H566   H     0.65799   0.04698   0.27549   0.00000  Uiso   1.00
C567   C     0.91531   0.82617   0.40642   0.00000  Uiso   1.00
C568   C     0.80518   0.95596   0.39325   0.00000  Uiso   1.00
H569   H     0.79491   0.99707   0.40795   0.00000  Uiso   1.00
C570   C     0.85268   0.92039   0.40584   0.00000  Uiso   1.00
H571   H     0.87680   0.93586   0.42975   0.00000  Uiso   1.00
C572   C     0.86842   0.86576   0.38851   0.00000  Uiso   1.00
C573   C     0.83622   0.84952   0.35644   0.00000  Uiso   1.00
H574   H     0.84699   0.80831   0.34199   0.00000  Uiso   1.00
C575   C     0.78837   0.88605   0.34334   0.00000  Uiso   1.00
H576   H     0.76367   0.87205   0.31900   0.00000  Uiso   1.00
C577   C     0.77139   0.93914   0.36231   0.00000  Uiso   1.00
C578   C     0.59996   0.22881   0.22580   0.00000  Uiso   1.00
C579   C     0.65428   0.22804   0.20112   0.00000  Uiso   1.00
C580   C     0.69466   0.27710   0.20045   0.00000  Uiso   1.00
H581   H     0.68761   0.31557   0.21820   0.00000  Uiso   1.00
C582   C     0.74350   0.27844   0.17586   0.00000  Uiso   1.00
H583   H     0.77314   0.31742   0.17623   0.00000  Uiso   1.00
C584   C     0.75308   0.23109   0.15058   0.00000  Uiso   1.00
C585   C     0.71401   0.18088   0.15215   0.00000  Uiso   1.00
H586   H     0.71966   0.14354   0.13323   0.00000  Uiso   1.00
C587   C     0.66550   0.17930   0.17714   0.00000  Uiso   1.00
H588   H     0.63584   0.14045   0.17696   0.00000  Uiso   1.00
C589   C     0.80101   0.23568   0.12138   0.00000  Uiso   1.00
C590   C     0.83216   0.18424   0.10853   0.00000  Uiso   1.00
H591   H     0.82466   0.14069   0.12128   0.00000  Uiso   1.00
C592   C     0.87370   0.18839   0.07926   0.00000  Uiso   1.00
H593   H     0.89732   0.14810   0.07051   0.00000  Uiso   1.00
C594   C     0.88507   0.24415   0.06193   0.00000  Uiso   1.00
C595   C     0.85501   0.29564   0.07548   0.00000  Uiso   1.00
H596   H     0.86323   0.33969   0.06356   0.00000  Uiso   1.00
C597   C     0.81416   0.29160   0.10481   0.00000  Uiso   1.00
H598   H     0.79196   0.33248   0.11390   0.00000  Uiso   1.00
C599   C     0.93008   0.25042   0.03129   0.00000  Uiso   1.00
C600   C     0.41463   0.11787   0.32232   0.00000  Uiso   1.00
C601   C     0.36477   0.07455   0.33449   0.00000  Uiso   1.00
C602   C     0.34482   0.07395   0.37128   0.00000  Uiso   1.00
H603   H     0.36441   0.10506   0.39094   0.00000  Uiso   1.00
C604   C     0.30024   0.03326   0.38379   0.00000  Uiso   1.00
H605   H     0.28934   0.03581   0.41265   0.00000  Uiso   1.00
C606   C     0.27161   0.99094   0.36014   0.00000  Uiso   1.00
C607   C     0.29207   0.99155   0.32290   0.00000  Uiso   1.00
H608   H     0.27315   0.96104   0.30272   0.00000  Uiso   1.00
C609   C     0.33786   0.03194   0.31048   0.00000  Uiso   1.00
H610   H     0.35209   0.02952   0.28192   0.00000  Uiso   1.00
C611   C     0.22176   0.94749   0.37445   0.00000  Uiso   1.00
C612   C     0.19862   0.95148   0.41096   0.00000  Uiso   1.00
H613   H     0.21421   0.98537   0.42999   0.00000  Uiso   1.00
C614   C     0.15372   0.91190   0.42446   0.00000  Uiso   1.00
H615   H     0.13849   0.91741   0.45265   0.00000  Uiso   1.00
C616   C     0.12843   0.86625   0.40240   0.00000  Uiso   1.00
C617   C     0.15008   0.86199   0.36582   0.00000  Uiso   1.00
H618   H     0.13087   0.82881   0.34729   0.00000  Uiso   1.00
C619   C     0.19590   0.90118   0.35230   0.00000  Uiso   1.00
H620   H     0.21053   0.89435   0.32422   0.00000  Uiso   1.00
C621   C     0.07840   0.82554   0.41712   0.00000  Uiso   1.00
C622   C     0.45939   0.06482   0.21555   0.00000  Uiso   1.00
C623   C     0.63837   0.27141   0.49383   0.00000  Uiso   1.00
In624  In    0.49730   0.78379   0.84559   0.00000  Uiso   1.00
In625  In    0.49954   0.84312   0.76137   0.00000  Uiso   1.00
In626  In    0.01717   0.19139   0.97782   0.00000  Uiso   1.00
O627   O     0.05726   0.69634   0.52128   0.00000  Uiso   1.00
O628   O     0.04563   0.79675   0.51710   0.00000  Uiso   1.00
O629   O     0.43164   0.82005   0.72916   0.00000  Uiso   1.00
O630   O     0.41426   0.72248   0.74233   0.00000  Uiso   1.00
O631   O     0.43697   0.85135   0.84550   0.00000  Uiso   1.00
O632   O     0.43983   0.89110   0.78850   0.00000  Uiso   1.00
O633   O     0.06573   0.22092   0.89022   0.00000  Uiso   1.00
O634   O     0.06779   0.15767   0.93850   0.00000  Uiso   1.00
O635   O     0.56424   0.84524   0.84565   0.00000  Uiso   1.00
O636   O     0.56711   0.88394   0.78873   0.00000  Uiso   1.00
O637   O     0.93853   0.22134   0.89870   0.00000  Uiso   1.00
O638   O     0.94808   0.15976   0.94776   0.00000  Uiso   1.00
O639   O     0.03855   0.11463   1.00505   0.00000  Uiso   1.00
O640   O     0.49888   0.91278   0.72786   0.00000  Uiso   1.00
O641   O     0.58984   0.95535   0.70321   0.00000  Uiso   1.00
O642   O     0.48348   0.77331   0.79277   0.00000  Uiso   1.00
O643   O     0.49318   0.79404   0.89980   0.00000  Uiso   1.00
N644   N     0.33774   0.78750   0.01015   0.00000  Uiso   1.00
C645   C     0.41899   0.88989   0.82129   0.00000  Uiso   1.00
C646   C     0.37209   0.93577   0.83120   0.00000  Uiso   1.00
C647   C     0.36333   0.95277   0.86804   0.00000  Uiso   1.00
H648   H     0.39083   0.93310   0.88956   0.00000  Uiso   1.00
C649   C     0.31890   0.99501   0.87764   0.00000  Uiso   1.00
H650   H     0.31340   0.00661   0.90645   0.00000  Uiso   1.00
C651   C     0.28143   0.02144   0.85069   0.00000  Uiso   1.00
C652   C     0.29197   0.00673   0.81351   0.00000  Uiso   1.00
H653   H     0.26436   0.02649   0.79198   0.00000  Uiso   1.00
C654   C     0.33662   0.96421   0.80388   0.00000  Uiso   1.00
H655   H     0.34230   0.95261   0.77508   0.00000  Uiso   1.00
C656   C     0.08520   0.17304   0.90627   0.00000  Uiso   1.00
C657   C     0.19534   0.04336   0.89310   0.00000  Uiso   1.00
H658   H     0.20571   0.00229   0.90788   0.00000  Uiso   1.00
C659   C     0.14759   0.07871   0.90563   0.00000  Uiso   1.00
H660   H     0.12335   0.06321   0.92950   0.00000  Uiso   1.00
C661   C     0.13189   0.13329   0.88836   0.00000  Uiso   1.00
C662   C     0.16411   0.14960   0.85628   0.00000  Uiso   1.00
H663   H     0.15322   0.19082   0.84176   0.00000  Uiso   1.00
C664   C     0.21215   0.11324   0.84322   0.00000  Uiso   1.00
H665   H     0.23696   0.12732   0.81896   0.00000  Uiso   1.00
C666   C     0.22923   0.06020   0.86217   0.00000  Uiso   1.00
C667   C     0.40038   0.77181   0.72586   0.00000  Uiso   1.00
C668   C     0.34588   0.77254   0.70142   0.00000  Uiso   1.00
C669   C     0.30566   0.72343   0.70078   0.00000  Uiso   1.00
H670   H     0.31278   0.68496   0.71854   0.00000  Uiso   1.00
C671   C     0.25679   0.72197   0.67622   0.00000  Uiso   1.00
H672   H     0.22731   0.68289   0.67660   0.00000  Uiso   1.00
C673   C     0.24712   0.76931   0.65095   0.00000  Uiso   1.00
C674   C     0.28610   0.81958   0.65246   0.00000  Uiso   1.00
H675   H     0.28046   0.85679   0.63344   0.00000  Uiso   1.00
C676   C     0.33450   0.82136   0.67748   0.00000  Uiso   1.00
H677   H     0.36401   0.86030   0.67734   0.00000  Uiso   1.00
C678   C     0.19901   0.76463   0.62186   0.00000  Uiso   1.00
C679   C     0.16787   0.81609   0.60901   0.00000  Uiso   1.00
H680   H     0.17547   0.85970   0.62173   0.00000  Uiso   1.00
C681   C     0.12620   0.81195   0.57979   0.00000  Uiso   1.00
H682   H     0.10271   0.85220   0.57100   0.00000  Uiso   1.00
C683   C     0.11477   0.75627   0.56249   0.00000  Uiso   1.00
C684   C     0.14473   0.70469   0.57616   0.00000  Uiso   1.00
H685   H     0.13657   0.66061   0.56422   0.00000  Uiso   1.00
C686   C     0.18567   0.70867   0.60543   0.00000  Uiso   1.00
H687   H     0.20776   0.66777   0.61454   0.00000  Uiso   1.00
C688   C     0.07008   0.74988   0.53162   0.00000  Uiso   1.00
C689   C     0.58656   0.88225   0.82199   0.00000  Uiso   1.00
C690   C     0.63618   0.92577   0.83414   0.00000  Uiso   1.00
C691   C     0.65576   0.92679   0.87099   0.00000  Uiso   1.00
H692   H     0.63592   0.89593   0.89072   0.00000  Uiso   1.00
C693   C     0.70021   0.96763   0.88348   0.00000  Uiso   1.00
H694   H     0.71075   0.96530   0.91241   0.00000  Uiso   1.00
C695   C     0.72898   0.00976   0.85981   0.00000  Uiso   1.00
C696   C     0.70879   0.00883   0.82248   0.00000  Uiso   1.00
H697   H     0.72771   0.03932   0.80230   0.00000  Uiso   1.00
C698   C     0.66323   0.96811   0.81004   0.00000  Uiso   1.00
H699   H     0.64920   0.96994   0.78142   0.00000  Uiso   1.00
C700   C     0.77861   0.05336   0.87424   0.00000  Uiso   1.00
C701   C     0.80149   0.04933   0.91080   0.00000  Uiso   1.00
H702   H     0.78598   0.01524   0.92974   0.00000  Uiso   1.00
C703   C     0.84624   0.08883   0.92452   0.00000  Uiso   1.00
H704   H     0.86120   0.08331   0.95276   0.00000  Uiso   1.00
C705   C     0.87184   0.13443   0.90251   0.00000  Uiso   1.00
C706   C     0.85028   0.13900   0.86598   0.00000  Uiso   1.00
H707   H     0.86952   0.17249   0.84766   0.00000  Uiso   1.00
C708   C     0.80451   0.09989   0.85223   0.00000  Uiso   1.00
H709   H     0.79010   0.10684   0.82412   0.00000  Uiso   1.00
C710   C     0.92225   0.17450   0.91727   0.00000  Uiso   1.00
C711   C     0.54446   0.93414   0.71556   0.00000  Uiso   1.00
C712   C     0.35786   0.72880   0.99636   0.00000  Uiso   1.00
C713   C     0.92187   0.92197   0.49976   0.00000  Uiso   1.00
C714   C     0.07779   0.07743  -0.00036   0.00000  Uiso   1.00
C715   C     0.57760   0.42216   0.24969   0.00000  Uiso   1.00
C716   C     0.42197   0.57753   0.74979   0.00000  Uiso   1.00
H717   H     0.24068   0.49557   0.58826   0.00000  Uiso   1.00
H718   H     0.21704   0.66756   0.46440   0.00000  Uiso   1.00
H719   H     0.20513   0.70491   0.50476   0.00000  Uiso   1.00
H720   H     0.30781   0.64044   0.48433   0.00000  Uiso   1.00
H721   H     0.26956   0.59528   0.51858   0.00000  Uiso   1.00
H722   H     0.29091   0.67221   0.52885   0.00000  Uiso   1.00
H723   H     0.83449   0.50659   0.09418   0.00000  Uiso   1.00
H724   H     0.78836   0.29183   1.00150   0.00000  Uiso   1.00
H725   H     0.81823   0.36280   1.00070   0.00000  Uiso   1.00
H726   H     0.69765   0.32270   0.02020   0.00000  Uiso   1.00
H727   H     0.69898   0.38506  -0.01189   0.00000  Uiso   1.00
H728   H     0.73664   0.39166   0.03210   0.00000  Uiso   1.00
H729   H     0.03638   0.70181   0.34138   0.00000  Uiso   1.00
H730   H     0.84205   0.72112   0.21432   0.00000  Uiso   1.00
H731   H     0.79887   0.70813   0.25240   0.00000  Uiso   1.00
H732   H     0.88708   0.80311   0.23763   0.00000  Uiso   1.00
H733   H     0.89095   0.76951   0.28296   0.00000  Uiso   1.00
H734   H     0.82140   0.80370   0.26724   0.00000  Uiso   1.00
H735   H     1.04498   0.30481   0.84157   0.00000  Uiso   1.00
H736   H     0.20722   0.29241   0.75903   0.00000  Uiso   1.00
H737   H     0.13752   0.31685   0.74574   0.00000  Uiso   1.00
H738   H     0.17715   0.19689   0.77093   0.00000  Uiso   1.00
H739   H     0.11862   0.20054   0.73623   0.00000  Uiso   1.00
H740   H     0.10783   0.23712   0.78028   0.00000  Uiso   1.00
H741   H     0.33324   0.99393   0.15573   0.00000  Uiso   1.00
H742   H     0.31529   0.13504   0.26508   0.00000  Uiso   1.00
H743   H     0.27058   0.18500   0.28827   0.00000  Uiso   1.00
H744   H     0.22384   0.09334   0.25279   0.00000  Uiso   1.00
H745   H     0.23272   0.14416   0.21439   0.00000  Uiso   1.00
H746   H     0.18720   0.16629   0.25347   0.00000  Uiso   1.00
H747   H     0.74108   0.00446   0.66169   0.00000  Uiso   1.00
H748   H     0.67981   0.85097   0.74405   0.00000  Uiso   1.00
H749   H     0.71350   0.85105   0.78618   0.00000  Uiso   1.00
H750   H     0.76302   0.87986   0.71441   0.00000  Uiso   1.00
H751   H     0.80845   0.82713   0.74043   0.00000  Uiso   1.00
H752   H     0.78994   0.90000   0.75971   0.00000  Uiso   1.00
H753   H     0.54554   0.19580   0.40813   0.00000  Uiso   1.00
H754   H     0.63806   0.21286   0.53795   0.00000  Uiso   1.00
H755   H     0.70620   0.21984   0.51670   0.00000  Uiso   1.00
H756   H     0.58937   0.27822   0.49911   0.00000  Uiso   1.00
H757   H     0.64560   0.26715   0.46368   0.00000  Uiso   1.00
H758   H     0.66349   0.31161   0.50394   0.00000  Uiso   1.00
H759   H     0.53549   0.79806   0.90843   0.00000  Uiso   1.00
H760   H     0.30538   0.80577  -0.00759   0.00000  Uiso   1.00
H761   H     0.37437   0.81707   0.01179   0.00000  Uiso   1.00
H762   H     0.34745   0.72428   0.96655   0.00000  Uiso   1.00
H763   H     0.33445   0.69172   1.01124   0.00000  Uiso   1.00
H764   H     0.40735   0.72327   1.00045   0.00000  Uiso   1.00
H765   H     0.64980   0.17908   0.49638   0.00000  Uiso   1.00
H766   H     0.77796   0.33686   0.96394   0.00000  Uiso   1.00
H767   H     0.18069   0.27492   0.71633   0.00000  Uiso   1.00
H768   H     0.87224   0.68478   0.25142   0.00000  Uiso   1.00
H769   H     0.18149   0.63212   0.50002   0.00000  Uiso   1.00
H770   H     0.29864   0.20314   0.24593   0.00000  Uiso   1.00
H771   H     0.71976   0.78946   0.75833   0.00000  Uiso   1.00
H772   H     0.31863   0.78268   0.03632   0.00000  Uiso   1.00
loop_
_geom_bond_atom_site_label_1
_geom_bond_atom_site_label_2
_geom_bond_distance
_geom_bond_site_symmetry_2
_ccdc_geom_bond_type
In1    O8      2.003   .     S
In1    O12     2.015   .     S
In1    O19     1.951   .     S
In1    O20     1.983   .     S
In1    O455    2.011   .     S
In1    O459    2.009   .     S
In2    O6      1.975   .     S
In2    O9      1.962   .     S
In2    O13     2.003   .     S
In2    O17     1.964   .     S
In2    O19     1.952   .     S
In2    O360    1.958   .     S
In3    O11     1.959   .     S
In3    O16     2.020   .     S
In3    O452    1.983   .     S
In3    O464    1.971   .     S
In3    O15     2.009   1_565 S
In3    O94     1.998   1_565 S
O4     C65     1.276   .     A
O4     In358   1.961   1_556 S
O5     C65     1.282   .     A
O5     In92    1.997   1_566 S
O6     C44     1.280   .     A
O7     C44     1.278   .     A
O7     In448   1.982   .     S
O8     C22     1.287   .     A
O9     C22     1.275   .     A
O10    C33     1.284   .     A
O10    In446   2.011   .     S
O11    C33     1.277   .     A
O12    C66     1.288   .     A
O13    C66     1.282   .     A
O14    C87     1.288   .     A
O14    In446   2.011   1_545 S
O15    C87     1.288   .     A
O15    In3     2.009   1_545 S
O16    C713    1.213   .     D
O17    C88     1.198   .     D
O18    C88     1.196   .     D
O19    In448   1.973   .     S
O20    H717    0.991   .     S
N21    C89     1.465   .     S
N21    H718    1.046   .     S
N21    H719    1.046   .     S
N21    H769    1.046   .     S
C22    C23     1.496   .     S
C23    C24     1.401   .     A
C23    C31     1.412   .     A
C24    H25     1.081   .     S
C24    C26     1.401   .     A
C26    H27     1.083   1_455 S
C26    C28     1.410   1_455 S
H27    C26     1.083   1_655 S
C28    C29     1.406   .     A
C28    C43     1.498   .     S
C28    C26     1.410   1_655 S
C29    H30     1.084   .     S
C29    C31     1.409   1_655 S
C31    H32     1.083   .     S
C31    C29     1.409   1_455 S
C33    C38     1.503   .     S
C34    H35     1.080   .     S
C34    C36     1.391   .     A
C34    C43     1.400   .     A
C36    H37     1.074   .     S
C36    C38     1.405   .     A
C38    C39     1.412   .     A
C39    H40     1.081   .     S
C39    C41     1.415   .     A
C41    H42     1.083   .     S
C41    C43     1.412   .     A
C44    C45     1.494   .     S
C45    C46     1.406   .     A
C45    C53     1.406   .     A
C46    H47     1.079   .     S
C46    C48     1.400   .     A
C48    H49     1.083   .     S
C48    C50     1.408   .     A
C50    C51     1.410   .     A
C50    C55     1.502   .     S
C51    H52     1.082   .     S
C51    C53     1.405   .     A
C53    H54     1.083   .     S
C55    C56     1.411   .     A
C55    C63     1.406   .     A
C56    H57     1.083   .     S
C56    C58     1.408   .     A
C58    H59     1.081   .     S
C58    C60     1.407   .     A
C60    C61     1.408   .     A
C60    C65     1.499   .     S
C61    H62     1.083   .     S
C61    C63     1.398   .     A
C63    H64     1.082   .     S
C66    C67     1.528   .     S
C67    C68     1.405   .     A
C67    C75     1.416   .     A
C68    H69     1.082   .     S
C68    C70     1.411   .     A
C70    H71     1.076   .     S
C70    C72     1.419   1_455 S
C72    C73     1.425   .     A
C72    C77     1.554   .     S
C72    C70     1.419   1_655 S
C73    H74     1.079   .     S
C73    C75     1.425   1_655 S
C75    H76     1.085   .     S
C75    C73     1.425   1_455 S
C77    C78     1.423   .     A
C77    C85     1.422   .     A
C78    H79     1.077   .     S
C78    C80     1.413   .     A
C80    H81     1.083   .     S
C80    C82     1.407   .     A
C82    C83     1.412   .     A
C82    C87     1.524   .     S
C83    H84     1.083   .     S
C83    C85     1.423   .     A
C85    H86     1.079   .     S
C89    H720    1.113   .     S
C89    H721    1.113   .     S
C89    H722    1.111   .     S
In90   O97     2.006   .     S
In90   O101    2.016   .     S
In90   O108    1.955   .     S
In90   O109    1.982   .     S
In90   O366    2.010   .     S
In90   O370    2.006   .     S
In91   O95     1.973   .     S
In91   O98     1.963   .     S
In91   O102    2.003   .     S
In91   O106    1.964   .     S
In91   O108    1.958   .     S
In91   O449    1.959   .     S
In92   O100    1.956   .     S
In92   O105    2.023   .     S
In92   O375    1.966   .     S
In92   O5      1.997   1_544 S
In92   O104    2.006   1_545 A
In92   O363    1.986   1_554 A
O93    C154    1.277   .     A
O93    In447   1.959   .     S
O94    C154    1.284   .     A
O94    In3     1.998   1_545 S
O95    C133    1.280   .     A
O96    C133    1.286   .     A
O96    In359   1.985   .     S
O97    C111    1.287   .     A
O98    C111    1.276   .     A
O99    C122    1.285   .     A
O99    In357   2.011   .     S
O100   C122    1.277   .     A
O101   C155    1.286   .     A
O102   C155    1.281   .     A
O103   C176    1.288   .     A
O103   In357   2.008   1_565 S
O104   C176    1.288   .     A
O104   In92    2.006   1_565 A
O105   C714    1.213   .     D
O106   C177    1.198   .     D
O107   C177    1.196   .     D
O108   In359   1.954   .     S
O109   H723    0.990   .     S
N110   H724    1.046   .     S
N110   H725    1.046   .     S
N110   H766    1.046   .     S
N110   C178    1.464   1_556 A
C111   C112    1.499   .     S
C112   C113    1.402   .     A
C112   C120    1.414   .     A
C113   H114    1.080   .     S
C113   C115    1.400   .     A
C115   H116    1.083   1_655 A
C115   C117    1.409   1_655 S
H116   C115    1.083   1_455 A
C117   C118    1.407   .     A
C117   C132    1.498   .     S
C117   C115    1.409   1_455 S
C118   H119    1.083   .     S
C118   C120    1.409   1_455 A
C120   H121    1.083   .     S
C120   C118    1.409   1_655 A
C122   C127    1.505   .     S
C123   H124    1.079   .     S
C123   C125    1.392   .     A
C123   C132    1.400   .     A
C125   H126    1.075   .     S
C125   C127    1.406   .     A
C127   C128    1.410   .     A
C128   H129    1.077   .     S
C128   C130    1.414   .     A
C130   H131    1.083   .     S
C130   C132    1.412   .     A
C133   C134    1.498   .     S
C134   C135    1.407   .     A
C134   C142    1.407   .     A
C135   H136    1.080   .     S
C135   C137    1.402   .     A
C137   H138    1.083   .     S
C137   C139    1.409   .     A
C139   C140    1.410   .     A
C139   C144    1.504   .     S
C140   H141    1.082   .     S
C140   C142    1.405   .     A
C142   H143    1.081   .     S
C144   C145    1.411   .     A
C144   C152    1.407   .     A
C145   H146    1.082   .     S
C145   C147    1.408   .     A
C147   H148    1.082   .     S
C147   C149    1.408   .     A
C149   C150    1.408   .     A
C149   C154    1.501   .     S
C150   H151    1.081   .     S
C150   C152    1.399   .     A
C152   H153    1.082   .     S
C155   C156    1.527   .     S
C156   C157    1.404   .     A
C156   C164    1.416   .     A
C157   H158    1.082   .     S
C157   C159    1.409   .     A
C159   H160    1.076   .     S
C159   C161    1.419   1_655 A
C161   C162    1.426   .     A
C161   C166    1.552   .     S
C161   C159    1.419   1_455 A
C162   H163    1.080   .     S
C162   C164    1.426   1_455 D
C164   H165    1.084   .     S
C164   C162    1.426   1_655 D
C166   C167    1.422   .     A
C166   C174    1.422   .     A
C167   H168    1.077   .     S
C167   C169    1.412   .     A
C169   H170    1.083   .     S
C169   C171    1.407   .     A
C171   C172    1.412   .     A
C171   C176    1.523   .     S
C172   H173    1.082   .     S
C172   C174    1.422   .     A
C174   H175    1.079   .     S
C178   H726    1.113   .     S
C178   H727    1.113   .     S
C178   H728    1.113   .     S
C178   N110    1.464   1_554 A
In179  O186    2.004   .     S
In179  O197    1.954   .     S
In179  O544    2.012   .     S
In179  O190    2.012   1_655 S
In179  O198    1.981   1_655 S
In179  O548    2.007   1_655 S
In180  O191    2.008   .     S
In180  O195    1.963   .     S
In180  O627    1.956   .     S
In180  O184    1.971   1_455 S
In180  O187    1.961   1_455 S
In180  O197    1.953   1_455 S
In181  O189    1.959   .     S
In181  O193    2.004   .     S
In181  O194    2.017   .     S
In181  O272    1.995   .     S
In181  O541    1.989   .     S
In181  O553    1.970   .     S
O182   C243    1.276   .     A
O182   In625   1.957   .     S
O183   C243    1.283   .     A
O183   In270   1.998   .     S
O184   C222    1.278   .     A
O184   In180   1.971   1_655 S
O185   C222    1.282   .     A
O185   In537   1.987   .     S
O186   C200    1.287   .     A
O187   C200    1.276   .     A
O187   In180   1.961   1_655 S
O188   C211    1.285   .     A
O188   In535   2.011   .     S
O189   C211    1.278   .     A
O190   C244    1.285   .     A
O190   In179   2.012   1_455 S
O191   C244    1.281   .     A
O192   C265    1.287   .     A
O192   In535   2.006   .     S
O193   C265    1.287   .     A
O194   C715    1.213   .     D
O195   C266    1.200   .     D
O196   C266    1.196   .     D
O197   In537   1.971   .     S
O197   In180   1.953   1_655 S
O198   H729    0.992   .     S
O198   In179   1.981   1_455 S
N199   C267    1.463   .     S
N199   H730    1.046   .     S
N199   H731    1.046   .     S
N199   H768    1.045   .     S
C200   C201    1.496   .     S
C201   C202    1.402   .     A
C201   C209    1.412   .     A
C202   H203    1.082   .     S
C202   C204    1.400   .     A
C204   H205    1.083   .     S
C204   C206    1.409   .     A
C206   C207    1.407   .     A
C206   C221    1.497   .     S
C207   H208    1.084   .     S
C207   C209    1.408   .     A
C209   H210    1.083   .     S
C211   C216    1.505   .     S
C212   H213    1.080   .     S
C212   C214    1.392   .     A
C212   C221    1.401   .     A
C214   H215    1.076   .     S
C214   C216    1.405   .     A
C216   C217    1.409   .     A
C217   H218    1.077   .     S
C217   C219    1.414   .     A
C219   H220    1.083   .     S
C219   C221    1.412   .     A
C222   C223    1.497   .     S
C223   C224    1.405   .     A
C223   C231    1.409   .     A
C224   H225    1.079   .     S
C224   C226    1.401   .     A
C226   H227    1.084   .     S
C226   C228    1.409   .     A
C228   C229    1.409   .     A
C228   C233    1.503   .     S
C229   H230    1.081   .     S
C229   C231    1.404   .     A
C231   H232    1.082   .     S
C233   C234    1.411   .     A
C233   C241    1.406   .     A
C234   H235    1.083   .     S
C234   C236    1.408   .     A
C236   H237    1.080   .     S
C236   C238    1.406   .     A
C238   C239    1.409   .     A
C238   C243    1.500   .     S
C239   H240    1.082   .     S
C239   C241    1.398   .     A
C241   H242    1.081   .     S
C244   C245    1.525   .     S
C245   C246    1.404   .     A
C245   C253    1.415   .     A
C246   H247    1.083   .     S
C246   C248    1.410   .     A
C248   H249    1.076   .     S
C248   C250    1.419   .     A
C250   C251    1.426   .     A
C250   C255    1.553   .     S
C251   H252    1.080   .     S
C251   C253    1.426   .     A
C253   H254    1.084   .     S
C255   C256    1.422   .     A
C255   C263    1.424   .     A
C256   H257    1.076   .     S
C256   C258    1.411   .     A
C258   H259    1.084   .     S
C258   C260    1.406   .     A
C260   C261    1.412   .     A
C260   C265    1.523   .     S
C261   H262    1.083   .     S
C261   C263    1.423   .     A
C263   H264    1.079   .     S
C267   H732    1.113   .     S
C267   H733    1.113   .     S
C267   H734    1.114   .     S
In268  O275    2.007   .     S
In268  O286    1.954   .     S
In268  O633    2.011   .     S
In268  O279    2.014   1_455 S
In268  O287    1.986   1_455 S
In268  O637    2.006   1_455 S
In269  O280    2.004   .     S
In269  O273    1.976   1_656 S
In269  O276    1.964   1_655 S
In269  O284    1.966   1_556 A
In269  O286    1.953   1_655 A
In269  O538    1.958   1_556 S
In270  O278    1.954   .     S
In270  O282    2.008   .     S
In270  O283    2.026   .     S
In270  O630    1.988   .     S
In270  O642    1.972   .     S
O271   C332    1.276   .     A
O271   In536   1.959   .     S
O272   C332    1.283   .     A
O273   C311    1.280   .     A
O273   In269   1.976   1_454 S
O274   C311    1.281   .     A
O274   In626   1.988   1_554 A
O275   C289    1.286   .     A
O276   C289    1.275   .     A
O276   In269   1.964   1_455 S
O277   C300    1.286   .     A
O277   In624   2.012   .     S
O278   C300    1.278   .     A
O279   C333    1.287   .     A
O279   In268   2.014   1_655 S
O280   C333    1.281   .     A
O281   C354    1.285   .     A
O281   In624   2.008   .     S
O282   C354    1.289   .     A
O283   C716    1.211   .     D
O284   C355    1.197   .     D
O284   In269   1.966   1_554 A
O285   C355    1.196   .     D
O286   In626   1.968   .     S
O286   In269   1.953   1_455 A
O287   H735    0.992   .     S
O287   In268   1.986   1_655 S
N288   C356    1.461   .     S
N288   H736    1.045   .     S
N288   H737    1.046   .     S
N288   H767    1.045   .     S
C289   C290    1.498   .     S
C290   C291    1.402   .     A
C290   C298    1.413   .     A
C291   H292    1.080   .     S
C291   C293    1.400   .     A
C293   H294    1.083   .     S
C293   C295    1.409   .     A
C295   C296    1.406   .     A
C295   C310    1.498   .     S
C296   H297    1.084   .     S
C296   C298    1.409   .     A
C298   H299    1.083   .     S
C300   C305    1.505   .     S
C301   H302    1.079   .     S
C301   C303    1.391   .     A
C301   C310    1.400   .     A
C303   H304    1.075   .     S
C303   C305    1.407   .     A
C305   C306    1.409   .     A
C306   H307    1.077   .     S
C306   C308    1.415   .     A
C308   H309    1.083   .     S
C308   C310    1.412   .     A
C311   C312    1.499   .     S
C312   C313    1.407   .     A
C312   C320    1.408   .     A
C313   H314    1.078   .     S
C313   C315    1.402   .     A
C315   H316    1.084   .     S
C315   C317    1.408   .     A
C317   C318    1.410   .     A
C317   C322    1.503   .     S
C318   H319    1.082   .     S
C318   C320    1.406   .     A
C320   H321    1.083   .     S
C322   C323    1.411   .     A
C322   C330    1.407   .     A
C323   H324    1.082   .     S
C323   C325    1.407   .     A
C325   H326    1.082   .     S
C325   C327    1.408   .     A
C327   C328    1.409   .     A
C327   C332    1.498   .     S
C328   H329    1.083   .     S
C328   C330    1.399   .     A
C330   H331    1.081   .     S
C333   C334    1.526   .     S
C334   C335    1.405   .     A
C334   C342    1.415   .     A
C335   H336    1.082   .     S
C335   C337    1.411   .     A
C337   H338    1.076   .     S
C337   C339    1.419   .     A
C339   C340    1.425   .     A
C339   C344    1.553   .     S
C340   H341    1.080   .     S
C340   C342    1.426   .     A
C342   H343    1.084   .     S
C344   C345    1.423   .     A
C344   C352    1.423   .     A
C345   H346    1.077   .     S
C345   C347    1.413   .     A
C347   H348    1.084   .     S
C347   C349    1.406   .     A
C349   C350    1.414   .     A
C349   C354    1.525   .     S
C350   H351    1.083   .     S
C350   C352    1.422   .     A
C352   H353    1.079   .     S
C356   H738    1.112   .     S
C356   H739    1.113   .     S
C356   H740    1.112   .     S
In357  O364    2.006   .     S
In357  O375    1.951   .     S
In357  O103    2.008   1_545 S
In357  O368    2.016   1_545 A
In357  O376    1.981   1_545 S
In358  O369    2.006   .     S
In358  O4      1.961   1_554 S
In358  O362    1.973   1_564 S
In358  O365    1.962   1_565 A
In358  O373    1.964   1_554 A
In358  O375    1.953   1_565 S
In359  O367    1.967   .     S
In359  O371    2.004   .     S
In359  O372    2.033   .     S
In359  O450    1.993   .     S
O360   C421    1.277   .     A
O361   C421    1.283   .     A
O361   In448   2.002   .     S
O362   C400    1.280   .     A
O362   In358   1.973   1_546 S
O363   C400    1.281   .     A
O363   In92    1.986   1_556 A
O364   C378    1.287   .     A
O365   C378    1.276   .     A
O365   In358   1.962   1_545 A
O366   C389    1.285   .     A
O367   C389    1.276   .     A
O368   C422    1.286   .     A
O368   In357   2.016   1_565 A
O369   C422    1.281   .     A
O370   C443    1.290   .     A
O371   C443    1.288   .     A
O372   C715    1.213   .     D
O373   C444    1.199   .     D
O373   In358   1.964   1_556 A
O374   C444    1.196   .     D
O375   In358   1.953   1_545 S
O376   H741    0.989   .     S
O376   In357   1.981   1_565 S
N377   C445    1.460   .     S
N377   H742    1.045   .     S
N377   H743    1.046   .     S
N377   H770    1.045   .     S
C378   C379    1.498   .     S
C379   C380    1.402   .     A
C379   C387    1.413   .     A
C380   H381    1.080   .     S
C380   C382    1.401   .     A
C382   H383    1.083   .     S
C382   C384    1.409   .     A
C384   C385    1.407   .     A
C384   C399    1.499   .     S
C385   H386    1.083   .     S
C385   C387    1.409   .     A
C387   H388    1.083   .     S
C389   C394    1.505   .     S
C390   H391    1.079   .     S
C390   C392    1.391   .     A
C390   C399    1.400   .     A
C392   H393    1.075   .     S
C392   C394    1.406   .     A
C394   C395    1.411   .     A
C395   H396    1.079   .     S
C395   C397    1.415   .     A
C397   H398    1.083   .     S
C397   C399    1.413   .     A
C400   C401    1.496   .     S
C401   C402    1.407   .     A
C401   C409    1.407   .     A
C402   H403    1.080   .     S
C402   C404    1.401   .     A
C404   H405    1.084   .     S
C404   C406    1.408   .     A
C406   C407    1.409   .     A
C406   C411    1.501   .     S
C407   H408    1.082   .     S
C407   C409    1.404   .     A
C409   H410    1.082   .     S
C411   C412    1.411   .     A
C411   C419    1.406   .     A
C412   H413    1.082   .     S
C412   C414    1.408   .     A
C414   H415    1.082   .     S
C414   C416    1.408   .     A
C416   C417    1.408   .     A
C416   C421    1.499   .     S
C417   H418    1.082   .     S
C417   C419    1.398   .     A
C419   H420    1.081   .     S
C422   C423    1.528   .     S
C423   C424    1.405   .     A
C423   C431    1.416   .     A
C424   H425    1.081   .     S
C424   C426    1.411   .     A
C426   H427    1.076   .     S
C426   C428    1.419   .     A
C428   C429    1.425   .     A
C428   C433    1.553   .     S
C429   H430    1.080   .     S
C429   C431    1.425   .     A
C431   H432    1.084   .     S
C433   C434    1.423   .     A
C433   C441    1.422   .     A
C434   H435    1.077   .     S
C434   C436    1.413   .     A
C436   H437    1.084   .     S
C436   C438    1.407   .     A
C438   C439    1.412   .     A
C438   C443    1.523   .     S
C439   H440    1.082   .     S
C439   C441    1.421   .     A
C441   H442    1.078   .     S
C445   H744    1.112   .     S
C445   H745    1.109   .     S
C445   H746    1.112   .     S
In446  O453    2.003   .     S
In446  O464    1.951   .     S
In446  O14     2.011   1_565 S
In446  O457    2.015   1_565 A
In446  O465    1.983   1_565 A
In447  O458    2.006   .     S
In447  O462    1.966   .     S
In447  O451    1.974   1_545 S
In447  O454    1.962   1_545 S
In447  O464    1.953   1_545 A
In448  O456    1.952   .     S
In448  O460    2.006   .     S
In448  O461    2.018   .     S
O449   C510    1.276   .     A
O450   C510    1.284   .     A
O451   C489    1.280   .     A
O451   In447   1.974   1_565 S
O452   C489    1.278   .     A
O453   C467    1.286   .     A
O454   C467    1.275   .     A
O454   In447   1.962   1_565 S
O455   C478    1.284   .     A
O456   C478    1.276   .     A
O457   C511    1.287   .     A
O457   In446   2.015   1_545 A
O458   C511    1.282   .     A
O459   C532    1.290   .     A
O460   C532    1.284   .     A
O461   C716    1.211   .     D
O462   C533    1.197   .     D
O463   C533    1.196   .     D
O464   In447   1.953   1_565 A
O465   H747    0.991   .     S
O465   In446   1.983   1_545 A
N466   C534    1.464   .     S
N466   H748    1.045   .     S
N466   H749    1.046   .     S
N466   H771    1.046   .     S
C467   C468    1.496   .     S
C468   C469    1.402   .     A
C468   C476    1.412   .     A
C469   H470    1.081   .     S
C469   C471    1.401   .     A
C471   H472    1.083   .     S
C471   C473    1.409   .     A
C473   C474    1.406   .     A
C473   C488    1.497   .     S
C474   H475    1.084   .     S
C474   C476    1.408   .     A
C476   H477    1.083   .     S
C478   C483    1.504   .     S
C479   H480    1.080   .     S
C479   C481    1.392   .     A
C479   C488    1.400   .     A
C481   H482    1.073   .     S
C481   C483    1.405   .     A
C483   C484    1.412   .     A
C484   H485    1.080   .     S
C484   C486    1.415   .     A
C486   H487    1.083   .     S
C486   C488    1.411   .     A
C489   C490    1.496   .     S
C490   C491    1.407   .     A
C490   C498    1.406   .     A
C491   H492    1.080   .     S
C491   C493    1.402   .     A
C493   H494    1.084   .     S
C493   C495    1.408   .     A
C495   C496    1.410   .     A
C495   C500    1.502   .     S
C496   H497    1.082   .     S
C496   C498    1.405   .     A
C498   H499    1.082   .     S
C500   C501    1.411   .     A
C500   C508    1.406   .     A
C501   H502    1.083   .     S
C501   C503    1.408   .     A
C503   H504    1.082   .     S
C503   C505    1.408   .     A
C505   C506    1.409   .     A
C505   C510    1.500   .     S
C506   H507    1.082   .     S
C506   C508    1.399   .     A
C508   H509    1.082   .     S
C511   C512    1.528   .     S
C512   C513    1.405   .     A
C512   C520    1.416   .     A
C513   H514    1.082   .     S
C513   C515    1.411   .     A
C515   H516    1.076   .     S
C515   C517    1.419   .     A
C517   C518    1.425   .     A
C517   C522    1.553   .     S
C518   H519    1.080   .     S
C518   C520    1.425   .     A
C520   H521    1.084   .     S
C522   C523    1.423   .     A
C522   C530    1.422   .     A
C523   H524    1.076   .     S
C523   C525    1.411   .     A
C525   H526    1.082   .     S
C525   C527    1.407   .     A
C527   C528    1.411   .     A
C527   C532    1.522   .     S
C528   H529    1.084   .     S
C528   C530    1.421   .     A
C530   H531    1.079   .     S
C534   H750    1.112   .     S
C534   H751    1.113   .     S
C534   H752    1.113   .     S
In535  O542    2.007   .     S
In535  O546    2.015   .     S
In535  O553    1.954   .     S
In535  O554    1.986   .     S
In536  O540    1.976   .     S
In536  O543    1.962   .     S
In536  O547    2.005   .     S
In536  O551    1.966   .     S
In536  O553    1.952   .     S
In537  O545    1.958   .     S
In537  O550    2.020   .     S
In537  O549    2.008   1_655 A
In537  O628    1.997   1_655 S
O538   C599    1.276   .     A
O538   In269   1.958   1_554 S
O539   C599    1.284   .     A
O539   In626   1.999   1_654 S
O540   C578    1.280   .     A
O541   C578    1.280   .     A
O542   C556    1.286   .     A
O543   C556    1.275   .     A
O544   C567    1.286   .     A
O545   C567    1.278   .     A
O546   C600    1.288   .     A
O547   C600    1.281   .     A
O548   C621    1.285   .     A
O548   In179   2.007   1_455 S
O549   C621    1.289   .     A
O549   In537   2.008   1_455 A
O550   C713    1.214   .     D
O551   C622    1.197   .     D
O552   C622    1.196   .     D
O554   H753    0.992   .     S
N555   C623    1.459   .     S
N555   H754    1.044   .     S
N555   H755    1.045   .     S
N555   H765    1.045   .     S
C556   C557    1.497   .     S
C557   C558    1.402   .     A
C557   C565    1.413   .     A
C558   H559    1.080   .     S
C558   C560    1.400   .     A
C560   H561    1.083   1_545 A
C560   C562    1.409   1_545 A
H561   C560    1.083   1_565 A
C562   C563    1.406   .     A
C562   C577    1.498   .     S
C562   C560    1.409   1_565 A
C563   H564    1.084   .     S
C563   C565    1.408   1_565 S
C565   H566    1.083   .     S
C565   C563    1.408   1_545 S
C567   C572    1.506   .     S
C568   H569    1.079   .     S
C568   C570    1.391   .     A
C568   C577    1.399   .     A
C570   H571    1.074   .     S
C570   C572    1.407   .     A
C572   C573    1.411   .     A
C573   H574    1.079   .     S
C573   C575    1.415   .     A
C575   H576    1.084   .     S
C575   C577    1.413   .     A
C578   C579    1.499   .     S
C579   C580    1.407   .     A
C579   C587    1.408   .     A
C580   H581    1.079   .     S
C580   C582    1.402   .     A
C582   H583    1.084   .     S
C582   C584    1.409   .     A
C584   C585    1.410   .     A
C584   C589    1.503   .     S
C585   H586    1.082   .     S
C585   C587    1.406   .     A
C587   H588    1.082   .     S
C589   C590    1.411   .     A
C589   C597    1.407   .     A
C590   H591    1.082   .     S
C590   C592    1.407   .     A
C592   H593    1.082   .     S
C592   C594    1.408   .     A
C594   C595    1.408   .     A
C594   C599    1.499   .     S
C595   H596    1.082   .     S
C595   C597    1.399   .     A
C597   H598    1.081   .     S
C600   C601    1.527   .     S
C601   C602    1.405   .     A
C601   C609    1.415   .     A
C602   H603    1.082   .     S
C602   C604    1.411   .     A
C604   H605    1.076   .     S
C604   C606    1.420   1_545 A
C606   C607    1.425   .     A
C606   C611    1.553   .     S
C606   C604    1.420   1_565 A
C607   H608    1.080   .     S
C607   C609    1.425   1_565 S
C609   H610    1.084   .     S
C609   C607    1.425   1_545 S
C611   C612    1.422   .     A
C611   C619    1.423   .     A
C612   H613    1.076   .     S
C612   C614    1.413   .     A
C614   H615    1.083   .     S
C614   C616    1.405   .     A
C616   C617    1.414   .     A
C616   C621    1.524   .     S
C617   H618    1.083   .     S
C617   C619    1.422   .     A
C619   H620    1.079   .     S
C623   H756    1.112   .     S
C623   H757    1.109   .     S
C623   H758    1.112   .     S
In624  O631    2.005   .     S
In624  O635    2.012   .     S
In624  O642    1.954   .     S
In624  O643    1.981   .     S
In625  O629    1.971   .     S
In625  O632    1.961   .     S
In625  O636    2.010   .     S
In625  O640    1.964   .     S
In625  O642    1.952   .     S
In626  O634    1.961   .     S
In626  O639    2.022   .     S
In626  O274    1.988   1_556 A
In626  O539    1.999   1_456 S
In626  O638    2.005   1_455 S
O627   C688    1.275   .     A
O628   C688    1.283   .     A
O628   In537   1.997   1_455 S
O629   C667    1.278   .     A
O630   C667    1.282   .     A
O631   C645    1.287   .     A
O632   C645    1.276   .     A
O633   C656    1.284   .     A
O634   C656    1.277   .     A
O635   C689    1.285   .     A
O636   C689    1.281   .     A
O637   C710    1.288   .     A
O637   In268   2.006   1_655 S
O638   C710    1.287   .     A
O638   In626   2.005   1_655 S
O639   C714    1.213   1_556 S
O640   C711    1.200   .     D
O641   C711    1.196   .     D
O643   H759    0.992   .     S
N644   H760    1.044   .     S
N644   H761    1.044   .     S
N644   H772    1.045   .     S
N644   C712    1.462   1_554 S
C645   C646    1.496   .     S
C646   C647    1.401   .     A
C646   C654    1.412   .     A
C647   H648    1.081   .     S
C647   C649    1.401   .     A
C649   H650    1.083   1_565 S
C649   C651    1.409   1_565 S
H650   C649    1.083   1_545 S
C651   C652    1.407   .     A
C651   C666    1.498   .     S
C651   C649    1.409   1_545 S
C652   H653    1.084   .     S
C652   C654    1.409   1_545 S
C654   H655    1.083   .     S
C654   C652    1.409   1_565 S
C656   C661    1.505   .     S
C657   H658    1.080   .     S
C657   C659    1.392   .     A
C657   C666    1.400   .     A
C659   H660    1.075   .     S
C659   C661    1.405   .     A
C661   C662    1.412   .     A
C662   H663    1.081   .     S
C662   C664    1.415   .     A
C664   H665    1.083   .     S
C664   C666    1.412   .     A
C667   C668    1.497   .     S
C668   C669    1.406   .     A
C668   C676    1.409   .     A
C669   H670    1.079   .     S
C669   C671    1.402   .     A
C671   H672    1.084   .     S
C671   C673    1.409   .     A
C673   C674    1.409   .     A
C673   C678    1.503   .     S
C674   H675    1.082   .     S
C674   C676    1.405   .     A
C676   H677    1.082   .     S
C678   C679    1.411   .     A
C678   C686    1.406   .     A
C679   H680    1.083   .     S
C679   C681    1.408   .     A
C681   H682    1.080   .     S
C681   C683    1.406   .     A
C683   C684    1.411   .     A
C683   C688    1.501   .     S
C684   H685    1.083   .     S
C684   C686    1.399   .     A
C686   H687    1.081   .     S
C689   C690    1.526   .     S
C690   C691    1.405   .     A
C690   C698    1.415   .     A
C691   H692    1.082   .     S
C691   C693    1.411   .     A
C693   H694    1.076   .     S
C693   C695    1.419   1_565 S
C695   C696    1.426   .     A
C695   C700    1.553   .     S
C695   C693    1.419   1_545 S
C696   H697    1.080   .     S
C696   C698    1.426   1_545 S
C698   H699    1.084   .     S
C698   C696    1.426   1_565 S
C700   C701    1.422   .     A
C700   C708    1.424   .     A
C701   H702    1.077   .     S
C701   C703    1.412   .     A
C703   H704    1.083   .     S
C703   C705    1.406   .     A
C705   C706    1.412   .     A
C705   C710    1.523   .     S
C706   H707    1.083   .     S
C706   C708    1.423   .     A
C708   H709    1.079   .     S
C712   H762    1.110   .     S
C712   H763    1.111   .     S
C712   H764    1.112   .     S
C712   N644    1.462   1_556 S
C714   O639    1.213   1_554 S
