data_IYUHIU_ion_b
_audit_creation_date              2014-07-02
_audit_creation_method            'Materials Studio'
_symmetry_space_group_name_H-M    'P1'
_symmetry_Int_Tables_number       1
_symmetry_cell_setting            triclinic
loop_
_symmetry_equiv_pos_as_xyz
  x,y,z
_cell_length_a                    29.7560
_cell_length_b                    14.5284
_cell_length_c                    29.7388
_cell_angle_alpha                 90.0000
_cell_angle_beta                  90.0000
_cell_angle_gamma                 90.0000
loop_
_atom_site_label
_atom_site_type_symbol
_atom_site_fract_x
_atom_site_fract_y
_atom_site_fract_z
_atom_site_U_iso_or_equiv
_atom_site_adp_type
_atom_site_occupancy
In1    In    0.87423   0.13212   0.69376   0.00000  Uiso   1.00
In2    In    0.09532   0.12321   0.91191   0.00000  Uiso   1.00
In3    In    0.69420   0.87096   0.85213   0.00000  Uiso   1.00
O4     O     0.72173  -0.00480   0.83420   0.00000  Uiso   1.00
O5     O     0.12819   0.91884   0.93378   0.00000  Uiso   1.00
O6     O     0.08225   0.87590   0.65835   0.00000  Uiso   1.00
O7     O     0.06605   1.00778   0.94251   0.00000  Uiso   1.00
O8     O     0.14591   0.94648   0.68272   0.00000  Uiso   1.00
O9     O     0.09670   0.03419   0.85965   0.00000  Uiso   1.00
O10    O     0.84738   1.00718   0.71122   0.00000  Uiso   1.00
O11    O     0.93169   0.06710   0.67840   0.00000  Uiso   1.00
O12    O     0.82651   0.11678   0.41552   0.00000  Uiso   1.00
O13    O     0.05686   0.15207   0.85814   0.00000  Uiso   1.00
O14    O     0.75923   0.14563   0.40143   0.00000  Uiso   1.00
O15    O     0.74034   0.82860   0.80939   0.00000  Uiso   1.00
O16    O     0.92534   0.14893   0.73637   0.00000  Uiso   1.00
O17    O     0.83458   0.17395   0.74291   0.00000  Uiso   1.00
O18    O     0.95192   0.82688   0.04808   0.00000  Uiso   1.00
O19    O     0.63861   0.14818   0.53710   0.00000  Uiso   1.00
O20    O     0.68839   0.07582   0.89070   0.00000  Uiso   1.00
O21    O     0.66091   0.09787   0.59803   0.00000  Uiso   1.00
O22    O     0.82946   0.11612   0.64097   0.00000  Uiso   1.00
O23    O     0.87814   0.12939   0.58252   0.00000  Uiso   1.00
O24    O     0.87437   0.92703   0.65121   0.00000  Uiso   1.00
C25    C     0.06977   0.08207   0.83648   0.00000  Uiso   1.00
C26    C     0.72058   0.12539   0.54298   0.00000  Uiso   1.00
C27    C     0.76659   0.16755   0.80949   0.00000  Uiso   1.00
H28    H     0.77912   0.10292   0.79649   0.00000  Uiso   1.00
C29    C     0.08881   0.92243   0.94503   0.00000  Uiso   1.00
C30    C     0.80631   0.83497   0.74100   0.00000  Uiso   1.00
H31    H     0.79392   0.89961   0.75420   0.00000  Uiso   1.00
C32    C     0.75628   0.12202   0.57438   0.00000  Uiso   1.00
H33    H     0.74851   0.11985   0.60994   0.00000  Uiso   1.00
C34    C     0.73131   0.13056   0.49659   0.00000  Uiso   1.00
H35    H     0.70432   0.13328   0.47218   0.00000  Uiso   1.00
C36    C     0.80175   0.12330   0.56056   0.00000  Uiso   1.00
C37    C     0.78777   0.13090   0.43193   0.00000  Uiso   1.00
C38    C     0.83737   0.83594   0.70527   0.00000  Uiso   1.00
C39    C     0.01286   0.09033   0.77288   0.00000  Uiso   1.00
H40    H     0.99132   0.12971   0.79508   0.00000  Uiso   1.00
C41    C     0.71264   0.07717   0.85768   0.00000  Uiso   1.00
C42    C     0.85430   0.92539   0.68696   0.00000  Uiso   1.00
C43    C     0.77660   0.12949   0.48146   0.00000  Uiso   1.00
C44    C     0.81126   0.12608   0.51390   0.00000  Uiso   1.00
H45    H     0.84591   0.12621   0.50270   0.00000  Uiso   1.00
C46    C     0.83919   0.12300   0.59479   0.00000  Uiso   1.00
C47    C     0.67253   0.12344   0.55937   0.00000  Uiso   1.00
C48    C     0.99731   0.06755   0.72921   0.00000  Uiso   1.00
C49    C     0.06599   0.83439   0.96007   0.00000  Uiso   1.00
C50    C     0.95071   0.09566   0.71407   0.00000  Uiso   1.00
C51    C     0.05512   0.05978   0.78900   0.00000  Uiso   1.00
C52    C     0.09908   0.93179   0.68385   0.00000  Uiso   1.00
C53    C     0.02731   0.83329   0.98782   0.00000  Uiso   1.00
H54    H     0.01314   0.89815   0.99871   0.00000  Uiso   1.00
C55    C     0.06921   0.98661   0.71513   0.00000  Uiso   1.00
C56    C     0.73204   0.16647   0.84183   0.00000  Uiso   1.00
C57    C     0.08317   1.00895   0.75942   0.00000  Uiso   1.00
H58    H     0.11584   0.98615   0.77099   0.00000  Uiso   1.00
C59    C     0.02581   1.01500   0.70099   0.00000  Uiso   1.00
H60    H     0.01441   0.99722   0.66753   0.00000  Uiso   1.00
N61    N     0.78662   0.05238   0.17448   0.00000  Uiso   1.00
C62    C     0.78022  -0.02409   0.20556   0.00000  Uiso   1.00
N63    N     0.96410   0.98668   0.56661   0.00000  Uiso   1.00
C64    C     0.98256   0.89938   0.58211   0.00000  Uiso   1.00
N65    N     0.83599   0.94118   0.86243   0.00000  Uiso   1.00
C66    C     0.86331   0.98291   0.82725   0.00000  Uiso   1.00
N67    N     0.57709   0.05452   0.93030   0.00000  Uiso   1.00
C68    C     0.59883   0.12636   0.95669   0.00000  Uiso   1.00
N69    N     0.79100   0.11144   0.95822   0.00000  Uiso   1.00
C70    C     0.76237   0.12471  -0.00255   0.00000  Uiso   1.00
N71    N     0.03625  -0.00990   0.09137   0.00000  Uiso   1.00
C72    C     0.02370   0.06054   0.12393   0.00000  Uiso   1.00
In73   In    0.62406   0.86937   0.19375   0.00000  Uiso   1.00
In74   In    0.40305   0.87628   0.41170   0.00000  Uiso   1.00
In75   In    0.80421   0.13049   0.35193   0.00000  Uiso   1.00
O76    O     0.77700   1.00615   0.33346   0.00000  Uiso   1.00
O77    O     0.37022   0.08066   0.43376   0.00000  Uiso   1.00
O78    O     0.41590   0.12289   0.15749   0.00000  Uiso   1.00
O79    O     0.43235  -0.00832   0.44232   0.00000  Uiso   1.00
O80    O     0.35230   0.05419   0.18323   0.00000  Uiso   1.00
O81    O     0.40158   0.96553   0.35955   0.00000  Uiso   1.00
O82    O     0.65080  -0.00579   0.21150   0.00000  Uiso   1.00
O83    O     0.56661   0.93424   0.17839   0.00000  Uiso   1.00
O84    O     0.67196   0.88507   0.91569   0.00000  Uiso   1.00
O85    O     0.44134   0.84751   0.35779   0.00000  Uiso   1.00
O86    O     0.73916   0.85533   0.90161   0.00000  Uiso   1.00
O87    O     0.75797   0.17302   0.30940   0.00000  Uiso   1.00
O88    O     0.57305   0.85243   0.23640   0.00000  Uiso   1.00
O89    O     0.66363   0.82718   0.24276   0.00000  Uiso   1.00
O90    O     0.54645   0.17286   0.54804   0.00000  Uiso   1.00
O91    O     0.85977   0.85276   0.03713   0.00000  Uiso   1.00
O92    O     0.80670   0.92676   0.39230   0.00000  Uiso   1.00
O93    O     0.83754   0.90192   0.09833   0.00000  Uiso   1.00
O94    O     0.66888   0.88581   0.14103   0.00000  Uiso   1.00
O95    O     0.62035   0.87183   0.08249   0.00000  Uiso   1.00
O96    O     0.62379   0.07438   0.15153   0.00000  Uiso   1.00
C97    C     0.42846   0.91773   0.33628   0.00000  Uiso   1.00
C98    C     0.77787   0.87583   0.04316   0.00000  Uiso   1.00
C99    C     0.73149   0.83373   0.30912   0.00000  Uiso   1.00
H100   H     0.71904   0.89826   0.29597   0.00000  Uiso   1.00
C101   C     0.40963   0.07703   0.44488   0.00000  Uiso   1.00
C102   C     0.69187   0.16650   0.24122   0.00000  Uiso   1.00
H103   H     0.70429   0.10190   0.25444   0.00000  Uiso   1.00
C104   C     0.74219   0.87955   0.07455   0.00000  Uiso   1.00
H105   H     0.74994   0.88107   0.11012   0.00000  Uiso   1.00
C106   C     0.76716   0.87079   0.99676   0.00000  Uiso   1.00
H107   H     0.79414   0.86728   0.97237   0.00000  Uiso   1.00
C108   C     0.69673   0.87930   0.06068   0.00000  Uiso   1.00
C109   C     0.71069   0.87085   0.93210   0.00000  Uiso   1.00
C110   C     0.66075   0.16544   0.20556   0.00000  Uiso   1.00
C111   C     0.48548   0.91032   0.27280   0.00000  Uiso   1.00
H112   H     0.50704   0.87090   0.29497   0.00000  Uiso   1.00
C113   C     0.78451   0.92471   0.35792   0.00000  Uiso   1.00
C114   C     0.64386   0.07601   0.18726   0.00000  Uiso   1.00
C115   C     0.72190   0.87294   0.98161   0.00000  Uiso   1.00
C116   C     0.68728   0.87770   0.01402   0.00000  Uiso   1.00
H117   H     0.65270   0.87958   0.00278   0.00000  Uiso   1.00
C118   C     0.65925   0.87901   0.09483   0.00000  Uiso   1.00
C119   C     0.82590   0.87711   0.05955   0.00000  Uiso   1.00
C120   C     0.50107   0.93352   0.22920   0.00000  Uiso   1.00
C121   C     0.43253   0.16509   0.45984   0.00000  Uiso   1.00
C122   C     0.54766   0.90563   0.21409   0.00000  Uiso   1.00
C123   C     0.44315   0.94047   0.28887   0.00000  Uiso   1.00
C124   C     0.39916   0.06825   0.18369   0.00000  Uiso   1.00
C125   C     0.47108   0.16620   0.48779   0.00000  Uiso   1.00
H126   H     0.48507   0.10131   0.49895   0.00000  Uiso   1.00
C127   C     0.42913   0.01405   0.21508   0.00000  Uiso   1.00
C128   C     0.76571   0.83516   0.34175   0.00000  Uiso   1.00
C129   C     0.41509  -0.00867   0.25931   0.00000  Uiso   1.00
H130   H     0.38235   0.01375   0.27083   0.00000  Uiso   1.00
C131   C     0.47261  -0.01387   0.20100   0.00000  Uiso   1.00
H132   H     0.48407   0.00422   0.16756   0.00000  Uiso   1.00
N133   N     0.71185   0.94876   0.67502   0.00000  Uiso   1.00
C134   C     0.71832   1.02573   0.70578   0.00000  Uiso   1.00
N135   N     0.54810   0.03289   0.06501   0.00000  Uiso   1.00
C136   C     0.52095   0.11158   0.07859   0.00000  Uiso   1.00
N137   N     0.66343   0.05242   0.36528   0.00000  Uiso   1.00
C138   C     0.63592   0.01678   0.32867   0.00000  Uiso   1.00
N139   N     0.94581   0.93320   0.45003   0.00000  Uiso   1.00
C140   C     0.90234   0.91278   0.42996   0.00000  Uiso   1.00
N141   N     0.72207   0.87882   0.46756   0.00000  Uiso   1.00
C142   C     0.75680   0.88741   0.50188   0.00000  Uiso   1.00
N143   N     0.46978   0.95575   0.61629   0.00000  Uiso   1.00
C144   C     0.49393   0.88691   0.64243   0.00000  Uiso   1.00
In145  In    0.12449   0.63105   0.30719   0.00000  Uiso   1.00
In146  In    0.90327   0.62305   0.08851   0.00000  Uiso   1.00
In147  In    0.30449   0.37008   0.14865   0.00000  Uiso   1.00
O148   O     0.27697   0.49439   0.16657   0.00000  Uiso   1.00
O149   O     0.87017   0.41873   0.06629   0.00000  Uiso   1.00
O150   O     0.91591   0.37960   0.34384   0.00000  Uiso   1.00
O151   O     0.93236   0.50754   0.05784   0.00000  Uiso   1.00
O152   O     0.85230   0.44668   0.31715   0.00000  Uiso   1.00
O153   O     0.90174   0.53363   0.14062   0.00000  Uiso   1.00
O154   O     0.15157   0.50670   0.28933   0.00000  Uiso   1.00
O155   O     0.06586   0.57071   0.32328   0.00000  Uiso   1.00
O156   O     0.17168   0.61602   0.58482   0.00000  Uiso   1.00
O157   O     0.94179   0.65119   0.14229   0.00000  Uiso   1.00
O158   O     0.23892   0.64493   0.59906   0.00000  Uiso   1.00
O159   O     0.25826   0.32781   0.19130   0.00000  Uiso   1.00
O160   O     0.07474   0.64129   0.26241   0.00000  Uiso   1.00
O161   O     0.16521   0.67409   0.25916   0.00000  Uiso   1.00
O162   O     0.04684   0.32670   0.95270   0.00000  Uiso   1.00
O163   O     0.35980   0.64593   0.46362   0.00000  Uiso   1.00
O164   O     0.31180   0.57580   0.11128   0.00000  Uiso   1.00
O165   O     0.33745   0.59808   0.40220   0.00000  Uiso   1.00
O166   O     0.16770   0.60457   0.36034   0.00000  Uiso   1.00
O167   O     0.12123   0.64364   0.41774   0.00000  Uiso   1.00
O168   O     0.12028   0.42485   0.34659   0.00000  Uiso   1.00
C169   C     0.92881   0.58111   0.16383   0.00000  Uiso   1.00
C170   C     0.27782   0.62390   0.45749   0.00000  Uiso   1.00
C171   C     0.23265   0.66710   0.19191   0.00000  Uiso   1.00
H172   H     0.22020   0.60250   0.20500   0.00000  Uiso   1.00
C173   C     0.90959   0.42228   0.05522   0.00000  Uiso   1.00
C174   C     0.19112   0.33409   0.25853   0.00000  Uiso   1.00
H175   H     0.20318   0.39878   0.24506   0.00000  Uiso   1.00
C176   C     0.24214   0.62077   0.42608   0.00000  Uiso   1.00
H177   H     0.24983   0.61868   0.39050   0.00000  Uiso   1.00
C178   C     0.26708   0.62913   0.50390   0.00000  Uiso   1.00
H179   H     0.29405   0.63150   0.52833   0.00000  Uiso   1.00
C180   C     0.19671   0.62321   0.43991   0.00000  Uiso   1.00
C181   C     0.21047   0.63014   0.56850   0.00000  Uiso   1.00
C182   C     0.15975   0.33493   0.29399   0.00000  Uiso   1.00
C183   C     0.98610   0.58780   0.22708   0.00000  Uiso   1.00
H184   H     0.00782   0.62638   0.20472   0.00000  Uiso   1.00
C185   C     0.28679   0.57678   0.14374   0.00000  Uiso   1.00
C186   C     0.14243   0.42408   0.31210   0.00000  Uiso   1.00
C187   C     0.22177   0.62877   0.51901   0.00000  Uiso   1.00
C188   C     0.18716   0.62633   0.48654   0.00000  Uiso   1.00
H189   H     0.15249   0.62729   0.49769   0.00000  Uiso   1.00
C190   C     0.15928   0.62476   0.40583   0.00000  Uiso   1.00
C191   C     0.32587   0.62223   0.44110   0.00000  Uiso   1.00
C192   C     0.00155   0.56552   0.27085   0.00000  Uiso   1.00
C193   C     0.93248   0.33420   0.04028   0.00000  Uiso   1.00
C194   C     0.04812   0.59357   0.28606   0.00000  Uiso   1.00
C195   C     0.94357   0.55832   0.21122   0.00000  Uiso   1.00
C196   C     0.89920   0.43303   0.31703   0.00000  Uiso   1.00
C197   C     0.97131   0.33308   0.01275   0.00000  Uiso   1.00
H198   H     0.98555   0.39790   0.00192   0.00000  Uiso   1.00
C199   C     0.92928   0.48638   0.28534   0.00000  Uiso   1.00
C200   C     0.26722   0.66601   0.15956   0.00000  Uiso   1.00
C201   C     0.91530   0.50855   0.24102   0.00000  Uiso   1.00
H202   H     0.88244   0.48658   0.22961   0.00000  Uiso   1.00
C203   C     0.97286   0.51398   0.29927   0.00000  Uiso   1.00
H204   H     0.98432   0.49605   0.33269   0.00000  Uiso   1.00
N205   N     0.21244   0.54929   0.82431   0.00000  Uiso   1.00
C206   C     0.21846   0.47088   0.79434   0.00000  Uiso   1.00
N207   N     0.07200   0.46155   0.44815   0.00000  Uiso   1.00
C208   C     0.05821   0.36546   0.44582   0.00000  Uiso   1.00
N209   N     0.16412   0.45981   0.13793   0.00000  Uiso   1.00
C210   C     0.13367   0.48830   0.17368   0.00000  Uiso   1.00
N211   N     0.46019   0.55599   0.06511   0.00000  Uiso   1.00
C212   C     0.41523   0.51713   0.06116   0.00000  Uiso   1.00
N213   N     0.21167   0.59701   0.04068   0.00000  Uiso   1.00
C214   C     0.23596   0.62695   1.00073   0.00000  Uiso   1.00
N215   N     0.95842   0.48711   0.91434   0.00000  Uiso   1.00
C216   C     0.97119   0.55360   0.87995   0.00000  Uiso   1.00
In217  In    0.37402   0.36886   0.80716   0.00000  Uiso   1.00
In218  In    0.59499   0.37703   0.58843   0.00000  Uiso   1.00
In219  In    0.19385   0.62970   0.64848   0.00000  Uiso   1.00
O220   O     0.22127   0.50560   0.66701   0.00000  Uiso   1.00
O221   O     0.62796   0.58147   0.56649   0.00000  Uiso   1.00
O222   O     0.58218   0.62370   0.84281   0.00000  Uiso   1.00
O223   O     0.56583   0.49252   0.55780   0.00000  Uiso   1.00
O224   O     0.64576   0.55508   0.81695   0.00000  Uiso   1.00
O225   O     0.59649   0.46669   0.64042   0.00000  Uiso   1.00
O226   O     0.34656   0.49274   0.78889   0.00000  Uiso   1.00
O227   O     0.43256   0.42972   0.82315   0.00000  Uiso   1.00
O228   O     0.32667   0.38345   0.08504   0.00000  Uiso   1.00
O229   O     0.55651   0.34901   0.64226   0.00000  Uiso   1.00
O230   O     0.25943   0.35434   0.09921   0.00000  Uiso   1.00
O231   O     0.24021   0.67220   0.69085   0.00000  Uiso   1.00
O232   O     0.42385   0.35867   0.76242   0.00000  Uiso   1.00
O233   O     0.33326   0.32552   0.75920   0.00000  Uiso   1.00
O234   O     0.45164   0.67318   0.45265   0.00000  Uiso   1.00
O235   O     0.13885   0.35326   0.96359   0.00000  Uiso   1.00
O236   O     0.18851   0.42489   0.61026   0.00000  Uiso   1.00
O237   O     0.16115   0.40158   0.90226   0.00000  Uiso   1.00
O238   O     0.33126   0.39566   0.86065   0.00000  Uiso   1.00
O239   O     0.37768   0.35570   0.91806   0.00000  Uiso   1.00
O240   O     0.37777   0.57493   0.84604   0.00000  Uiso   1.00
C241   C     0.56949   0.41923   0.66370   0.00000  Uiso   1.00
C242   C     0.22084   0.37530   0.95751   0.00000  Uiso   1.00
C243   C     0.26593   0.33267   0.69204   0.00000  Uiso   1.00
H244   H     0.27837   0.39717   0.70525   0.00000  Uiso   1.00
C245   C     0.58856   0.57789   0.55536   0.00000  Uiso   1.00
C246   C     0.30709   0.66579   0.75807   0.00000  Uiso   1.00
H247   H     0.29463   0.60117   0.74491   0.00000  Uiso   1.00
C248   C     0.25662   0.37867   0.92617   0.00000  Uiso   1.00
H249   H     0.24898   0.38095   0.89059   0.00000  Uiso   1.00
C250   C     0.23150   0.36985   0.00393   0.00000  Uiso   1.00
H251   H     0.20449   0.36729   0.02831   0.00000  Uiso   1.00
C252   C     0.30205   0.37621   0.94010   0.00000  Uiso   1.00
C253   C     0.28794   0.36912   0.06867   0.00000  Uiso   1.00
C254   C     0.33858   0.66475   0.79337   0.00000  Uiso   1.00
C255   C     0.51239   0.41234   0.72708   0.00000  Uiso   1.00
H256   H     0.49082   0.37301   0.70488   0.00000  Uiso   1.00
C257   C     0.21234   0.42351   0.64357   0.00000  Uiso   1.00
C258   C     0.35571   0.57555   0.81153   0.00000  Uiso   1.00
C259   C     0.27677   0.37046   0.01914   0.00000  Uiso   1.00
C260   C     0.31146   0.37308   0.98675   0.00000  Uiso   1.00
H261   H     0.34611   0.37221   0.99798   0.00000  Uiso   1.00
C262   C     0.33963   0.37479   0.90611   0.00000  Uiso   1.00
C263   C     0.17278   0.37710   0.94111   0.00000  Uiso   1.00
C264   C     0.49685   0.43526   0.77071   0.00000  Uiso   1.00
C265   C     0.56562   0.66596   0.54054   0.00000  Uiso   1.00
C266   C     0.45036   0.40683   0.78597   0.00000  Uiso   1.00
C267   C     0.55478   0.44225   0.71107   0.00000  Uiso   1.00
C268   C     0.59890   0.56939   0.81643   0.00000  Uiso   1.00
C269   C     0.52698   0.66706   0.51277   0.00000  Uiso   1.00
H270   H     0.51293   0.60221   0.50173   0.00000  Uiso   1.00
C271   C     0.56888   0.51552   0.78491   0.00000  Uiso   1.00
C272   C     0.23149   0.33408   0.65959   0.00000  Uiso   1.00
C273   C     0.58293   0.49279   0.74068   0.00000  Uiso   1.00
H274   H     0.61573   0.51497   0.72921   0.00000  Uiso   1.00
C275   C     0.52532   0.48788   0.79889   0.00000  Uiso   1.00
H276   H     0.51371   0.50660   0.83214   0.00000  Uiso   1.00
N277   N     0.28582   0.44860   0.32508   0.00000  Uiso   1.00
C278   C     0.28006   0.52593   0.29439   0.00000  Uiso   1.00
N279   N     0.42761   0.54631   0.93785   0.00000  Uiso   1.00
C280   C     0.44067   0.64249   0.94265   0.00000  Uiso   1.00
N281   N     0.33422   0.54355   0.63557   0.00000  Uiso   1.00
C282   C     0.36326   0.51283   0.67205   0.00000  Uiso   1.00
N283   N     0.04813   0.47864   0.56697   0.00000  Uiso   1.00
C284   C     0.08650   0.41818   0.57383   0.00000  Uiso   1.00
N285   N     0.27332   0.37866   0.53371   0.00000  Uiso   1.00
C286   C     0.23767   0.38625   0.50028   0.00000  Uiso   1.00
N287   N     0.53821   0.51063   0.41245   0.00000  Uiso   1.00
C288   C     0.52584   0.44306   0.37841   0.00000  Uiso   1.00
In289  In    0.12423   0.86994   0.30638   0.00000  Uiso   1.00
In290  In    0.90330   0.87472   0.08875   0.00000  Uiso   1.00
In291  In    0.30436   0.13118   0.14844   0.00000  Uiso   1.00
O292   O     0.27644   1.00728   0.16643   0.00000  Uiso   1.00
O293   O     0.87027   0.07894   0.06641   0.00000  Uiso   1.00
O294   O     0.91583   0.12175   0.34298   0.00000  Uiso   1.00
O295   O     0.93256  -0.00977   0.05819   0.00000  Uiso   1.00
O296   O     0.85218   0.05294   0.31745   0.00000  Uiso   1.00
O297   O     0.90175   0.96439   0.14075   0.00000  Uiso   1.00
O298   O     0.15062  -0.00534   0.28828   0.00000  Uiso   1.00
O299   O     0.06668   0.93425   0.32189   0.00000  Uiso   1.00
O300   O     0.17162   0.88160   0.58465   0.00000  Uiso   1.00
O301   O     0.94157   0.84650   0.14271   0.00000  Uiso   1.00
O302   O     0.23892   0.85348   0.59869   0.00000  Uiso   1.00
O303   O     0.25789   0.17361   0.19083   0.00000  Uiso   1.00
O304   O     0.07300   0.85155   0.26416   0.00000  Uiso   1.00
O305   O     0.16370   0.82840   0.25725   0.00000  Uiso   1.00
O306   O     0.04681   0.17074   0.95274   0.00000  Uiso   1.00
O307   O     0.35943   0.85232   0.46302   0.00000  Uiso   1.00
O308   O     0.31232   0.92567   0.11196   0.00000  Uiso   1.00
O309   O     0.33736   0.90482   0.40242   0.00000  Uiso   1.00
O310   O     0.16903   0.88685   0.35908   0.00000  Uiso   1.00
O311   O     0.12012   0.87754   0.41749   0.00000  Uiso   1.00
O312   O     0.12395   0.07439   0.34855   0.00000  Uiso   1.00
C313   C     0.92860   0.91675   0.16413   0.00000  Uiso   1.00
C314   C     0.27759   0.87617   0.45721   0.00000  Uiso   1.00
C315   C     0.23259   0.83433   0.19186   0.00000  Uiso   1.00
H316   H     0.22020   0.89893   0.20497   0.00000  Uiso   1.00
C317   C     0.90971   0.07543   0.05542   0.00000  Uiso   1.00
C318   C     0.19191   0.16695   0.25905   0.00000  Uiso   1.00
H319   H     0.20483   0.10246   0.24621   0.00000  Uiso   1.00
C320   C     0.24196   0.88084   0.42582   0.00000  Uiso   1.00
H321   H     0.24978   0.88415   0.39029   0.00000  Uiso   1.00
C322   C     0.26682   0.86941   0.50354   0.00000  Uiso   1.00
H323   H     0.29379   0.86560   0.52793   0.00000  Uiso   1.00
C324   C     0.19648   0.87942   0.43957   0.00000  Uiso   1.00
C325   C     0.21036   0.86807   0.56819   0.00000  Uiso   1.00
C326   C     0.16046   0.16569   0.29439   0.00000  Uiso   1.00
C327   C     0.98548   0.90945   0.22769   0.00000  Uiso   1.00
H328   H     0.00712   0.87024   0.20550   0.00000  Uiso   1.00
C329   C     0.28677   0.92476   0.14395   0.00000  Uiso   1.00
C330   C     0.14378   0.07624   0.31269   0.00000  Uiso   1.00
C331   C     0.22153   0.87042   0.51865   0.00000  Uiso   1.00
C332   C     0.18691   0.87507   0.48619   0.00000  Uiso   1.00
H333   H     0.15225   0.87450   0.49733   0.00000  Uiso   1.00
C334   C     0.15915   0.88128   0.40527   0.00000  Uiso   1.00
C335   C     0.32564   0.87813   0.44088   0.00000  Uiso   1.00
C336   C     0.00098   0.93249   0.27132   0.00000  Uiso   1.00
C337   C     0.93256   0.16351   0.04042   0.00000  Uiso   1.00
C338   C     0.04762   0.90494   0.28640   0.00000  Uiso   1.00
C339   C     0.94316   0.93956   0.21157   0.00000  Uiso   1.00
C340   C     0.89904   0.06711   0.31682   0.00000  Uiso   1.00
C341   C     0.97141   0.16457   0.01291   0.00000  Uiso   1.00
H342   H     0.98570   0.09969   0.00223   0.00000  Uiso   1.00
C343   C     0.92898   0.01283   0.28542   0.00000  Uiso   1.00
C344   C     0.26719   0.83548   0.15960   0.00000  Uiso   1.00
C345   C     0.91502  -0.00973   0.24113   0.00000  Uiso   1.00
H346   H     0.88230   0.01270   0.22955   0.00000  Uiso   1.00
C347   C     0.97244  -0.01514   0.29954   0.00000  Uiso   1.00
H348   H     0.98386   0.00286   0.33301   0.00000  Uiso   1.00
N349   N     0.21287   0.95016   0.82286   0.00000  Uiso   1.00
C350   C     0.21890   1.02943   0.79343   0.00000  Uiso   1.00
N351   N     0.04940   0.05143   0.43367   0.00000  Uiso   1.00
C352   C     0.02288   0.13076   0.41972   0.00000  Uiso   1.00
N353   N     0.16221   0.06872   0.13575   0.00000  Uiso   1.00
C354   C     0.13790   0.01735   0.17010   0.00000  Uiso   1.00
N355   N     0.44498   0.91507   0.03603   0.00000  Uiso   1.00
C356   C     0.40557   0.93500   0.06337   0.00000  Uiso   1.00
N357   N     0.19224   0.88467   0.04281   0.00000  Uiso   1.00
C358   C     0.23841   0.87656   1.02696   0.00000  Uiso   1.00
N359   N     0.96093   1.01070   0.91187   0.00000  Uiso   1.00
C360   C     0.97298   0.94359   0.87749   0.00000  Uiso   1.00
In361  In    0.37432   0.12973   0.80636   0.00000  Uiso   1.00
In362  In    0.59513   0.12553   0.58873   0.00000  Uiso   1.00
In363  In    0.19393   0.86879   0.64824   0.00000  Uiso   1.00
O364   O     0.22157  -0.00697   0.66613   0.00000  Uiso   1.00
O365   O     0.62781   0.92114   0.56669   0.00000  Uiso   1.00
O366   O     0.58296   0.87573   0.84132   0.00000  Uiso   1.00
O367   O     0.56553   1.00993   0.55857   0.00000  Uiso   1.00
O368   O     0.64625   0.94881   0.81785   0.00000  Uiso   1.00
O369   O     0.59700   0.03646   0.64086   0.00000  Uiso   1.00
O370   O     0.34786   1.00523   0.78803   0.00000  Uiso   1.00
O371   O     0.43191   0.06550   0.82179   0.00000  Uiso   1.00
O372   O     0.32681   0.11633   0.08491   0.00000  Uiso   1.00
O373   O     0.55690   0.15407   0.64262   0.00000  Uiso   1.00
O374   O     0.25972   0.14742   0.09870   0.00000  Uiso   1.00
O375   O     0.24040   0.82641   0.69056   0.00000  Uiso   1.00
O376   O     0.42554   0.14850   0.76417   0.00000  Uiso   1.00
O377   O     0.33481   0.17120   0.75724   0.00000  Uiso   1.00
O378   O     0.45159   0.82908   0.45254   0.00000  Uiso   1.00
O379   O     0.13902   0.14662   0.96325   0.00000  Uiso   1.00
O380   O     0.18629   0.07486   0.61127   0.00000  Uiso   1.00
O381   O     0.16103   0.09466   0.90254   0.00000  Uiso   1.00
O382   O     0.32962   0.11228   0.85915   0.00000  Uiso   1.00
O383   O     0.37841   0.12412   0.91755   0.00000  Uiso   1.00
O384   O     0.37510   0.92475   0.84779   0.00000  Uiso   1.00
C385   C     0.57004   0.08406   0.66413   0.00000  Uiso   1.00
C386   C     0.22090   0.12265   0.95737   0.00000  Uiso   1.00
C387   C     0.26615   0.16537   0.69142   0.00000  Uiso   1.00
H388   H     0.27885   0.10056   0.70410   0.00000  Uiso   1.00
C389   C     0.58834   0.92469   0.55575   0.00000  Uiso   1.00
C390   C     0.30717   0.83300   0.75802   0.00000  Uiso   1.00
H391   H     0.29487   0.89766   0.74470   0.00000  Uiso   1.00
C392   C     0.25654   0.11836   0.92593   0.00000  Uiso   1.00
H393   H     0.24870   0.11528   0.89041   0.00000  Uiso   1.00
C394   C     0.23172   0.12914   0.00370   0.00000  Uiso   1.00
H395   H     0.20478   0.13252   0.02814   0.00000  Uiso   1.00
C396   C     0.30204   0.12005   0.93965   0.00000  Uiso   1.00
C397   C     0.28821   0.13123   0.06832   0.00000  Uiso   1.00
C398   C     0.33842   0.83402   0.79354   0.00000  Uiso   1.00
C399   C     0.51308   0.09098   0.72759   0.00000  Uiso   1.00
H400   H     0.49144   0.13028   0.70546   0.00000  Uiso   1.00
C401   C     0.21163   0.07555   0.64348   0.00000  Uiso   1.00
C402   C     0.35508   0.92331   0.81202   0.00000  Uiso   1.00
C403   C     0.27704   0.12869   0.01877   0.00000  Uiso   1.00
C404   C     0.31164   0.12424   0.98629   0.00000  Uiso   1.00
H405   H     0.34631   0.12480   0.99742   0.00000  Uiso   1.00
C406   C     0.33941   0.11884   0.90534   0.00000  Uiso   1.00
C407   C     0.17281   0.12092   0.94105   0.00000  Uiso   1.00
C408   C     0.49758   0.06762   0.77118   0.00000  Uiso   1.00
C409   C     0.56546   0.83667   0.54076   0.00000  Uiso   1.00
C410   C     0.45094   0.09502   0.78632   0.00000  Uiso   1.00
C411   C     0.55546   0.06120   0.71150   0.00000  Uiso   1.00
C412   C     0.59958   0.93272   0.81629   0.00000  Uiso   1.00
C413   C     0.52673   0.83559   0.51309   0.00000  Uiso   1.00
H414   H     0.51235   0.90050   0.50249   0.00000  Uiso   1.00
C415   C     0.56962   0.98738   0.78513   0.00000  Uiso   1.00
C416   C     0.23140   0.16462   0.65926   0.00000  Uiso   1.00
C417   C     0.58360   1.01037   0.74094   0.00000  Uiso   1.00
H418   H     0.61635   0.98809   0.72935   0.00000  Uiso   1.00
C419   C     0.52616   1.01510   0.79929   0.00000  Uiso   1.00
H420   H     0.51480   0.99686   0.83271   0.00000  Uiso   1.00
N421   N     0.28616   0.04945   0.32378   0.00000  Uiso   1.00
C422   C     0.27981  -0.02934   0.29411   0.00000  Uiso   1.00
N423   N     0.46175   0.96974   0.91365   0.00000  Uiso   1.00
C424   C     0.48099   0.87793   0.91001   0.00000  Uiso   1.00
N425   N     0.34009   0.92925   0.64104   0.00000  Uiso   1.00
C426   C     0.36828   0.98516   0.67035   0.00000  Uiso   1.00
N427   N     0.07431   0.11839   0.55769   0.00000  Uiso   1.00
C428   C     0.09492   0.02836   0.55176   0.00000  Uiso   1.00
N429   N     0.29242   0.08383   0.54949   0.00000  Uiso   1.00
C430   C     0.26466   0.12571   0.51470   0.00000  Uiso   1.00
N431   N     0.53541  -0.01006   0.40881   0.00000  Uiso   1.00
C432   C     0.52377   0.05914   0.37529   0.00000  Uiso   1.00
In433  In    0.87396   0.37040   0.69383   0.00000  Uiso   1.00
In434  In    0.09529   0.37480   0.91193   0.00000  Uiso   1.00
In435  In    0.69390   0.63165   0.85175   0.00000  Uiso   1.00
O436   O     0.72097   0.50706   0.83353   0.00000  Uiso   1.00
O437   O     0.12830   0.57916   0.93398   0.00000  Uiso   1.00
O438   O     0.08226   0.62534   0.65922   0.00000  Uiso   1.00
O439   O     0.06609   0.49032   0.94251   0.00000  Uiso   1.00
O440   O     0.14561   0.55237   0.68273   0.00000  Uiso   1.00
O441   O     0.09671   0.46440   0.85993   0.00000  Uiso   1.00
O442   O     0.84730   0.49533   0.71164   0.00000  Uiso   1.00
O443   O     0.93137   0.43579   0.67888   0.00000  Uiso   1.00
O444   O     0.82651   0.38389   0.41553   0.00000  Uiso   1.00
O445   O     0.05661   0.34692   0.85819   0.00000  Uiso   1.00
O446   O     0.75929   0.35417   0.40146   0.00000  Uiso   1.00
O447   O     0.74015   0.67436   0.80919   0.00000  Uiso   1.00
O448   O     0.92494   0.35273   0.73646   0.00000  Uiso   1.00
O449   O     0.83425   0.32847   0.74276   0.00000  Uiso   1.00
O450   O     0.95191   0.67089   0.04791   0.00000  Uiso   1.00
O451   O     0.63850   0.35440   0.53686   0.00000  Uiso   1.00
O452   O     0.68799   0.42657   0.89030   0.00000  Uiso   1.00
O453   O     0.66077   0.40423   0.59793   0.00000  Uiso   1.00
O454   O     0.82918   0.38668   0.64106   0.00000  Uiso   1.00
O455   O     0.87785   0.37249   0.58271   0.00000  Uiso   1.00
O456   O     0.87334   0.57496   0.65110   0.00000  Uiso   1.00
C457   C     0.06961   0.41705   0.83670   0.00000  Uiso   1.00
C458   C     0.72045   0.37675   0.54292   0.00000  Uiso   1.00
C459   C     0.76629   0.33476   0.80919   0.00000  Uiso   1.00
H460   H     0.77852   0.39935   0.79592   0.00000  Uiso   1.00
C461   C     0.08888   0.57562   0.94510   0.00000  Uiso   1.00
C462   C     0.80634   0.66781   0.74123   0.00000  Uiso   1.00
H463   H     0.79403   0.60326   0.75463   0.00000  Uiso   1.00
C464   C     0.75608   0.38064   0.57436   0.00000  Uiso   1.00
H465   H     0.74827   0.38340   0.60990   0.00000  Uiso   1.00
C466   C     0.73125   0.37056   0.49658   0.00000  Uiso   1.00
H467   H     0.70429   0.36720   0.47215   0.00000  Uiso   1.00
C468   C     0.80157   0.37897   0.56062   0.00000  Uiso   1.00
C469   C     0.78779   0.36952   0.43195   0.00000  Uiso   1.00
C470   C     0.83728   0.66653   0.70544   0.00000  Uiso   1.00
C471   C     0.01254   0.41020   0.77319   0.00000  Uiso   1.00
H472   H     0.99095   0.37062   0.79526   0.00000  Uiso   1.00
C473   C     0.71215   0.42517   0.85721   0.00000  Uiso   1.00
C474   C     0.85389   0.57695   0.68714   0.00000  Uiso   1.00
C475   C     0.77657   0.37160   0.48149   0.00000  Uiso   1.00
C476   C     0.81116   0.37560   0.51398   0.00000  Uiso   1.00
H477   H     0.84583   0.37524   0.50284   0.00000  Uiso   1.00
C478   C     0.83891   0.37931   0.59491   0.00000  Uiso   1.00
C479   C     0.67239   0.37884   0.55924   0.00000  Uiso   1.00
C480   C     0.99693   0.43398   0.72967   0.00000  Uiso   1.00
C481   C     0.06602   0.66366   0.96009   0.00000  Uiso   1.00
C482   C     0.95032   0.40643   0.71443   0.00000  Uiso   1.00
C483   C     0.05491   0.44007   0.78931   0.00000  Uiso   1.00
C484   C     0.09893   0.56859   0.68437   0.00000  Uiso   1.00
C485   C     0.02732   0.66474   0.98780   0.00000  Uiso   1.00
H486   H     0.01315   0.59984   0.99865   0.00000  Uiso   1.00
C487   C     0.06898   0.51415   0.71567   0.00000  Uiso   1.00
C488   C     0.73177   0.33588   0.84157   0.00000  Uiso   1.00
C489   C     0.08306   0.49087   0.75981   0.00000  Uiso   1.00
H490   H     0.11586   0.51295   0.77135   0.00000  Uiso   1.00
C491   C     0.02540   0.48691   0.70164   0.00000  Uiso   1.00
H492   H     0.01384   0.50597   0.66839   0.00000  Uiso   1.00
N493   N     0.78593   0.45062   0.17594   0.00000  Uiso   1.00
C494   C     0.77993   0.52833   0.20635   0.00000  Uiso   1.00
N495   N     0.93604   0.55347   0.56499   0.00000  Uiso   1.00
C496   C     0.95009   0.64954   0.56427   0.00000  Uiso   1.00
N497   N     0.83486   0.55657   0.86280   0.00000  Uiso   1.00
C498   C     0.86250   0.51293   0.82843   0.00000  Uiso   1.00
N499   N     0.53955   0.47078   0.93964   0.00000  Uiso   1.00
C500   C     0.58428   0.43368   0.93142   0.00000  Uiso   1.00
N501   N     0.83351   0.37550   0.95162   0.00000  Uiso   1.00
C502   C     0.78617   0.39218  -0.03880   0.00000  Uiso   1.00
N503   N     0.03382   0.50204   0.09380   0.00000  Uiso   1.00
C504   C     0.02109   0.42905   0.12494   0.00000  Uiso   1.00
In505  In    0.62422   0.63077   0.19352   0.00000  Uiso   1.00
In506  In    0.40327   0.62478   0.41187   0.00000  Uiso   1.00
In507  In    0.80426   0.36984   0.35196   0.00000  Uiso   1.00
O508   O     0.77679   0.49432   0.33407   0.00000  Uiso   1.00
O509   O     0.37035   0.42031   0.43350   0.00000  Uiso   1.00
O510   O     0.41616   0.37482   0.15902   0.00000  Uiso   1.00
O511   O     0.43247   0.50920   0.44236   0.00000  Uiso   1.00
O512   O     0.35278   0.44696   0.18308   0.00000  Uiso   1.00
O513   O     0.40181   0.53518   0.35991   0.00000  Uiso   1.00
O514   O     0.65119   0.50615   0.21132   0.00000  Uiso   1.00
O515   O     0.56679   0.56545   0.17853   0.00000  Uiso   1.00
O516   O     0.67171   0.61765   0.91534   0.00000  Uiso   1.00
O517   O     0.44203   0.65257   0.35822   0.00000  Uiso   1.00
O518   O     0.73903   0.64615   0.90116   0.00000  Uiso   1.00
O519   O     0.75803   0.32726   0.30933   0.00000  Uiso   1.00
O520   O     0.57334   0.64786   0.23633   0.00000  Uiso   1.00
O521   O     0.66410   0.67265   0.24235   0.00000  Uiso   1.00
O522   O     0.54646   0.32881   0.54779   0.00000  Uiso   1.00
O523   O     0.85984   0.64594   0.03690   0.00000  Uiso   1.00
O524   O     0.81038   0.57540   0.39027   0.00000  Uiso   1.00
O525   O     0.83744   0.59580   0.09786   0.00000  Uiso   1.00
O526   O     0.66864   0.61391   0.14050   0.00000  Uiso   1.00
O527   O     0.62062   0.63746   0.08227   0.00000  Uiso   1.00
O528   O     0.62429   0.42582   0.15140   0.00000  Uiso   1.00
C529   C     0.42896   0.58248   0.33672   0.00000  Uiso   1.00
C530   C     0.77785   0.62361   0.04272   0.00000  Uiso   1.00
C531   C     0.73179   0.66650   0.30918   0.00000  Uiso   1.00
H532   H     0.71951   0.60180   0.29604   0.00000  Uiso   1.00
C533   C     0.40971   0.42387   0.44477   0.00000  Uiso   1.00
C534   C     0.69196   0.33365   0.24121   0.00000  Uiso   1.00
H535   H     0.70443   0.39822   0.25442   0.00000  Uiso   1.00
C536   C     0.74215   0.62105   0.07412   0.00000  Uiso   1.00
H537   H     0.74989   0.61906   0.10969   0.00000  Uiso   1.00
C538   C     0.76714   0.62916   0.99632   0.00000  Uiso   1.00
H539   H     0.79413   0.63165   0.97191   0.00000  Uiso   1.00
C540   C     0.69669   0.62349   0.06030   0.00000  Uiso   1.00
C541   C     0.71053   0.63121   0.93170   0.00000  Uiso   1.00
C542   C     0.66089   0.33479   0.20555   0.00000  Uiso   1.00
C543   C     0.48591   0.58967   0.27318   0.00000  Uiso   1.00
H544   H     0.50747   0.62939   0.29523   0.00000  Uiso   1.00
C545   C     0.78591   0.57649   0.35742   0.00000  Uiso   1.00
C546   C     0.64420   0.42424   0.18719   0.00000  Uiso   1.00
C547   C     0.72182   0.62897   0.98120   0.00000  Uiso   1.00
C548   C     0.68720   0.62598   0.01366   0.00000  Uiso   1.00
H549   H     0.65257   0.62611   0.00248   0.00000  Uiso   1.00
C550   C     0.65926   0.62517   0.09446   0.00000  Uiso   1.00
C551   C     0.82589   0.62137   0.05916   0.00000  Uiso   1.00
C552   C     0.50145   0.56612   0.22962   0.00000  Uiso   1.00
C553   C     0.43254   0.33580   0.45976   0.00000  Uiso   1.00
C554   C     0.54795   0.59423   0.21426   0.00000  Uiso   1.00
C555   C     0.44362   0.55949   0.28936   0.00000  Uiso   1.00
C556   C     0.39950   0.43104   0.18447   0.00000  Uiso   1.00
C557   C     0.47113   0.33477   0.48761   0.00000  Uiso   1.00
H558   H     0.48523   0.39967   0.49853   0.00000  Uiso   1.00
C559   C     0.42950   0.48540   0.21576   0.00000  Uiso   1.00
C560   C     0.76621   0.66568   0.34169   0.00000  Uiso   1.00
C561   C     0.41550   0.50852   0.25993   0.00000  Uiso   1.00
H562   H     0.38275   0.48627   0.27153   0.00000  Uiso   1.00
C563   C     0.47302   0.51296   0.20166   0.00000  Uiso   1.00
H564   H     0.48457   0.49397   0.16843   0.00000  Uiso   1.00
N565   N     0.71204   0.55175   0.67602   0.00000  Uiso   1.00
C566   C     0.71818   0.47372   0.70622   0.00000  Uiso   1.00
N567   N     0.57270   0.45335   0.06006   0.00000  Uiso   1.00
C568   C     0.55404   0.36078   0.05775   0.00000  Uiso   1.00
N569   N     0.66096   0.43398   0.36025   0.00000  Uiso   1.00
C570   C     0.63438   0.48096   0.32610   0.00000  Uiso   1.00
N571   N     0.95860   0.53277   0.44324   0.00000  Uiso   1.00
C572   C     0.91359   0.56776   0.43435   0.00000  Uiso   1.00
N573   N     0.70346   0.58514   0.45441   0.00000  Uiso   1.00
C574   C     0.72974   0.62707   0.49032   0.00000  Uiso   1.00
N575   N     0.46342   0.49372   0.59159   0.00000  Uiso   1.00
C576   C     0.47502   0.56414   0.62452   0.00000  Uiso   1.00
O577   O     0.10901   0.24901   0.88779   0.00000  Uiso   1.00
O578   O     0.88282   0.25138   0.66061   0.00000  Uiso   1.00
C579   C     0.82030   0.25118   0.75785   0.00000  Uiso   1.00
C580   C     0.78462   0.25116   0.79334   0.00000  Uiso   1.00
C581   C     0.71543   0.25118   0.85815   0.00000  Uiso   1.00
H582   H     0.68867   0.25117   0.88286   0.00000  Uiso   1.00
N583   N     0.89541   0.24991   0.22551   0.00000  Uiso   1.00
C584   C     0.84645   0.25089   0.22526   0.00000  Uiso   1.00
O585   O     0.38947   0.75041   0.38762   0.00000  Uiso   1.00
O586   O     0.61533   0.75023   0.16058   0.00000  Uiso   1.00
C587   C     0.67797   0.74990   0.25756   0.00000  Uiso   1.00
C588   C     0.71357   0.75000   0.29308   0.00000  Uiso   1.00
C589   C     0.78233   0.75059   0.35828   0.00000  Uiso   1.00
H590   H     0.80890   0.75092   0.38319   0.00000  Uiso   1.00
N591   N     0.60047   0.75250   0.72350   0.00000  Uiso   1.00
C592   C     0.64942   0.75190   0.72504   0.00000  Uiso   1.00
O593   O     0.88967   0.74880   0.11276   0.00000  Uiso   1.00
O594   O     0.11653   0.75109   0.33974   0.00000  Uiso   1.00
C595   C     0.17867   0.75106   0.24327   0.00000  Uiso   1.00
C596   C     0.21445   0.75074   0.20788   0.00000  Uiso   1.00
C597   C     0.28372   0.75078   0.14319   0.00000  Uiso   1.00
H598   H     0.31051   0.75082   0.11851   0.00000  Uiso   1.00
N599   N     0.10274   0.74923   0.77632   0.00000  Uiso   1.00
C600   C     0.15169   0.74923   0.77506   0.00000  Uiso   1.00
O601   O     0.60869   0.25144   0.61274   0.00000  Uiso   1.00
O602   O     0.38184   0.24869   0.83965   0.00000  Uiso   1.00
C603   C     0.31986   0.24852   0.74327   0.00000  Uiso   1.00
C604   C     0.28413   0.24888   0.70781   0.00000  Uiso   1.00
C605   C     0.21490   0.24952   0.64307   0.00000  Uiso   1.00
H606   H     0.18811   0.24981   0.61839   0.00000  Uiso   1.00
N607   N     0.39559   0.24939   0.27696   0.00000  Uiso   1.00
C608   C     0.34665   0.25002   0.27534   0.00000  Uiso   1.00
O609   O     0.66163   0.75155   0.83821   0.00000  Uiso   1.00
C610   C     0.85228   0.75114   0.68746   0.00000  Uiso   1.00
C611   C     0.00776   0.74900   1.00276   0.00000  Uiso   1.00
C612   C     0.79015   0.75146   0.75902   0.00000  Uiso   1.00
C613   C     0.75507   0.75149   0.79499   0.00000  Uiso   1.00
C614   C     0.96797   0.74892   0.03483   0.00000  Uiso   1.00
C615   C     0.08474   0.74904   0.94705   0.00000  Uiso   1.00
H616   H     0.11431   0.74905   0.92578   0.00000  Uiso   1.00
N617   N     0.53628   0.73092   0.02304   0.00000  Uiso   1.00
C618   C     0.56401   0.76868  -0.01287   0.00000  Uiso   1.00
O619   O     0.83664   0.25013   0.33809   0.00000  Uiso   1.00
C620   C     0.64579   0.25015   0.18773   0.00000  Uiso   1.00
C621   C     0.49064   0.25056   0.50264   0.00000  Uiso   1.00
C622   C     0.70809   0.25007   0.25912   0.00000  Uiso   1.00
C623   C     0.74316   0.25012   0.29508   0.00000  Uiso   1.00
C624   C     0.53039   0.25075   0.53474   0.00000  Uiso   1.00
C625   C     0.41390   0.25044   0.44662   0.00000  Uiso   1.00
H626   H     0.38444   0.25041   0.42518   0.00000  Uiso   1.00
N627   N     0.97864   0.26606   0.59611   0.00000  Uiso   1.00
C628   C     0.97317   0.26323   0.54740   0.00000  Uiso   1.00
O629   O     0.33679   0.25052   0.16252   0.00000  Uiso   1.00
C630   C     0.14492   0.25019   0.31187   0.00000  Uiso   1.00
C631   C     0.99095   0.24880  -0.00207   0.00000  Uiso   1.00
C632   C     0.20786   0.25059   0.24103   0.00000  Uiso   1.00
C633   C     0.24316   0.25070   0.20528   0.00000  Uiso   1.00
C634   C     0.03078   0.24874   0.96591   0.00000  Uiso   1.00
C635   C     0.91370   0.24886   0.05326   0.00000  Uiso   1.00
H636   H     0.88400   0.24889   0.07435   0.00000  Uiso   1.00
N637   N     0.47756   0.25513   0.91823   0.00000  Uiso   1.00
C638   C     0.46921   0.23137   0.96507   0.00000  Uiso   1.00
O639   O     0.16161   0.74935   0.66253   0.00000  Uiso   1.00
C640   C     0.35366   0.74941   0.81114   0.00000  Uiso   1.00
C641   C     0.50733   0.75131   0.49797   0.00000  Uiso   1.00
C642   C     0.29073   0.74939   0.74037   0.00000  Uiso   1.00
C643   C     0.25528   0.74934   0.70483   0.00000  Uiso   1.00
C644   C     0.46763   0.75120   0.46582   0.00000  Uiso   1.00
C645   C     0.58425   0.75131   0.55372   0.00000  Uiso   1.00
H646   H     0.61381   0.75129   0.57502   0.00000  Uiso   1.00
N647   N     0.02372   0.74388   0.42844   0.00000  Uiso   1.00
C648   C     0.04034   0.76491   0.47342   0.00000  Uiso   1.00
H649   H     0.77274   0.03564   0.14325   0.00000  Uiso   1.00
H650   H     0.82098   0.06531   0.17072   0.00000  Uiso   1.00
H651   H     0.79814  -0.08607   0.19299   0.00000  Uiso   1.00
H652   H     0.74386  -0.04027   0.20874   0.00000  Uiso   1.00
H653   H     0.79364  -0.00569   0.23925   0.00000  Uiso   1.00
H654   H     0.98311   1.01092   0.53953   0.00000  Uiso   1.00
H655   H     0.96521   1.03461   0.59278   0.00000  Uiso   1.00
H656   H     0.98106   0.84762   0.55468   0.00000  Uiso   1.00
H657   H     0.96297   0.87368   0.61135   0.00000  Uiso   1.00
H658   H     1.01814   0.90858   0.59239   0.00000  Uiso   1.00
H659   H     0.82184   0.88014   0.85038   0.00000  Uiso   1.00
H660   H     0.81043   0.98676   0.87164   0.00000  Uiso   1.00
H661   H     0.84184   1.00176   0.79828   0.00000  Uiso   1.00
H662   H     0.88936   0.93352   0.81566   0.00000  Uiso   1.00
H663   H     0.87983   1.04624   0.84007   0.00000  Uiso   1.00
H664   H     0.55141   0.08345   0.91092   0.00000  Uiso   1.00
H665   H     0.56364   0.00502   0.95194   0.00000  Uiso   1.00
H666   H     0.61319   0.17954   0.93400   0.00000  Uiso   1.00
H667   H     0.62629   0.09621   0.97731   0.00000  Uiso   1.00
H668   H     0.57396   0.15949   0.97938   0.00000  Uiso   1.00
H669   H     0.78725   0.04416   0.94639   0.00000  Uiso   1.00
H670   H     0.82453   0.12277   0.96717   0.00000  Uiso   1.00
H671   H     0.77280   0.07730   0.02484   0.00000  Uiso   1.00
H672   H     0.72677   0.11041  -0.01145   0.00000  Uiso   1.00
H673   H     0.76525   0.19673   0.00969   0.00000  Uiso   1.00
H674   H     0.01692  -0.06893   0.09675   0.00000  Uiso   1.00
H675   H     0.07025  -0.02612   0.09511   0.00000  Uiso   1.00
H676   H    -0.01223   0.07926   0.11975   0.00000  Uiso   1.00
H677   H     0.04461   0.12309   0.11894   0.00000  Uiso   1.00
H678   H     0.02881   0.03433   0.15864   0.00000  Uiso   1.00
H679   H     0.72615   0.96457   0.64385   0.00000  Uiso   1.00
H680   H     0.67748   0.93643   0.67095   0.00000  Uiso   1.00
H681   H     0.75471   1.04141   0.70915   0.00000  Uiso   1.00
H682   H     0.70459   1.00820   0.73946   0.00000  Uiso   1.00
H683   H     0.70072   1.08775   0.69279   0.00000  Uiso   1.00
H684   H     0.54468  -0.01957   0.08881   0.00000  Uiso   1.00
H685   H     0.58180   0.05271   0.06280   0.00000  Uiso   1.00
H686   H     0.48522   0.09070   0.08214   0.00000  Uiso   1.00
H687   H     0.52331   0.16675   0.05287   0.00000  Uiso   1.00
H688   H     0.53308   0.13876   0.11136   0.00000  Uiso   1.00
H689   H     0.68749   0.00330   0.37425   0.00000  Uiso   1.00
H690   H     0.64302   0.06694   0.39299   0.00000  Uiso   1.00
H691   H     0.65742   0.00002   0.29940   0.00000  Uiso   1.00
H692   H     0.61081   0.06918   0.31824   0.00000  Uiso   1.00
H693   H     0.61824  -0.04682   0.33948   0.00000  Uiso   1.00
H694   H     0.95180   0.88734   0.47642   0.00000  Uiso   1.00
H695   H     0.94564   1.00061   0.46231   0.00000  Uiso   1.00
H696   H     0.87538   0.92057   0.45555   0.00000  Uiso   1.00
H697   H     0.90197   0.84107   0.41695   0.00000  Uiso   1.00
H698   H     0.89578   0.96094   0.40171   0.00000  Uiso   1.00
H699   H     0.73311   0.83411   0.44232   0.00000  Uiso   1.00
H700   H     0.71547   0.94351   0.45365   0.00000  Uiso   1.00
H701   H     0.78744   0.91922   0.48722   0.00000  Uiso   1.00
H702   H     0.76560   0.81853   0.51544   0.00000  Uiso   1.00
H703   H     0.74452   0.93113   0.52994   0.00000  Uiso   1.00
H704   H     0.47801   0.94623   0.58245   0.00000  Uiso   1.00
H705   H     0.48198   1.02053   0.62551   0.00000  Uiso   1.00
H706   H     0.48290   0.81695   0.63220   0.00000  Uiso   1.00
H707   H     0.48662   0.89654   0.67874   0.00000  Uiso   1.00
H708   H     0.53071   0.89338   0.63687   0.00000  Uiso   1.00
H709   H     0.17812   0.56137   0.82902   0.00000  Uiso   1.00
H710   H     0.22738   0.60753   0.81009   0.00000  Uiso   1.00
H711   H     0.20344   0.48609   0.76095   0.00000  Uiso   1.00
H712   H     0.20184   0.40903   0.80872   0.00000  Uiso   1.00
H713   H     0.25483   0.45622   0.78992   0.00000  Uiso   1.00
H714   H     0.10630   0.46506   0.45558   0.00000  Uiso   1.00
H715   H     0.05373   0.49512   0.47328   0.00000  Uiso   1.00
H716   H     0.06410   0.33120   0.47869   0.00000  Uiso   1.00
H717   H     0.07784   0.32903   0.41950   0.00000  Uiso   1.00
H718   H     0.02190   0.36087   0.43740   0.00000  Uiso   1.00
H719   H     0.14554   0.43861   0.10996   0.00000  Uiso   1.00
H720   H     0.18392   0.40520   0.14932   0.00000  Uiso   1.00
H721   H     0.11227   0.42943   0.18419   0.00000  Uiso   1.00
H722   H     0.11196   0.54569   0.16197   0.00000  Uiso   1.00
H723   H     0.15323   0.51234   0.20308   0.00000  Uiso   1.00
H724   H     0.47889   0.51692   0.08789   0.00000  Uiso   1.00
H725   H     0.45799   0.62386   0.07658   0.00000  Uiso   1.00
H726   H     0.41723   0.44515   0.04867   0.00000  Uiso   1.00
H727   H     0.39481   0.55856   0.03732   0.00000  Uiso   1.00
H728   H     0.39847   0.51740   0.09450   0.00000  Uiso   1.00
H729   H     0.20742   0.65286   0.06245   0.00000  Uiso   1.00
H730   H     0.23003   0.54554   0.05695   0.00000  Uiso   1.00
H731   H     0.21711   0.68293   0.98362   0.00000  Uiso   1.00
H732   H     0.23999   0.56858   0.97698   0.00000  Uiso   1.00
H733   H     0.26982   0.65267   1.01028   0.00000  Uiso   1.00
H734   H     0.92504   0.46714   0.90953   0.00000  Uiso   1.00
H735   H     0.96174   0.51719   0.94608   0.00000  Uiso   1.00
H736   H     0.96809   0.52204   0.84607   0.00000  Uiso   1.00
H737   H     1.00655   0.57574   0.88499   0.00000  Uiso   1.00
H738   H     0.94899   0.61498   0.88183   0.00000  Uiso   1.00
H739   H     0.27070   0.39003   0.31139   0.00000  Uiso   1.00
H740   H     0.27080   0.46403   0.35594   0.00000  Uiso   1.00
H741   H     0.29465   0.50886   0.26102   0.00000  Uiso   1.00
H742   H     0.29727   0.58785   0.30799   0.00000  Uiso   1.00
H743   H     0.24375   0.54151   0.29016   0.00000  Uiso   1.00
H744   H     0.43855   0.52165   0.90671   0.00000  Uiso   1.00
H745   H     0.39264   0.54101   0.93997   0.00000  Uiso   1.00
H746   H     0.42486   0.68434   0.91567   0.00000  Uiso   1.00
H747   H     0.47775   0.64921   0.94010   0.00000  Uiso   1.00
H748   H     0.42955   0.66924   0.97583   0.00000  Uiso   1.00
H749   H     0.35380   0.56061   0.60760   0.00000  Uiso   1.00
H750   H     0.31617   0.60142   0.64603   0.00000  Uiso   1.00
H751   H     0.38302   0.45176   0.66136   0.00000  Uiso   1.00
H752   H     0.34267   0.49359   0.70161   0.00000  Uiso   1.00
H753   H     0.38659   0.56900   0.68193   0.00000  Uiso   1.00
H754   H     0.05738   0.54462   0.57752   0.00000  Uiso   1.00
H755   H     0.02246   0.45656   0.58837   0.00000  Uiso   1.00
H756   H     0.11523   0.44245   0.55315   0.00000  Uiso   1.00
H757   H     0.07770   0.34714   0.56330   0.00000  Uiso   1.00
H758   H     0.09630   0.41759   0.60990   0.00000  Uiso   1.00
H759   H     0.26312   0.33408   0.55934   0.00000  Uiso   1.00
H760   H     0.28000   0.44362   0.54726   0.00000  Uiso   1.00
H761   H     0.22882   0.31703   0.48715   0.00000  Uiso   1.00
H762   H     0.24904   0.42984   0.47178   0.00000  Uiso   1.00
H763   H     0.20729   0.41771   0.51563   0.00000  Uiso   1.00
H764   H     0.53269   0.48293   0.44438   0.00000  Uiso   1.00
H765   H     0.51876   0.56992   0.40830   0.00000  Uiso   1.00
H766   H     0.54698   0.38043   0.38201   0.00000  Uiso   1.00
H767   H     0.53082   0.47247   0.34431   0.00000  Uiso   1.00
H768   H     0.48998   0.42346   0.38224   0.00000  Uiso   1.00
H769   H     0.17857   0.93885   0.82808   0.00000  Uiso   1.00
H770   H     0.22857   0.96271   0.85370   0.00000  Uiso   1.00
H771   H     0.20254   1.09100   0.80840   0.00000  Uiso   1.00
H772   H     0.20358   1.01544   0.76005   0.00000  Uiso   1.00
H773   H     0.25528   1.04382   0.78885   0.00000  Uiso   1.00
H774   H     0.03389   0.01972   0.46111   0.00000  Uiso   1.00
H775   H     0.08162   0.07302   0.44290   0.00000  Uiso   1.00
H776   H    -0.01073   0.10801   0.40786   0.00000  Uiso   1.00
H777   H     0.04017   0.16757   0.39190   0.00000  Uiso   1.00
H778   H     0.01839   0.17855   0.44853   0.00000  Uiso   1.00
H779   H     0.19038   0.03107   0.12565   0.00000  Uiso   1.00
H780   H     0.17247   0.13202   0.14894   0.00000  Uiso   1.00
H781   H     0.16017   0.00387   0.19919   0.00000  Uiso   1.00
H782   H     0.12628  -0.04962   0.15632   0.00000  Uiso   1.00
H783   H     0.10847   0.05763   0.18190   0.00000  Uiso   1.00
H784   H     0.43750   0.86140   0.01387   0.00000  Uiso   1.00
H785   H     0.47161   0.89568   0.05691   0.00000  Uiso   1.00
H786   H     0.39606   0.87303   0.08310   0.00000  Uiso   1.00
H787   H     0.37697   0.95511   0.04143   0.00000  Uiso   1.00
H788   H     0.41293   0.99232   0.08694   0.00000  Uiso   1.00
H789   H     0.17782   0.94449   0.02962   0.00000  Uiso   1.00
H790   H     0.19207   0.88787   0.07793   0.00000  Uiso   1.00
H791   H     0.23893   0.87002   0.98973   0.00000  Uiso   1.00
H792   H     0.25457   0.81500   1.04211   0.00000  Uiso   1.00
H793   H     0.25790   0.93847   1.03679   0.00000  Uiso   1.00
H794   H     0.92700   1.02797   0.90876   0.00000  Uiso   1.00
H795   H     0.98053   1.06983   0.90786   0.00000  Uiso   1.00
H796   H     0.96795   0.97367   0.84353   0.00000  Uiso   1.00
H797   H     0.95167   0.88116   0.88092   0.00000  Uiso   1.00
H798   H     1.00880   0.92347   0.88110   0.00000  Uiso   1.00
H799   H     0.27087   0.03635   0.35477   0.00000  Uiso   1.00
H800   H     0.27163   0.10777   0.30925   0.00000  Uiso   1.00
H801   H     0.29635  -0.09114   0.30864   0.00000  Uiso   1.00
H802   H     0.29473  -0.01479   0.26061   0.00000  Uiso   1.00
H803   H     0.24338  -0.04372   0.28990   0.00000  Uiso   1.00
H804   H     0.47833   1.00391   0.93973   0.00000  Uiso   1.00
H805   H     0.42826   0.96247   0.92364   0.00000  Uiso   1.00
H806   H     0.51756   0.88309   0.90323   0.00000  Uiso   1.00
H807   H     0.46474   0.84033   0.88187   0.00000  Uiso   1.00
H808   H     0.47583   0.83913   0.94176   0.00000  Uiso   1.00
H809   H     0.35810   0.91155   0.61212   0.00000  Uiso   1.00
H810   H     0.31152   0.96682   0.63206   0.00000  Uiso   1.00
H811   H     0.38088   1.04633   0.65179   0.00000  Uiso   1.00
H812   H     0.39733   0.94408   0.68252   0.00000  Uiso   1.00
H813   H     0.34854   1.00889   0.69976   0.00000  Uiso   1.00
H814   H     0.09726   0.16010   0.57480   0.00000  Uiso   1.00
H815   H     0.04670   0.10993   0.57904   0.00000  Uiso   1.00
H816   H     0.12648   0.03537   0.53211   0.00000  Uiso   1.00
H817   H     0.07165  -0.01764   0.53321   0.00000  Uiso   1.00
H818   H     0.10253  -0.00265   0.58504   0.00000  Uiso   1.00
H819   H     0.32029   0.05220   0.53465   0.00000  Uiso   1.00
H820   H     0.27350   0.03467   0.56677   0.00000  Uiso   1.00
H821   H     0.25238   0.07214   0.49105   0.00000  Uiso   1.00
H822   H     0.28465   0.17709   0.49557   0.00000  Uiso   1.00
H823   H     0.23526   0.16050   0.53027   0.00000  Uiso   1.00
H824   H     0.52842   0.01553   0.44089   0.00000  Uiso   1.00
H825   H     0.56960  -0.02557   0.40656   0.00000  Uiso   1.00
H826   H     0.48762   0.07734   0.37803   0.00000  Uiso   1.00
H827   H     0.53029   0.03197   0.34099   0.00000  Uiso   1.00
H828   H     0.54425   0.12218   0.38057   0.00000  Uiso   1.00
H829   H     0.77088   0.39212   0.18977   0.00000  Uiso   1.00
H830   H     0.82024   0.43845   0.17126   0.00000  Uiso   1.00
H831   H     0.79445   0.51187   0.23983   0.00000  Uiso   1.00
H832   H     0.74358   0.54367   0.21043   0.00000  Uiso   1.00
H833   H     0.79706   0.59020   0.19259   0.00000  Uiso   1.00
H834   H     0.95387   0.51652   0.54070   0.00000  Uiso   1.00
H835   H     0.90164   0.54948   0.55811   0.00000  Uiso   1.00
H836   H     0.94291   0.68021   0.53080   0.00000  Uiso   1.00
H837   H     0.98670   0.65461   0.57117   0.00000  Uiso   1.00
H838   H     0.93156   0.68899   0.59037   0.00000  Uiso   1.00
H839   H     0.82161   0.61796   0.85015   0.00000  Uiso   1.00
H840   H     0.85450   0.57063   0.89113   0.00000  Uiso   1.00
H841   H     0.84168   0.49613   0.79870   0.00000  Uiso   1.00
H842   H     0.87740   0.44825   0.84165   0.00000  Uiso   1.00
H843   H     0.88981   0.56028   0.81780   0.00000  Uiso   1.00
H844   H     0.52057   0.46666   0.91017   0.00000  Uiso   1.00
H845   H     0.54224   0.53952   0.94969   0.00000  Uiso   1.00
H846   H     0.58190   0.36019   0.92134   0.00000  Uiso   1.00
H847   H     0.60507   0.43904   0.96234   0.00000  Uiso   1.00
H848   H     0.60087   0.47300   0.90406   0.00000  Uiso   1.00
H849   H     0.84422   0.31697   0.96905   0.00000  Uiso   1.00
H850   H     0.85244   0.43240   0.96187   0.00000  Uiso   1.00
H851   H     0.76564   0.33273  -0.05020   0.00000  Uiso   1.00
H852   H     0.77459   0.45489  -0.05672   0.00000  Uiso   1.00
H853   H     0.78122   0.40205  -0.00207   0.00000  Uiso   1.00
H854   H     0.06868   0.51029   0.09411   0.00000  Uiso   1.00
H855   H     0.01845   0.56363   0.10345   0.00000  Uiso   1.00
H856   H     0.03105   0.44796   0.15973   0.00000  Uiso   1.00
H857   H     0.03800   0.36369   0.11540   0.00000  Uiso   1.00
H858   H    -0.01586   0.41845   0.12410   0.00000  Uiso   1.00
H859   H     0.72777   0.53804   0.64532   0.00000  Uiso   1.00
H860   H     0.72624   0.61058   0.69042   0.00000  Uiso   1.00
H861   H     0.75458   0.45970   0.71092   0.00000  Uiso   1.00
H862   H     0.70188   0.41147   0.69187   0.00000  Uiso   1.00
H863   H     0.70289   0.48900   0.73947   0.00000  Uiso   1.00
H864   H     0.60771   0.44990   0.05750   0.00000  Uiso   1.00
H865   H     0.56370   0.48363   0.09063   0.00000  Uiso   1.00
H866   H     0.56691   0.31865   0.08615   0.00000  Uiso   1.00
H867   H     0.56388   0.32751   0.02558   0.00000  Uiso   1.00
H868   H     0.51677   0.36379   0.05973   0.00000  Uiso   1.00
H869   H     0.64074   0.41926   0.38808   0.00000  Uiso   1.00
H870   H     0.68755   0.47642   0.37007   0.00000  Uiso   1.00
H871   H     0.60773   0.43440   0.31318   0.00000  Uiso   1.00
H872   H     0.65624   0.50172   0.29775   0.00000  Uiso   1.00
H873   H     0.61866   0.54376   0.34047   0.00000  Uiso   1.00
H874   H     0.95631   0.46702   0.45734   0.00000  Uiso   1.00
H875   H     0.97508   0.57685   0.46557   0.00000  Uiso   1.00
H876   H     0.89606   0.52169   0.41028   0.00000  Uiso   1.00
H877   H     0.91559   0.63800   0.41968   0.00000  Uiso   1.00
H878   H     0.89396   0.57072   0.46611   0.00000  Uiso   1.00
H879   H     0.72347   0.53765   0.43726   0.00000  Uiso   1.00
H880   H     0.69270   0.63618   0.43209   0.00000  Uiso   1.00
H881   H     0.75951   0.66262   0.47593   0.00000  Uiso   1.00
H882   H     0.74143   0.57339   0.51421   0.00000  Uiso   1.00
H883   H     0.70884   0.67779   0.50888   0.00000  Uiso   1.00
H884   H     0.47081   0.51774   0.55933   0.00000  Uiso   1.00
H885   H     0.42913   0.47894   0.59364   0.00000  Uiso   1.00
H886   H     0.45489   0.62733   0.61837   0.00000  Uiso   1.00
H887   H     0.51128   0.58156   0.62196   0.00000  Uiso   1.00
H888   H     0.46806   0.53860   0.65902   0.00000  Uiso   1.00
H889   H     0.90689   0.19071   0.20915   0.00000  Uiso   1.00
H890   H     0.90692   0.25007   0.25873   0.00000  Uiso   1.00
H891   H     0.83331   0.18889   0.24275   0.00000  Uiso   1.00
H892   H     0.83386   0.25112   0.19009   0.00000  Uiso   1.00
H893   H     0.83392   0.31344   0.24272   0.00000  Uiso   1.00
H894   H     0.58948   0.81140   0.70656   0.00000  Uiso   1.00
H895   H     0.58776   0.75262   0.75627   0.00000  Uiso   1.00
H896   H     0.66328   0.75210   0.69034   0.00000  Uiso   1.00
H897   H     0.66144   0.68928   0.74280   0.00000  Uiso   1.00
H898   H     0.66180   0.81382   0.74313   0.00000  Uiso   1.00
H899   H     0.09021   0.74895   0.74347   0.00000  Uiso   1.00
H900   H     0.09149   0.80813   0.79309   0.00000  Uiso   1.00
H901   H     0.16397   0.81132   0.75704   0.00000  Uiso   1.00
H902   H     0.16399   0.68678   0.75735   0.00000  Uiso   1.00
H903   H     0.16535   0.74960   0.80983   0.00000  Uiso   1.00
H904   H     0.40652   0.19044   0.29390   0.00000  Uiso   1.00
H905   H     0.40688   0.30795   0.29399   0.00000  Uiso   1.00
H906   H     0.33432   0.18810   0.25722   0.00000  Uiso   1.00
H907   H     0.33467   0.31266   0.25758   0.00000  Uiso   1.00
H908   H     0.33274   0.24973   0.31002   0.00000  Uiso   1.00
H909   H     0.87628   0.75098   0.66007   0.00000  Uiso   1.00
H910   H     0.50240   0.74237   0.01570   0.00000  Uiso   1.00
H911   H     0.54445   0.76301   0.05342   0.00000  Uiso   1.00
H912   H     0.55910   0.84434  -0.01505   0.00000  Uiso   1.00
H913   H     0.55468   0.73686  -0.04555   0.00000  Uiso   1.00
H914   H     0.59996   0.75414  -0.00603   0.00000  Uiso   1.00
H915   H     0.62171   0.25020   0.16040   0.00000  Uiso   1.00
H916   H     0.96318   0.20856   0.61049   0.00000  Uiso   1.00
H917   H     0.96386   0.32599   0.60872   0.00000  Uiso   1.00
H918   H     0.98912   0.20018   0.53357   0.00000  Uiso   1.00
H919   H     0.98912   0.32464   0.53186   0.00000  Uiso   1.00
H920   H     0.93690   0.26246   0.53856   0.00000  Uiso   1.00
H921   H     0.12063   0.24993   0.33901   0.00000  Uiso   1.00
H922   H     0.46296   0.20411   0.89819   0.00000  Uiso   1.00
H923   H     0.51223   0.25164   0.91282   0.00000  Uiso   1.00
H924   H     0.48258   0.16164   0.97262   0.00000  Uiso   1.00
H925   H     0.43253   0.23263   0.97188   0.00000  Uiso   1.00
H926   H     0.48582   0.28230   0.98733   0.00000  Uiso   1.00
H927   H     0.37792   0.74949   0.83831   0.00000  Uiso   1.00
H928   H     0.03835   0.78872   0.40517   0.00000  Uiso   1.00
H929   H    -0.01120   0.75163   0.42775   0.00000  Uiso   1.00
H930   H     0.07722   0.75362   0.47511   0.00000  Uiso   1.00
H931   H     0.02377   0.71966   0.49852   0.00000  Uiso   1.00
H932   H     0.03319   0.83792   0.48189   0.00000  Uiso   1.00
H933   H     0.85611   0.92676   0.89038   0.00000  Uiso   1.00
H934   H     0.96657   0.98237   0.94366   0.00000  Uiso   1.00
H935   H     0.97921   0.42934   0.91207   0.00000  Uiso   1.00
H936   H     0.80863   0.51234   0.87165   0.00000  Uiso   1.00
H937   H     0.72729   0.89003   0.68818   0.00000  Uiso   1.00
H938   H     0.94261   0.52548   0.59667   0.00000  Uiso   1.00
H939   H     1.01283   0.26582   0.60412   0.00000  Uiso   1.00
H940   H     0.97664   0.52944   0.41315   0.00000  Uiso   1.00
H941   H     0.97087   0.92621   0.42564   0.00000  Uiso   1.00
H942   H     0.77098   0.46550   0.14498   0.00000  Uiso   1.00
H943   H     0.55999   0.49300   0.03369   0.00000  Uiso   1.00
H944   H     0.47598   0.55477   0.03374   0.00000  Uiso   1.00
H945   H     0.45385   0.97385   0.01782   0.00000  Uiso   1.00
H946   H     0.54217   0.66024   0.02567   0.00000  Uiso   1.00
H947   H     0.18024   0.57116   0.03130   0.00000  Uiso   1.00
H948   H     0.17382   0.82733   0.03224   0.00000  Uiso   1.00
H949   H     0.02359   0.48442   0.06134   0.00000  Uiso   1.00
H950   H     0.33037   0.86945   0.65799   0.00000  Uiso   1.00
H951   H     0.69275   0.85264   0.48211   0.00000  Uiso   1.00
H952   H     0.67558   0.55159   0.46818   0.00000  Uiso   1.00
H953   H     0.67772   0.56262   0.67069   0.00000  Uiso   1.00
H954   H     0.58914   0.69389   0.70654   0.00000  Uiso   1.00
H955   H     0.32010   0.43626   0.32991   0.00000  Uiso   1.00
H956   H     0.31189   0.49081   0.62703   0.00000  Uiso   1.00
H957   H     0.30237   0.35281   0.51848   0.00000  Uiso   1.00
H958   H     0.32052   0.06079   0.32860   0.00000  Uiso   1.00
H959   H     0.30321   0.13459   0.57196   0.00000  Uiso   1.00
H960   H     0.22750   0.53524   0.85531   0.00000  Uiso   1.00
H961   H     0.09150   0.69062   0.79333   0.00000  Uiso   1.00
H962   H     0.03194   0.67604   0.42014   0.00000  Uiso   1.00
H963   H     0.22717   0.89202   0.80791   0.00000  Uiso   1.00
H964   H     0.06577   0.49325   0.41721   0.00000  Uiso   1.00
H965   H     0.40837   0.24933   0.24422   0.00000  Uiso   1.00
H966   H     0.51662  -0.06970   0.40310   0.00000  Uiso   1.00
H967   H     0.67372   0.37271   0.34699   0.00000  Uiso   1.00
H968   H     0.57220   0.52743   0.40912   0.00000  Uiso   1.00
H969   H     0.67948   0.11267   0.35474   0.00000  Uiso   1.00
H970   H     0.93081   0.97701   0.55642   0.00000  Uiso   1.00
H971   H     0.18474   0.51513   0.12902   0.00000  Uiso   1.00
H972   H     0.14122   0.07984   0.10809   0.00000  Uiso   1.00
H973   H     0.48187   0.43398   0.59809   0.00000  Uiso   1.00
H974   H     0.52375   0.43262   0.96486   0.00000  Uiso   1.00
H975   H     0.44231   0.50722   0.96338   0.00000  Uiso   1.00
H976   H     0.83774   0.36519   0.91708   0.00000  Uiso   1.00
H977   H     0.78167   0.15781   0.93301   0.00000  Uiso   1.00
H978   H     0.03069   0.01484   0.05886   0.00000  Uiso   1.00
H979   H     0.53721   0.00920   0.03366   0.00000  Uiso   1.00
H980   H     0.77076   0.11106   0.18719   0.00000  Uiso   1.00
H981   H     0.90746   0.30822   0.20881   0.00000  Uiso   1.00
H982   H     0.05158   0.00474   0.40703   0.00000  Uiso   1.00
H983   H     0.60071   0.02353   0.90916   0.00000  Uiso   1.00
loop_
_geom_bond_atom_site_label_1
_geom_bond_atom_site_label_2
_geom_bond_distance
_geom_bond_site_symmetry_2
_ccdc_geom_bond_type
In1    O11     2.006   .     S
In1    O16     1.995   .     S
In1    O17     1.974   .     S
In1    O22     2.072   .     S
In1    O578    2.010   .     S
In1    O10     2.050   1_545 S
In2    O9      2.022   .     S
In2    O13     2.011   .     S
In2    O306    2.009   .     S
In2    O379    2.034   .     S
In2    O381    2.018   .     S
In2    O577    2.005   .     S
In2    O7      2.097   1_545 S
In3    O15     1.970   .     S
In3    O84     2.013   .     S
In3    O86     2.002   .     S
In3    O368    2.087   .     S
In3    O609    2.030   .     S
In3    O4      2.053   1_565 S
O4     C41     1.407   .     S
O4     In3     2.053   1_545 S
O5     C29     1.220   .     D
O6     C52     1.219   .     D
O7     C29     1.415   .     S
O7     In2     2.097   1_565 S
O8     C52     1.410   .     S
O8     In363   2.090   .     S
O9     C25     1.265   .     A
O10    C42     1.405   .     S
O10    In1     2.050   1_565 S
O11    C50     1.272   .     A
O12    C37     1.268   .     A
O12    In75    2.014   .     S
O13    C25     1.264   .     A
O14    C37     1.261   .     A
O14    In75    2.002   .     S
O15    C613    1.277   .     A
O16    C50     1.268   .     A
O17    C579    1.279   .     A
O18    In290   2.010   .     S
O18    C614    1.291   .     A
O19    C47     1.260   .     A
O19    In362   2.035   .     S
O20    C41     1.219   .     D
O21    C47     1.257   .     A
O21    In362   2.017   .     S
O22    C46     1.407   .     S
O23    C46     1.219   .     D
O24    C42     1.220   .     D
C25    C51     1.513   .     S
C26    C32     1.415   .     A
C26    C34     1.418   .     A
C26    C47     1.511   .     S
C27    H28     1.082   .     S
C27    C56     1.408   .     A
C27    C580    1.412   .     A
C29    C49     1.516   .     S
C30    H31     1.083   .     S
C30    C38     1.408   .     A
C30    C612    1.411   .     A
C32    H33     1.083   .     S
C32    C36     1.414   .     A
C34    H35     1.083   .     S
C34    C43     1.421   .     A
C36    C44     1.417   .     A
C36    C46     1.509   .     S
C37    C43     1.510   .     S
C38    C42     1.496   .     S
C38    C610    1.413   .     A
C39    C51     1.417   .     A
C39    H40     1.084   1_455 S
C39    C48     1.418   1_455 S
H40    C39     1.084   1_655 S
C41    C56     1.496   .     S
C43    C44     1.413   .     A
C44    H45     1.084   .     S
C48    C50     1.514   .     S
C48    C39     1.418   1_655 S
C48    C59     1.416   1_645 S
C49    C53     1.416   .     A
C49    C615    1.414   .     A
C51    C57     1.420   1_545 S
C52    C55     1.513   .     S
C53    H54     1.082   .     S
C53    C611    1.427   .     A
C55    C57     1.419   .     A
C55    C59     1.419   .     A
C56    C581    1.412   .     A
C57    H58     1.083   .     S
C57    C51     1.420   1_565 S
C59    H60     1.083   .     S
C59    C48     1.416   1_465 S
N61    C62     1.458   .     S
N61    H649    1.045   .     S
N61    H650    1.046   .     S
N61    H980    1.045   .     S
C62    H651    1.111   .     S
C62    H652    1.111   .     S
C62    H653    1.111   .     S
N63    C64     1.457   .     S
N63    H654    1.045   .     S
N63    H655    1.045   .     S
N63    H970    1.045   .     S
C64    H656    1.110   .     S
C64    H657    1.111   .     S
C64    H658    1.110   .     S
N65    C66     1.457   .     S
N65    H659    1.045   .     S
N65    H660    1.045   .     S
N65    H933    1.046   .     S
C66    H661    1.107   .     S
C66    H662    1.111   .     S
C66    H663    1.111   .     S
N67    C68     1.457   .     S
N67    H664    1.045   .     S
N67    H665    1.045   .     S
N67    H983    1.045   .     S
C68    H666    1.111   .     S
C68    H667    1.112   .     S
C68    H668    1.111   .     S
N69    H669    1.045   .     S
N69    H670    1.046   .     S
N69    H977    1.045   .     S
N69    C70     1.457   1_556 S
C70    H671    1.111   .     S
C70    H672    1.111   .     S
C70    H673    1.111   .     S
C70    N69     1.457   1_554 S
N71    C72     1.458   .     S
N71    H674    1.045   .     S
N71    H675    1.045   .     S
N71    H978    1.045   .     S
C72    H676    1.110   .     S
C72    H677    1.111   .     S
C72    H678    1.111   .     S
In73   O83     2.005   .     S
In73   O88     1.993   .     S
In73   O89     1.971   .     S
In73   O94     2.072   .     S
In73   O586    2.009   .     S
In73   O82     2.050   1_565 S
In74   O81     2.022   .     S
In74   O85     2.011   .     S
In74   O307    2.034   .     S
In74   O309    2.017   .     S
In74   O378    2.008   .     S
In74   O585    2.005   .     S
In74   O79     2.098   1_565 D
In75   O87     1.968   .     S
In75   O296    2.088   .     S
In75   O619    2.030   .     S
In75   O76     2.054   1_545 D
O76    C113    1.407   .     S
O76    In75    2.054   1_565 D
O77    C101    1.220   .     D
O78    C124    1.219   .     D
O79    C101    1.414   .     S
O79    In74    2.098   1_545 D
O80    C124    1.409   .     S
O80    In291   2.087   .     S
O81    C97     1.265   .     A
O82    C114    1.405   .     S
O82    In73    2.050   1_545 S
O83    C122    1.272   .     A
O84    C109    1.268   .     A
O85    C97     1.264   .     A
O86    C109    1.261   .     A
O87    C623    1.277   .     A
O88    C122    1.268   .     A
O89    C587    1.279   .     A
O90    In362   2.009   .     S
O90    C624    1.290   .     A
O91    C119    1.259   .     A
O91    In290   2.034   .     S
O92    C113    1.217   .     D
O93    C119    1.257   .     A
O93    In290   2.016   .     S
O94    C118    1.407   .     S
O95    C118    1.219   .     D
O96    C114    1.219   .     D
C97    C123    1.513   .     S
C98    C104    1.415   .     A
C98    C119    1.510   .     S
C98    C106    1.418   1_554 A
C99    H100    1.081   .     S
C99    C128    1.407   .     A
C99    C588    1.411   .     A
C101   C121    1.516   .     S
C102   H103    1.083   .     S
C102   C110    1.408   .     A
C102   C622    1.411   .     A
C104   H105    1.083   .     S
C104   C108    1.414   .     A
C106   H107    1.083   .     S
C106   C115    1.420   .     A
C106   C98     1.418   1_556 A
C108   C116    1.416   .     A
C108   C118    1.508   .     S
C109   C115    1.510   .     S
C110   C114    1.496   .     S
C110   C620    1.412   .     A
C111   H112    1.084   .     S
C111   C120    1.418   .     A
C111   C123    1.417   .     A
C113   C128    1.496   .     S
C115   C116    1.412   1_556 A
C116   H117    1.082   .     S
C116   C115    1.412   1_554 A
C120   C122    1.513   .     S
C120   C131    1.416   1_565 S
C121   C125    1.417   .     A
C121   C625    1.414   .     A
C123   C129    1.420   1_565 A
C124   C127    1.512   .     S
C125   H126    1.083   .     S
C125   C621    1.427   .     A
C127   C129    1.419   .     A
C127   C131    1.419   .     A
C128   C589    1.413   .     A
C129   H130    1.083   .     S
C129   C123    1.420   1_545 A
C131   H132    1.084   .     S
C131   C120    1.416   1_545 S
N133   C134    1.458   .     S
N133   H679    1.046   .     S
N133   H680    1.045   .     S
N133   H937    1.045   .     S
C134   H681    1.111   .     S
C134   H682    1.111   .     S
C134   H683    1.111   .     S
N135   C136    1.457   .     S
N135   H684    1.045   .     S
N135   H685    1.045   .     S
N135   H979    1.045   .     S
C136   H686    1.111   .     S
C136   H687    1.110   .     S
C136   H688    1.112   .     S
N137   C138    1.457   .     S
N137   H689    1.045   .     S
N137   H690    1.045   .     S
N137   H969    1.045   .     S
C138   H691    1.107   .     S
C138   H692    1.111   .     S
C138   H693    1.111   .     S
N139   C140    1.455   .     S
N139   H694    1.045   .     S
N139   H695    1.045   .     S
N139   H941    1.045   .     S
C140   H696    1.112   .     S
C140   H697    1.111   .     S
C140   H698    1.111   .     S
N141   C142    1.458   .     S
N141   H699    1.046   .     S
N141   H700    1.045   .     S
N141   H951    1.045   .     S
C142   H701    1.111   .     S
C142   H702    1.110   .     S
C142   H703    1.111   .     S
N143   C144    1.456   .     S
N143   H704    1.045   .     S
N143   H705    1.045   .     S
C144   H706    1.111   .     S
C144   H707    1.110   .     S
C144   H708    1.111   .     S
In145  O154    2.048   .     S
In145  O155    2.010   .     S
In145  O160    1.997   .     S
In145  O161    1.975   .     S
In145  O166    2.074   .     S
In145  O594    2.009   .     S
In146  O151    2.097   .     S
In146  O153    2.023   .     S
In146  O157    2.010   .     S
In146  O450    2.009   .     S
In146  O523    2.034   .     S
In146  O525    2.018   .     S
In146  O593    2.005   .     S
In147  O148    2.053   .     S
In147  O159    1.969   .     S
In147  O228    2.013   .     S
In147  O230    2.003   .     S
In147  O512    2.088   .     S
In147  O629    2.028   .     S
O148   C185    1.407   .     S
O149   C173    1.219   .     D
O150   C196    1.219   .     D
O151   C173    1.414   .     S
O152   C196    1.410   .     S
O152   In507   2.088   .     S
O153   C169    1.265   .     A
O154   C186    1.405   .     S
O155   C194    1.270   .     A
O156   C181    1.269   .     A
O156   In219   2.015   .     S
O157   C169    1.263   .     A
O158   C181    1.260   .     A
O158   In219   2.002   .     S
O159   C633    1.277   .     A
O160   C194    1.266   .     A
O161   C595    1.278   .     A
O162   In434   2.009   .     S
O162   C634    1.291   .     A
O163   C191    1.260   .     A
O163   In506   2.034   .     S
O164   C185    1.219   .     D
O165   C191    1.257   .     A
O165   In506   2.017   .     S
O166   C190    1.407   .     S
O167   C190    1.218   .     D
O168   C186    1.219   .     D
C169   C195    1.513   .     S
C170   C176    1.415   .     A
C170   C178    1.419   .     A
C170   C191    1.511   .     S
C171   H172    1.081   .     S
C171   C200    1.409   .     A
C171   C596    1.413   .     A
C173   C193    1.516   .     S
C174   H175    1.083   .     S
C174   C182    1.408   .     A
C174   C632    1.411   .     A
C176   H177    1.083   .     S
C176   C180    1.413   .     A
C178   H179    1.083   .     S
C178   C187    1.421   .     A
C180   C188    1.416   .     A
C180   C190    1.506   .     S
C181   C187    1.510   .     S
C182   C186    1.494   .     S
C182   C630    1.412   .     A
C183   C195    1.417   .     A
C183   H184    1.084   1_655 A
C183   C192    1.418   1_655 A
H184   C183    1.084   1_455 A
C185   C200    1.497   .     S
C187   C188    1.412   .     A
C188   H189    1.084   .     S
C192   C194    1.514   .     S
C192   C183    1.418   1_455 A
C192   C203    1.416   1_455 A
C193   C197    1.416   .     A
C193   C635    1.414   .     A
C195   C201    1.420   .     A
C196   C199    1.513   .     S
C197   H198    1.082   .     S
C197   C631    1.427   .     A
C199   C201    1.419   .     A
C199   C203    1.419   .     A
C200   C597    1.412   .     A
C201   H202    1.083   .     S
C203   H204    1.083   .     S
C203   C192    1.416   1_655 A
N205   C206    1.457   .     S
N205   H709    1.046   .     S
N205   H710    1.045   .     S
N205   H960    1.045   .     S
C206   H711    1.111   .     S
C206   H712    1.111   .     S
C206   H713    1.111   .     S
N207   C208    1.457   .     S
N207   H714    1.046   .     S
N207   H715    1.045   .     S
N207   H964    1.046   .     S
C208   H716    1.111   .     S
C208   H717    1.111   .     S
C208   H718    1.111   .     S
N209   C210    1.457   .     S
N209   H719    1.045   .     S
N209   H720    1.045   .     S
N209   H971    1.045   .     S
C210   H721    1.111   .     S
C210   H722    1.111   .     S
C210   H723    1.107   .     S
N211   C212    1.457   .     S
N211   H724    1.044   .     S
N211   H725    1.045   .     S
N211   H944    1.045   .     S
C212   H726    1.111   .     S
C212   H727    1.111   .     S
C212   H728    1.110   .     S
N213   H729    1.046   .     S
N213   H730    1.045   .     S
N213   H947    1.046   .     S
N213   C214    1.457   1_554 S
C214   H731    1.111   .     S
C214   H732    1.110   .     S
C214   H733    1.111   .     S
C214   N213    1.457   1_556 S
N215   C216    1.457   .     S
N215   H734    1.045   .     S
N215   H735    1.045   .     S
N215   H935    1.045   .     S
C216   H736    1.111   .     S
C216   H737    1.110   .     S
C216   H738    1.111   .     S
In217  O226    2.050   .     S
In217  O227    2.011   .     S
In217  O232    1.998   .     S
In217  O233    1.975   .     S
In217  O238    2.074   .     S
In217  O602    2.009   .     S
In218  O223    2.097   .     S
In218  O225    2.022   .     S
In218  O229    2.010   .     S
In218  O451    2.034   .     S
In218  O453    2.017   .     S
In218  O522    2.009   .     S
In218  O601    2.005   .     S
In219  O220    2.054   .     S
In219  O231    1.968   .     S
In219  O440    2.088   .     S
In219  O639    2.029   .     S
O220   C257    1.407   .     S
O221   C245    1.219   .     D
O222   C268    1.219   .     D
O223   C245    1.415   .     S
O224   C268    1.410   .     S
O224   In435   2.088   .     S
O225   C241    1.265   .     A
O226   C258    1.405   .     S
O227   C266    1.270   .     A
O228   C253    1.268   .     A
O229   C241    1.264   .     A
O230   C253    1.261   .     A
O231   C643    1.277   .     A
O232   C266    1.266   .     A
O233   C603    1.279   .     A
O234   In506   2.009   .     S
O234   C644    1.290   .     A
O235   C263    1.259   .     A
O235   In434   2.034   .     S
O236   C257    1.218   .     D
O237   C263    1.257   .     A
O237   In434   2.019   .     S
O238   C262    1.408   .     S
O239   C262    1.219   .     D
O240   C258    1.218   .     D
C241   C267    1.513   .     S
C242   C248    1.416   .     A
C242   C263    1.511   .     S
C242   C250    1.419   1_556 A
C243   H244    1.081   .     S
C243   C272    1.408   .     A
C243   C604    1.412   .     A
C245   C265    1.516   .     S
C246   H247    1.083   .     S
C246   C254    1.407   .     A
C246   C642    1.410   .     A
C248   H249    1.083   .     S
C248   C252    1.414   .     A
C250   H251    1.083   .     S
C250   C259    1.421   .     A
C250   C242    1.419   1_554 A
C252   C260    1.416   .     A
C252   C262    1.508   .     S
C253   C259    1.510   .     S
C254   C258    1.494   .     S
C254   C640    1.412   .     A
C255   H256    1.084   .     S
C255   C264    1.417   .     A
C255   C267    1.417   .     A
C257   C272    1.497   .     S
C259   C260    1.412   1_554 S
C260   H261    1.084   .     S
C260   C259    1.412   1_556 S
C264   C266    1.513   .     S
C264   C275    1.416   .     A
C265   C269    1.416   .     A
C265   C645    1.414   .     A
C267   C273    1.420   .     A
C268   C271    1.513   .     S
C269   H270    1.082   .     S
C269   C641    1.426   .     A
C271   C273    1.419   .     A
C271   C275    1.419   .     A
C272   C605    1.412   .     A
C273   H274    1.083   .     S
C275   H276    1.082   .     S
N277   C278    1.458   .     S
N277   H739    1.045   .     S
N277   H740    1.045   .     S
N277   H955    1.046   .     S
C278   H741    1.111   .     S
C278   H742    1.111   .     S
C278   H743    1.111   .     S
N279   C280    1.457   .     S
N279   H744    1.045   .     S
N279   H745    1.045   .     S
N279   H975    1.044   .     S
C280   H746    1.111   .     S
C280   H747    1.110   .     S
C280   H748    1.111   .     S
N281   C282    1.457   .     S
N281   H749    1.045   .     S
N281   H750    1.045   .     S
N281   H956    1.046   .     S
C282   H751    1.111   .     S
C282   H752    1.107   .     S
C282   H753    1.111   .     S
N283   C284    1.455   .     S
N283   H754    1.046   .     S
N283   H755    1.045   .     S
C284   H756    1.111   .     S
C284   H757    1.110   .     S
C284   H758    1.112   .     S
N285   C286    1.458   .     S
N285   H759    1.045   .     S
N285   H760    1.045   .     S
N285   H957    1.046   .     S
C286   H761    1.110   .     S
C286   H762    1.111   .     S
C286   H763    1.111   .     S
N287   C288    1.457   .     S
N287   H764    1.044   .     S
N287   H765    1.045   .     S
N287   H968    1.045   .     S
C288   H766    1.111   .     S
C288   H767    1.110   .     S
C288   H768    1.110   .     S
In289  O299    2.005   .     S
In289  O304    1.993   .     S
In289  O305    1.969   .     S
In289  O310    2.072   .     S
In289  O594    2.005   .     S
In289  O298    2.047   1_565 D
In290  O297    2.023   .     S
In290  O301    2.010   .     S
In290  O593    2.005   .     S
In290  O295    2.098   1_565 S
In291  O303    1.970   .     S
In291  O372    2.016   .     S
In291  O374    2.002   .     S
In291  O629    2.028   .     S
In291  O292    2.053   1_545 A
O292   C329    1.407   .     S
O292   In291   2.053   1_565 A
O293   C317    1.219   .     D
O294   C340    1.219   .     D
O295   C317    1.415   .     S
O295   In290   2.098   1_545 S
O296   C340    1.410   .     S
O297   C313    1.265   .     A
O298   C330    1.405   .     S
O298   In289   2.047   1_545 D
O299   C338    1.272   .     A
O300   C325    1.268   .     A
O300   In363   2.013   .     S
O301   C313    1.263   .     A
O302   C325    1.261   .     A
O302   In363   2.003   .     S
O303   C633    1.277   .     A
O304   C338    1.269   .     A
O305   C595    1.278   .     A
O306   C634    1.290   .     A
O307   C335    1.259   .     A
O308   C329    1.218   .     D
O309   C335    1.257   .     A
O310   C334    1.407   .     S
O311   C334    1.218   .     D
O312   C330    1.219   .     D
C313   C339    1.513   .     S
C314   C320    1.414   .     A
C314   C322    1.418   .     A
C314   C335    1.510   .     S
C315   H316    1.081   .     S
C315   C344    1.407   .     A
C315   C596    1.412   .     A
C317   C337    1.516   .     S
C318   H319    1.082   .     S
C318   C326    1.407   .     A
C318   C632    1.410   .     A
C320   H321    1.083   .     S
C320   C324    1.414   .     A
C322   H323    1.083   .     S
C322   C331    1.421   .     A
C324   C332    1.417   .     A
C324   C334    1.508   .     S
C325   C331    1.511   .     S
C326   C330    1.494   .     S
C326   C630    1.411   .     A
C327   C339    1.417   .     A
C327   H328    1.084   1_655 A
C327   C336    1.417   1_655 A
H328   C327    1.084   1_455 A
C329   C344    1.496   .     S
C331   C332    1.413   .     A
C332   H333    1.083   .     S
C336   C338    1.512   .     S
C336   C327    1.417   1_455 A
C336   C347    1.416   1_465 A
C337   C341    1.416   .     A
C337   C635    1.414   .     A
C339   C345    1.420   1_565 A
C340   C343    1.512   .     S
C341   H342    1.082   .     S
C341   C631    1.426   .     A
C343   C345    1.419   .     A
C343   C347    1.419   .     A
C344   C597    1.412   .     A
C345   H346    1.083   .     S
C345   C339    1.420   1_545 A
C347   H348    1.084   .     S
C347   C336    1.416   1_645 A
N349   C350    1.458   .     S
N349   H769    1.045   .     S
N349   H770    1.045   .     S
N349   H963    1.045   .     S
C350   H771    1.111   .     S
C350   H772    1.111   .     S
C350   H773    1.111   .     S
N351   C352    1.457   .     S
N351   H774    1.045   .     S
N351   H775    1.045   .     S
N351   H982    1.045   .     S
C352   H776    1.111   .     S
C352   H777    1.111   .     S
C352   H778    1.111   .     S
N353   C354    1.457   .     S
N353   H779    1.045   .     S
N353   H780    1.045   .     S
N353   H972    1.045   .     S
C354   H781    1.107   .     S
C354   H782    1.111   .     S
C354   H783    1.110   .     S
N355   C356    1.456   .     S
N355   H784    1.045   .     S
N355   H785    1.045   .     S
N355   H945    1.045   .     S
C356   H786    1.111   .     S
C356   H787    1.111   .     S
C356   H788    1.110   .     S
N357   H789    1.046   .     S
N357   H790    1.045   .     S
N357   H948    1.046   .     S
N357   C358    1.457   1_554 S
C358   H791    1.111   .     S
C358   H792    1.111   .     S
C358   H793    1.109   .     S
C358   N357    1.457   1_556 S
N359   C360    1.458   .     S
N359   H794    1.044   .     S
N359   H795    1.045   .     S
N359   H934    1.045   .     S
C360   H796    1.111   .     S
C360   H797    1.111   .     S
C360   H798    1.110   .     S
In361  O371    2.004   .     S
In361  O376    1.993   .     S
In361  O377    1.970   .     S
In361  O382    2.073   .     S
In361  O602    2.004   .     S
In361  O370    2.047   1_545 A
In362  O369    2.020   .     S
In362  O373    2.009   .     S
In362  O601    2.005   .     S
In362  O367    2.098   1_545 S
In363  O375    1.969   .     S
In363  O639    2.029   .     S
In363  O364    2.054   1_565 S
O364   C401    1.407   .     S
O364   In363   2.054   1_545 S
O365   C389    1.220   .     D
O366   C412    1.218   .     D
O367   C389    1.415   .     S
O367   In362   2.098   1_565 S
O368   C412    1.409   .     S
O369   C385    1.265   .     A
O370   C402    1.404   .     S
O370   In361   2.047   1_565 A
O371   C410    1.272   .     A
O372   C397    1.269   .     A
O373   C385    1.264   .     A
O374   C397    1.261   .     A
O375   C643    1.277   .     A
O376   C410    1.268   .     A
O377   C603    1.278   .     A
O378   C644    1.290   .     A
O379   C407    1.259   .     A
O380   C401    1.219   .     D
O381   C407    1.257   .     A
O382   C406    1.407   .     S
O383   C406    1.218   .     D
O384   C402    1.219   .     D
C385   C411    1.511   .     S
C386   C392    1.415   .     A
C386   C407    1.511   .     S
C386   C394    1.418   1_556 S
C387   H388    1.082   .     S
C387   C416    1.409   .     A
C387   C604    1.413   .     A
C389   C409    1.516   .     S
C390   H391    1.083   .     S
C390   C398    1.407   .     A
C390   C642    1.411   .     A
C392   H393    1.083   .     S
C392   C396    1.414   .     A
C394   H395    1.083   .     S
C394   C403    1.421   .     A
C394   C386    1.418   1_554 S
C396   C404    1.417   .     A
C396   C406    1.509   .     S
C397   C403    1.511   .     S
C398   C402    1.494   .     S
C398   C640    1.411   .     A
C399   H400    1.083   .     S
C399   C408    1.417   .     A
C399   C411    1.416   .     A
C401   C416    1.497   .     S
C403   C404    1.413   1_554 S
C404   H405    1.083   .     S
C404   C403    1.413   1_556 S
C408   C410    1.512   .     S
C408   C419    1.416   1_545 A
C409   C413    1.416   .     A
C409   C645    1.414   .     A
C411   C417    1.419   1_545 A
C412   C415    1.511   .     S
C413   H414    1.082   .     S
C413   C641    1.426   .     A
C415   C417    1.418   .     A
C415   C419    1.418   .     A
C416   C605    1.412   .     A
C417   H418    1.083   .     S
C417   C411    1.419   1_565 A
C419   H420    1.083   .     S
C419   C408    1.416   1_565 A
N421   C422    1.458   .     S
N421   H799    1.045   .     S
N421   H800    1.045   .     S
N421   H958    1.045   .     S
C422   H801    1.111   .     S
C422   H802    1.111   .     S
C422   H803    1.111   .     S
N423   C424    1.456   .     S
N423   H804    1.045   .     S
N423   H805    1.045   .     S
C424   H806    1.109   .     S
C424   H807    1.110   .     S
C424   H808    1.110   .     S
N425   C426    1.457   .     S
N425   H809    1.045   .     S
N425   H810    1.045   .     S
N425   H950    1.045   .     S
C426   H811    1.111   .     S
C426   H812    1.111   .     S
C426   H813    1.109   .     S
N427   C428    1.455   .     S
N427   H814    1.045   .     S
N427   H815    1.046   .     S
C428   H816    1.111   .     S
C428   H817    1.109   .     S
C428   H818    1.111   .     S
N429   C430    1.457   .     S
N429   H819    1.046   .     S
N429   H820    1.045   .     S
N429   H959    1.046   .     S
C430   H821    1.111   .     S
C430   H822    1.111   .     S
C430   H823    1.111   .     S
N431   C432    1.458   .     S
N431   H824    1.045   .     S
N431   H825    1.044   .     S
N431   H966    1.045   .     S
C432   H826    1.111   .     S
C432   H827    1.111   .     S
C432   H828    1.111   .     S
In433  O442    2.050   .     S
In433  O443    2.005   .     S
In433  O448    1.994   .     S
In433  O449    1.971   .     S
In433  O454    2.072   .     S
In433  O578    2.009   .     S
In434  O439    2.097   .     S
In434  O441    2.022   .     S
In434  O445    2.011   .     S
In434  O577    2.005   .     S
In435  O436    2.054   .     S
In435  O447    1.970   .     S
In435  O516    2.013   .     S
In435  O518    2.002   .     S
In435  O609    2.029   .     S
O436   C473    1.407   .     S
O437   C461    1.220   .     D
O438   C484    1.219   .     D
O439   C461    1.415   .     S
O440   C484    1.410   .     S
O441   C457    1.265   .     A
O442   C474    1.406   .     S
O443   C482    1.272   .     A
O444   C469    1.269   .     A
O444   In507   2.013   .     S
O445   C457    1.263   .     A
O446   C469    1.261   .     A
O446   In507   2.002   .     S
O447   C613    1.277   .     A
O448   C482    1.268   .     A
O449   C579    1.279   .     A
O450   C614    1.290   .     A
O451   C479    1.259   .     A
O452   C473    1.219   .     D
O453   C479    1.257   .     A
O454   C478    1.407   .     S
O455   C478    1.218   .     D
O456   C474    1.218   .     D
C457   C483    1.513   .     S
C458   C464    1.415   .     A
C458   C466    1.418   .     A
C458   C479    1.510   .     S
C459   H460    1.081   .     S
C459   C488    1.408   .     A
C459   C580    1.412   .     A
C461   C481    1.516   .     S
C462   H463    1.083   .     S
C462   C470    1.407   .     A
C462   C612    1.410   .     A
C464   H465    1.083   .     S
C464   C468    1.414   .     A
C466   H467    1.083   .     S
C466   C475    1.421   .     A
C468   C476    1.417   .     A
C468   C478    1.508   .     S
C469   C475    1.511   .     S
C470   C474    1.495   .     S
C470   C610    1.413   .     A
C471   C483    1.417   .     A
C471   H472    1.084   1_455 A
C471   C480    1.418   1_455 A
H472   C471    1.084   1_655 A
C473   C488    1.497   .     S
C475   C476    1.413   .     A
C476   H477    1.084   .     S
C480   C482    1.513   .     S
C480   C471    1.418   1_655 A
C480   C491    1.416   1_655 S
C481   C485    1.416   .     A
C481   C615    1.414   .     A
C483   C489    1.420   .     A
C484   C487    1.512   .     S
C485   H486    1.082   .     S
C485   C611    1.427   .     A
C487   C489    1.419   .     A
C487   C491    1.419   .     A
C488   C581    1.412   .     A
C489   H490    1.083   .     S
C491   H492    1.083   .     S
C491   C480    1.416   1_455 S
N493   C494    1.458   .     S
N493   H829    1.045   .     S
N493   H830    1.045   .     S
N493   H942    1.045   .     S
C494   H831    1.111   .     S
C494   H832    1.111   .     S
C494   H833    1.111   .     S
N495   C496    1.457   .     S
N495   H834    1.045   .     S
N495   H835    1.045   .     S
N495   H938    1.045   .     S
C496   H836    1.111   .     S
C496   H837    1.111   .     S
C496   H838    1.111   .     S
N497   C498    1.457   .     S
N497   H839    1.045   .     S
N497   H840    1.045   .     S
N497   H936    1.045   .     S
C498   H841    1.107   .     S
C498   H842    1.111   .     S
C498   H843    1.111   .     S
N499   C500    1.457   .     S
N499   H844    1.044   .     S
N499   H845    1.046   .     S
N499   H974    1.044   .     S
C500   H846    1.111   .     S
C500   H847    1.111   .     S
C500   H848    1.110   .     S
N501   H849    1.046   .     S
N501   H850    1.046   .     S
N501   H976    1.046   .     S
N501   C502    1.457   1_556 S
C502   H851    1.111   .     S
C502   H852    1.110   .     S
C502   H853    1.111   .     S
C502   N501    1.457   1_554 S
N503   C504    1.458   .     S
N503   H854    1.044   .     S
N503   H855    1.045   .     S
N503   H949    1.044   .     S
C504   H856    1.111   .     S
C504   H857    1.111   .     S
C504   H858    1.110   .     S
In505  O514    2.050   .     S
In505  O515    2.005   .     S
In505  O520    1.994   .     S
In505  O521    1.972   .     S
In505  O526    2.072   .     S
In505  O586    2.010   .     S
In506  O511    2.097   .     S
In506  O513    2.021   .     S
In506  O517    2.010   .     S
In506  O585    2.005   .     S
In507  O508    2.055   .     S
In507  O519    1.970   .     S
In507  O619    2.031   .     S
O508   C545    1.407   .     S
O509   C533    1.219   .     D
O510   C556    1.219   .     D
O511   C533    1.414   .     S
O512   C556    1.410   .     S
O513   C529    1.265   .     A
O514   C546    1.405   .     S
O515   C554    1.272   .     A
O516   C541    1.269   .     A
O517   C529    1.264   .     A
O518   C541    1.261   .     A
O519   C623    1.277   .     A
O520   C554    1.268   .     A
O521   C587    1.278   .     A
O522   C624    1.291   .     A
O523   C551    1.259   .     A
O524   C545    1.219   .     D
O525   C551    1.257   .     A
O526   C550    1.407   .     S
O527   C550    1.219   .     D
O528   C546    1.218   .     D
C529   C555    1.512   .     S
C530   C536    1.415   .     A
C530   C551    1.511   .     S
C530   C538    1.418   1_554 S
C531   H532    1.082   .     S
C531   C560    1.408   .     A
C531   C588    1.412   .     A
C533   C553    1.516   .     S
C534   H535    1.083   .     S
C534   C542    1.407   .     A
C534   C622    1.410   .     A
C536   H537    1.083   .     S
C536   C540    1.414   .     A
C538   H539    1.083   .     S
C538   C547    1.422   .     A
C538   C530    1.418   1_556 S
C540   C548    1.416   .     A
C540   C550    1.508   .     S
C541   C547    1.510   .     S
C542   C546    1.495   .     S
C542   C620    1.412   .     A
C543   H544    1.084   .     S
C543   C552    1.417   .     A
C543   C555    1.417   .     A
C545   C560    1.497   .     S
C547   C548    1.412   1_556 S
C548   H549    1.083   .     S
C548   C547    1.412   1_554 S
C552   C554    1.513   .     S
C552   C563    1.415   .     A
C553   C557    1.416   .     A
C553   C625    1.414   .     A
C555   C561    1.419   .     A
C556   C559    1.512   .     S
C557   H558    1.082   .     S
C557   C621    1.426   .     A
C559   C561    1.418   .     A
C559   C563    1.419   .     A
C560   C589    1.413   .     A
C561   H562    1.083   .     S
C563   H564    1.082   .     S
N565   C566    1.458   .     S
N565   H859    1.045   .     S
N565   H860    1.045   .     S
N565   H953    1.045   .     S
C566   H861    1.111   .     S
C566   H862    1.111   .     S
C566   H863    1.111   .     S
N567   C568    1.457   .     S
N567   H864    1.046   .     S
N567   H865    1.045   .     S
N567   H943    1.044   .     S
C568   H866    1.111   .     S
C568   H867    1.111   .     S
C568   H868    1.111   .     S
N569   C570    1.457   .     S
N569   H869    1.045   .     S
N569   H870    1.045   .     S
N569   H967    1.045   .     S
C570   H871    1.111   .     S
C570   H872    1.107   .     S
C570   H873    1.111   .     S
N571   C572    1.457   .     S
N571   H874    1.045   .     S
N571   H875    1.045   .     S
N571   H940    1.045   .     S
C572   H876    1.110   .     S
C572   H877    1.111   .     S
C572   H878    1.111   .     S
N573   C574    1.457   .     S
N573   H879    1.044   .     S
N573   H880    1.045   .     S
N573   H952    1.046   .     S
C574   H881    1.111   .     S
C574   H882    1.111   .     S
C574   H883    1.111   .     S
N575   C576    1.458   .     S
N575   H884    1.044   .     S
N575   H885    1.044   .     S
N575   H973    1.045   .     S
C576   H886    1.111   .     S
C576   H887    1.111   .     S
C576   H888    1.111   .     S
C579   C580    1.497   .     S
C581   H582    1.084   .     S
N583   C584    1.457   .     S
N583   H889    1.046   .     S
N583   H890    1.046   .     S
N583   H981    1.045   .     S
C584   H891    1.111   .     S
C584   H892    1.111   .     S
C584   H893    1.111   .     S
C587   C588    1.496   .     S
C589   H590    1.083   .     S
N591   C592    1.457   .     S
N591   H894    1.045   .     S
N591   H895    1.045   .     S
N591   H954    1.046   .     S
C592   H896    1.111   .     S
C592   H897    1.111   .     S
C592   H898    1.111   .     S
C595   C596    1.497   .     S
C597   H598    1.084   .     S
N599   C600    1.457   .     S
N599   H899    1.046   .     S
N599   H900    1.045   .     S
N599   H961    1.045   .     S
C600   H901    1.111   .     S
C600   H902    1.111   .     S
C600   H903    1.111   .     S
C603   C604    1.497   .     S
C605   H606    1.084   .     S
N607   C608    1.457   .     S
N607   H904    1.046   .     S
N607   H905    1.046   .     S
N607   H965    1.045   .     S
C608   H906    1.111   .     S
C608   H907    1.111   .     S
C608   H908    1.111   .     S
C610   H909    1.083   .     S
C611   C614    1.520   1_456 S
C612   C613    1.495   .     S
C614   C611    1.520   1_654 S
C615   H616    1.084   .     S
N617   C618    1.457   .     S
N617   H910    1.045   .     S
N617   H911    1.045   .     S
N617   H946    1.045   .     S
C618   H912    1.111   .     S
C618   H913    1.111   .     S
C618   H914    1.109   .     S
C620   H915    1.084   .     S
C621   C624    1.520   .     S
C622   C623    1.494   .     S
C625   H626    1.084   .     S
N627   C628    1.458   .     S
N627   H916    1.045   .     S
N627   H917    1.045   .     S
N627   H939    1.045   .     S
C628   H918    1.111   .     S
C628   H919    1.111   .     S
C628   H920    1.111   .     S
C630   H921    1.083   .     S
C631   C634    1.520   1_654 S
C632   C633    1.495   .     S
C634   C631    1.520   1_456 S
C635   H636    1.084   .     S
N637   C638    1.456   .     S
N637   H922    1.046   .     S
N637   H923    1.045   .     S
C638   H924    1.111   .     S
C638   H925    1.110   .     S
C638   H926    1.109   .     S
C640   H927    1.084   .     S
C641   C644    1.520   .     S
C642   C643    1.493   .     S
C645   H646    1.084   .     S
N647   C648    1.459   .     S
N647   H928    1.045   .     S
N647   H929    1.045   .     S
N647   H962    1.045   .     S
C648   H930    1.111   .     S
C648   H931    1.110   .     S
C648   H932    1.111   .     S
