data_image0
_cell_length_a       49.62
_cell_length_b       50.589
_cell_length_c       6.059
_cell_angle_alpha    90
_cell_angle_beta     90
_cell_angle_gamma    90

_symmetry_space_group_name_H-M    "P 1"
_symmetry_int_tables_number       1

loop_
  _symmetry_equiv_pos_as_xyz
  'x, y, z'

loop_
  _atom_site_label
  _atom_site_occupancy
  _atom_site_fract_x
  _atom_site_fract_y
  _atom_site_fract_z
  _atom_site_thermal_displace_type
  _atom_site_B_iso_or_equiv
  _atom_site_type_symbol
  Zn1      1.0000 0.87469  0.13747  0.14012  Biso   1.000  Zn
  Cl1      1.0000 0.86018  0.10593  0.36470  Biso   1.000  Cl
  Cl2      1.0000 0.88733  0.17672  0.27700  Biso   1.000  Cl
  Cl3      1.0000 0.71049  0.24256  0.22050  Biso   1.000  Cl
  C1       1.0000 0.84712  0.15829  0.73800  Biso   1.000  C
  H1       1.0000 0.86350  0.16760  0.71690  Biso   1.000  H
  C2       1.0000 0.82630  0.16249  0.58610  Biso   1.000  C
  H2       1.0000 0.82840  0.17410  0.46390  Biso   1.000  H
  C3       1.0000 0.80230  0.14876  0.62330  Biso   1.000  C
  C4       1.0000 0.80019  0.13160  0.79030  Biso   1.000  C
  H3       1.0000 0.78400  0.12180  0.81150  Biso   1.000  H
  C5       1.0000 0.82212  0.12812  0.93420  Biso   1.000  C
  H4       1.0000 0.82070  0.11570  0.05140  Biso   1.000  H
  C6       1.0000 0.77797  0.15456  0.47650  Biso   1.000  C
  C7       1.0000 0.75664  0.17305  0.19000  Biso   1.000  C
  C8       1.0000 0.73272  0.15062  0.44100  Biso   1.000  C
  C9       1.0000 0.75685  0.18899  0.99180  Biso   1.000  C
  C10      1.0000 0.78021  0.20074  0.90540  Biso   1.000  C
  H5       1.0000 0.79720  0.19770  0.97250  Biso   1.000  H
  C11      1.0000 0.77814  0.21648  0.72460  Biso   1.000  C
  H6       1.0000 0.79400  0.22500  0.67240  Biso   1.000  H
  C12      1.0000 0.73255  0.20860  0.69360  Biso   1.000  C
  H7       1.0000 0.71610  0.21120  0.61610  Biso   1.000  H
  C13      1.0000 0.73233  0.19358  0.87050  Biso   1.000  C
  H8       1.0000 0.71600  0.18570  0.91850  Biso   1.000  H
  C14      1.0000 0.70642  0.14087  0.54270  Biso   1.000  C
  C15      1.0000 0.68224  0.14660  0.43080  Biso   1.000  C
  H9       1.0000 0.68180  0.15590  0.29460  Biso   1.000  H
  C16      1.0000 0.65828  0.13728  0.53900  Biso   1.000  C
  H10      1.0000 0.64140  0.14050  0.47030  Biso   1.000  H
  C17      1.0000 0.68232  0.11964  0.82810  Biso   1.000  C
  H11      1.0000 0.68240  0.11020  0.96350  Biso   1.000  H
  C18      1.0000 0.70670  0.12800  0.73800  Biso   1.000  C
  H12      1.0000 0.72320  0.12470  0.81270  Biso   1.000  H
  N1       1.0000 0.75476  0.14377  0.55900  Biso   1.000  N
  N2       1.0000 0.78016  0.16889  0.29930  Biso   1.000  N
  N3       1.0000 0.73233  0.16394  0.25800  Biso   1.000  N
  N4       1.0000 0.75514  0.22069  0.61590  Biso   1.000  N
  N5       1.0000 0.84535  0.14210  0.90950  Biso   1.000  N
  N6       1.0000 0.65833  0.12472  0.72640  Biso   1.000  N
  Zn2      1.0000 0.87469  0.63747  0.64012  Biso   1.000  Zn
  Cl4      1.0000 0.86018  0.60593  0.86470  Biso   1.000  Cl
  Cl5      1.0000 0.88733  0.67672  0.77700  Biso   1.000  Cl
  Cl6      1.0000 0.71049  0.74256  0.72050  Biso   1.000  Cl
  C19      1.0000 0.84712  0.65829  0.23800  Biso   1.000  C
  H13      1.0000 0.86350  0.66760  0.21690  Biso   1.000  H
  C20      1.0000 0.82630  0.66249  0.08610  Biso   1.000  C
  H14      1.0000 0.82840  0.67410  0.96390  Biso   1.000  H
  C21      1.0000 0.80230  0.64876  0.12330  Biso   1.000  C
  C22      1.0000 0.80019  0.63160  0.29030  Biso   1.000  C
  H15      1.0000 0.78400  0.62180  0.31150  Biso   1.000  H
  C23      1.0000 0.82212  0.62812  0.43420  Biso   1.000  C
  H16      1.0000 0.82070  0.61570  0.55140  Biso   1.000  H
  C24      1.0000 0.77797  0.65456  0.97650  Biso   1.000  C
  C25      1.0000 0.75664  0.67305  0.69000  Biso   1.000  C
  C26      1.0000 0.73272  0.65062  0.94100  Biso   1.000  C
  C27      1.0000 0.75685  0.68899  0.49180  Biso   1.000  C
  C28      1.0000 0.78021  0.70074  0.40540  Biso   1.000  C
  H17      1.0000 0.79720  0.69770  0.47250  Biso   1.000  H
  C29      1.0000 0.77814  0.71648  0.22460  Biso   1.000  C
  H18      1.0000 0.79400  0.72500  0.17240  Biso   1.000  H
  C30      1.0000 0.73255  0.70860  0.19360  Biso   1.000  C
  H19      1.0000 0.71610  0.71120  0.11610  Biso   1.000  H
  C31      1.0000 0.73233  0.69358  0.37050  Biso   1.000  C
  H20      1.0000 0.71600  0.68570  0.41850  Biso   1.000  H
  C32      1.0000 0.70642  0.64087  0.04270  Biso   1.000  C
  C33      1.0000 0.68224  0.64660  0.93080  Biso   1.000  C
  H21      1.0000 0.68180  0.65590  0.79460  Biso   1.000  H
  C34      1.0000 0.65828  0.63728  0.03900  Biso   1.000  C
  H22      1.0000 0.64140  0.64050  0.97030  Biso   1.000  H
  C35      1.0000 0.68232  0.61964  0.32810  Biso   1.000  C
  H23      1.0000 0.68240  0.61020  0.46350  Biso   1.000  H
  C36      1.0000 0.70670  0.62800  0.23800  Biso   1.000  C
  H24      1.0000 0.72320  0.62470  0.31270  Biso   1.000  H
  N7       1.0000 0.75476  0.64377  0.05900  Biso   1.000  N
  N8       1.0000 0.78016  0.66889  0.79930  Biso   1.000  N
  N9       1.0000 0.73233  0.66394  0.75800  Biso   1.000  N
  N10      1.0000 0.75514  0.72069  0.11590  Biso   1.000  N
  N11      1.0000 0.84535  0.64210  0.40950  Biso   1.000  N
  N12      1.0000 0.65833  0.62472  0.22640  Biso   1.000  N
  Zn3      1.0000 0.37469  0.13747  0.64012  Biso   1.000  Zn
  Cl7      1.0000 0.36018  0.10593  0.86470  Biso   1.000  Cl
  Cl8      1.0000 0.38733  0.17672  0.77700  Biso   1.000  Cl
  Cl9      1.0000 0.21049  0.24256  0.72050  Biso   1.000  Cl
  C37      1.0000 0.34712  0.15829  0.23800  Biso   1.000  C
  H25      1.0000 0.36350  0.16760  0.21690  Biso   1.000  H
  C38      1.0000 0.32630  0.16249  0.08610  Biso   1.000  C
  H26      1.0000 0.32840  0.17410  0.96390  Biso   1.000  H
  C39      1.0000 0.30230  0.14876  0.12330  Biso   1.000  C
  C40      1.0000 0.30019  0.13160  0.29030  Biso   1.000  C
  H27      1.0000 0.28400  0.12180  0.31150  Biso   1.000  H
  C41      1.0000 0.32212  0.12812  0.43420  Biso   1.000  C
  H28      1.0000 0.32070  0.11570  0.55140  Biso   1.000  H
  C42      1.0000 0.27797  0.15456  0.97650  Biso   1.000  C
  C43      1.0000 0.25664  0.17305  0.69000  Biso   1.000  C
  C44      1.0000 0.23272  0.15062  0.94100  Biso   1.000  C
  C45      1.0000 0.25685  0.18899  0.49180  Biso   1.000  C
  C46      1.0000 0.28021  0.20074  0.40540  Biso   1.000  C
  H29      1.0000 0.29720  0.19770  0.47250  Biso   1.000  H
  C47      1.0000 0.27814  0.21648  0.22460  Biso   1.000  C
  H30      1.0000 0.29400  0.22500  0.17240  Biso   1.000  H
  C48      1.0000 0.23255  0.20860  0.19360  Biso   1.000  C
  H31      1.0000 0.21610  0.21120  0.11610  Biso   1.000  H
  C49      1.0000 0.23233  0.19358  0.37050  Biso   1.000  C
  H32      1.0000 0.21600  0.18570  0.41850  Biso   1.000  H
  C50      1.0000 0.20642  0.14087  0.04270  Biso   1.000  C
  C51      1.0000 0.18224  0.14660  0.93080  Biso   1.000  C
  H33      1.0000 0.18180  0.15590  0.79460  Biso   1.000  H
  C52      1.0000 0.15828  0.13728  0.03900  Biso   1.000  C
  H34      1.0000 0.14140  0.14050  0.97030  Biso   1.000  H
  C53      1.0000 0.18232  0.11964  0.32810  Biso   1.000  C
  H35      1.0000 0.18240  0.11020  0.46350  Biso   1.000  H
  C54      1.0000 0.20670  0.12800  0.23800  Biso   1.000  C
  H36      1.0000 0.22320  0.12470  0.31270  Biso   1.000  H
  N13      1.0000 0.25476  0.14377  0.05900  Biso   1.000  N
  N14      1.0000 0.28016  0.16889  0.79930  Biso   1.000  N
  N15      1.0000 0.23233  0.16394  0.75800  Biso   1.000  N
  N16      1.0000 0.25514  0.22069  0.11590  Biso   1.000  N
  N17      1.0000 0.34535  0.14210  0.40950  Biso   1.000  N
  N18      1.0000 0.15833  0.12472  0.22640  Biso   1.000  N
  Zn4      1.0000 0.37469  0.63747  0.14012  Biso   1.000  Zn
  Cl10     1.0000 0.36018  0.60593  0.36470  Biso   1.000  Cl
  Cl11     1.0000 0.38733  0.67672  0.27700  Biso   1.000  Cl
  Cl12     1.0000 0.21049  0.74256  0.22050  Biso   1.000  Cl
  C55      1.0000 0.34712  0.65829  0.73800  Biso   1.000  C
  H37      1.0000 0.36350  0.66760  0.71690  Biso   1.000  H
  C56      1.0000 0.32630  0.66249  0.58610  Biso   1.000  C
  H38      1.0000 0.32840  0.67410  0.46390  Biso   1.000  H
  C57      1.0000 0.30230  0.64876  0.62330  Biso   1.000  C
  C58      1.0000 0.30019  0.63160  0.79030  Biso   1.000  C
  H39      1.0000 0.28400  0.62180  0.81150  Biso   1.000  H
  C59      1.0000 0.32212  0.62812  0.93420  Biso   1.000  C
  H40      1.0000 0.32070  0.61570  0.05140  Biso   1.000  H
  C60      1.0000 0.27797  0.65456  0.47650  Biso   1.000  C
  C61      1.0000 0.25664  0.67305  0.19000  Biso   1.000  C
  C62      1.0000 0.23272  0.65062  0.44100  Biso   1.000  C
  C63      1.0000 0.25685  0.68899  0.99180  Biso   1.000  C
  C64      1.0000 0.28021  0.70074  0.90540  Biso   1.000  C
  H41      1.0000 0.29720  0.69770  0.97250  Biso   1.000  H
  C65      1.0000 0.27814  0.71648  0.72460  Biso   1.000  C
  H42      1.0000 0.29400  0.72500  0.67240  Biso   1.000  H
  C66      1.0000 0.23255  0.70860  0.69360  Biso   1.000  C
  H43      1.0000 0.21610  0.71120  0.61610  Biso   1.000  H
  C67      1.0000 0.23233  0.69358  0.87050  Biso   1.000  C
  H44      1.0000 0.21600  0.68570  0.91850  Biso   1.000  H
  C68      1.0000 0.20642  0.64087  0.54270  Biso   1.000  C
  C69      1.0000 0.18224  0.64660  0.43080  Biso   1.000  C
  H45      1.0000 0.18180  0.65590  0.29460  Biso   1.000  H
  C70      1.0000 0.15828  0.63728  0.53900  Biso   1.000  C
  H46      1.0000 0.14140  0.64050  0.47030  Biso   1.000  H
  C71      1.0000 0.18232  0.61964  0.82810  Biso   1.000  C
  H47      1.0000 0.18240  0.61020  0.96350  Biso   1.000  H
  C72      1.0000 0.20670  0.62800  0.73800  Biso   1.000  C
  H48      1.0000 0.22320  0.62470  0.81270  Biso   1.000  H
  N19      1.0000 0.25476  0.64377  0.55900  Biso   1.000  N
  N20      1.0000 0.28016  0.66889  0.29930  Biso   1.000  N
  N21      1.0000 0.23233  0.66394  0.25800  Biso   1.000  N
  N22      1.0000 0.25514  0.72069  0.61590  Biso   1.000  N
  N23      1.0000 0.34535  0.64210  0.90950  Biso   1.000  N
  N24      1.0000 0.15833  0.62472  0.72640  Biso   1.000  N
  Zn5      1.0000 0.12531  0.86253  0.14012  Biso   1.000  Zn
  Cl13     1.0000 0.13982  0.89407  0.36470  Biso   1.000  Cl
  Cl14     1.0000 0.11267  0.82328  0.27700  Biso   1.000  Cl
  Cl15     1.0000 0.28951  0.75744  0.22050  Biso   1.000  Cl
  C73      1.0000 0.15288  0.84171  0.73800  Biso   1.000  C
  H49      1.0000 0.13650  0.83240  0.71690  Biso   1.000  H
  C74      1.0000 0.17370  0.83751  0.58610  Biso   1.000  C
  H50      1.0000 0.17160  0.82590  0.46390  Biso   1.000  H
  C75      1.0000 0.19770  0.85124  0.62330  Biso   1.000  C
  C76      1.0000 0.19981  0.86840  0.79030  Biso   1.000  C
  H51      1.0000 0.21600  0.87820  0.81150  Biso   1.000  H
  C77      1.0000 0.17788  0.87188  0.93420  Biso   1.000  C
  H52      1.0000 0.17930  0.88430  0.05140  Biso   1.000  H
  C78      1.0000 0.22203  0.84544  0.47650  Biso   1.000  C
  C79      1.0000 0.24336  0.82695  0.19000  Biso   1.000  C
  C80      1.0000 0.26728  0.84938  0.44100  Biso   1.000  C
  C81      1.0000 0.24315  0.81101  0.99180  Biso   1.000  C
  C82      1.0000 0.21979  0.79926  0.90540  Biso   1.000  C
  H53      1.0000 0.20280  0.80230  0.97250  Biso   1.000  H
  C83      1.0000 0.22186  0.78352  0.72460  Biso   1.000  C
  H54      1.0000 0.20600  0.77500  0.67240  Biso   1.000  H
  C84      1.0000 0.26745  0.79140  0.69360  Biso   1.000  C
  H55      1.0000 0.28390  0.78880  0.61610  Biso   1.000  H
  C85      1.0000 0.26767  0.80642  0.87050  Biso   1.000  C
  H56      1.0000 0.28400  0.81430  0.91850  Biso   1.000  H
  C86      1.0000 0.29358  0.85913  0.54270  Biso   1.000  C
  C87      1.0000 0.31776  0.85340  0.43080  Biso   1.000  C
  H57      1.0000 0.31820  0.84410  0.29460  Biso   1.000  H
  C88      1.0000 0.34172  0.86272  0.53900  Biso   1.000  C
  H58      1.0000 0.35860  0.85950  0.47030  Biso   1.000  H
  C89      1.0000 0.31768  0.88036  0.82810  Biso   1.000  C
  H59      1.0000 0.31760  0.88980  0.96350  Biso   1.000  H
  C90      1.0000 0.29330  0.87200  0.73800  Biso   1.000  C
  H60      1.0000 0.27680  0.87530  0.81270  Biso   1.000  H
  N25      1.0000 0.24524  0.85623  0.55900  Biso   1.000  N
  N26      1.0000 0.21984  0.83111  0.29930  Biso   1.000  N
  N27      1.0000 0.26767  0.83606  0.25800  Biso   1.000  N
  N28      1.0000 0.24486  0.77931  0.61590  Biso   1.000  N
  N29      1.0000 0.15465  0.85790  0.90950  Biso   1.000  N
  N30      1.0000 0.34167  0.87528  0.72640  Biso   1.000  N
  Zn6      1.0000 0.12531  0.36253  0.64012  Biso   1.000  Zn
  Cl16     1.0000 0.13982  0.39407  0.86470  Biso   1.000  Cl
  Cl17     1.0000 0.11267  0.32328  0.77700  Biso   1.000  Cl
  Cl18     1.0000 0.28951  0.25744  0.72050  Biso   1.000  Cl
  C91      1.0000 0.15288  0.34171  0.23800  Biso   1.000  C
  H61      1.0000 0.13650  0.33240  0.21690  Biso   1.000  H
  C92      1.0000 0.17370  0.33751  0.08610  Biso   1.000  C
  H62      1.0000 0.17160  0.32590  0.96390  Biso   1.000  H
  C93      1.0000 0.19770  0.35124  0.12330  Biso   1.000  C
  C94      1.0000 0.19981  0.36840  0.29030  Biso   1.000  C
  H63      1.0000 0.21600  0.37820  0.31150  Biso   1.000  H
  C95      1.0000 0.17788  0.37188  0.43420  Biso   1.000  C
  H64      1.0000 0.17930  0.38430  0.55140  Biso   1.000  H
  C96      1.0000 0.22203  0.34544  0.97650  Biso   1.000  C
  C97      1.0000 0.24336  0.32695  0.69000  Biso   1.000  C
  C98      1.0000 0.26728  0.34938  0.94100  Biso   1.000  C
  C99      1.0000 0.24315  0.31101  0.49180  Biso   1.000  C
  C100     1.0000 0.21979  0.29926  0.40540  Biso   1.000  C
  H65      1.0000 0.20280  0.30230  0.47250  Biso   1.000  H
  C101     1.0000 0.22186  0.28352  0.22460  Biso   1.000  C
  H66      1.0000 0.20600  0.27500  0.17240  Biso   1.000  H
  C102     1.0000 0.26745  0.29140  0.19360  Biso   1.000  C
  H67      1.0000 0.28390  0.28880  0.11610  Biso   1.000  H
  C103     1.0000 0.26767  0.30642  0.37050  Biso   1.000  C
  H68      1.0000 0.28400  0.31430  0.41850  Biso   1.000  H
  C104     1.0000 0.29358  0.35913  0.04270  Biso   1.000  C
  C105     1.0000 0.31776  0.35340  0.93080  Biso   1.000  C
  H69      1.0000 0.31820  0.34410  0.79460  Biso   1.000  H
  C106     1.0000 0.34172  0.36272  0.03900  Biso   1.000  C
  H70      1.0000 0.35860  0.35950  0.97030  Biso   1.000  H
  C107     1.0000 0.31768  0.38036  0.32810  Biso   1.000  C
  H71      1.0000 0.31760  0.38980  0.46350  Biso   1.000  H
  C108     1.0000 0.29330  0.37200  0.23800  Biso   1.000  C
  H72      1.0000 0.27680  0.37530  0.31270  Biso   1.000  H
  N31      1.0000 0.24524  0.35623  0.05900  Biso   1.000  N
  N32      1.0000 0.21984  0.33111  0.79930  Biso   1.000  N
  N33      1.0000 0.26767  0.33606  0.75800  Biso   1.000  N
  N34      1.0000 0.24486  0.27931  0.11590  Biso   1.000  N
  N35      1.0000 0.15465  0.35790  0.40950  Biso   1.000  N
  N36      1.0000 0.34167  0.37528  0.22640  Biso   1.000  N
  Zn7      1.0000 0.62531  0.86253  0.64012  Biso   1.000  Zn
  Cl19     1.0000 0.63982  0.89407  0.86470  Biso   1.000  Cl
  Cl20     1.0000 0.61267  0.82328  0.77700  Biso   1.000  Cl
  Cl21     1.0000 0.78951  0.75744  0.72050  Biso   1.000  Cl
  C109     1.0000 0.65288  0.84171  0.23800  Biso   1.000  C
  H73      1.0000 0.63650  0.83240  0.21690  Biso   1.000  H
  C110     1.0000 0.67370  0.83751  0.08610  Biso   1.000  C
  H74      1.0000 0.67160  0.82590  0.96390  Biso   1.000  H
  C111     1.0000 0.69770  0.85124  0.12330  Biso   1.000  C
  C112     1.0000 0.69981  0.86840  0.29030  Biso   1.000  C
  H75      1.0000 0.71600  0.87820  0.31150  Biso   1.000  H
  C113     1.0000 0.67788  0.87188  0.43420  Biso   1.000  C
  H76      1.0000 0.67930  0.88430  0.55140  Biso   1.000  H
  C114     1.0000 0.72203  0.84544  0.97650  Biso   1.000  C
  C115     1.0000 0.74336  0.82695  0.69000  Biso   1.000  C
  C116     1.0000 0.76728  0.84938  0.94100  Biso   1.000  C
  C117     1.0000 0.74315  0.81101  0.49180  Biso   1.000  C
  C118     1.0000 0.71979  0.79926  0.40540  Biso   1.000  C
  H77      1.0000 0.70280  0.80230  0.47250  Biso   1.000  H
  C119     1.0000 0.72186  0.78352  0.22460  Biso   1.000  C
  H78      1.0000 0.70600  0.77500  0.17240  Biso   1.000  H
  C120     1.0000 0.76745  0.79140  0.19360  Biso   1.000  C
  H79      1.0000 0.78390  0.78880  0.11610  Biso   1.000  H
  C121     1.0000 0.76767  0.80642  0.37050  Biso   1.000  C
  H80      1.0000 0.78400  0.81430  0.41850  Biso   1.000  H
  C122     1.0000 0.79358  0.85913  0.04270  Biso   1.000  C
  C123     1.0000 0.81776  0.85340  0.93080  Biso   1.000  C
  H81      1.0000 0.81820  0.84410  0.79460  Biso   1.000  H
  C124     1.0000 0.84172  0.86272  0.03900  Biso   1.000  C
  H82      1.0000 0.85860  0.85950  0.97030  Biso   1.000  H
  C125     1.0000 0.81768  0.88036  0.32810  Biso   1.000  C
  H83      1.0000 0.81760  0.88980  0.46350  Biso   1.000  H
  C126     1.0000 0.79330  0.87200  0.23800  Biso   1.000  C
  H84      1.0000 0.77680  0.87530  0.31270  Biso   1.000  H
  N37      1.0000 0.74524  0.85623  0.05900  Biso   1.000  N
  N38      1.0000 0.71984  0.83111  0.79930  Biso   1.000  N
  N39      1.0000 0.76767  0.83606  0.75800  Biso   1.000  N
  N40      1.0000 0.74486  0.77931  0.11590  Biso   1.000  N
  N41      1.0000 0.65465  0.85790  0.40950  Biso   1.000  N
  N42      1.0000 0.84167  0.87528  0.22640  Biso   1.000  N
  Zn8      1.0000 0.62531  0.36253  0.14012  Biso   1.000  Zn
  Cl22     1.0000 0.63982  0.39407  0.36470  Biso   1.000  Cl
  Cl23     1.0000 0.61267  0.32328  0.27700  Biso   1.000  Cl
  Cl24     1.0000 0.78951  0.25744  0.22050  Biso   1.000  Cl
  C127     1.0000 0.65288  0.34171  0.73800  Biso   1.000  C
  H85      1.0000 0.63650  0.33240  0.71690  Biso   1.000  H
  C128     1.0000 0.67370  0.33751  0.58610  Biso   1.000  C
  H86      1.0000 0.67160  0.32590  0.46390  Biso   1.000  H
  C129     1.0000 0.69770  0.35124  0.62330  Biso   1.000  C
  C130     1.0000 0.69981  0.36840  0.79030  Biso   1.000  C
  H87      1.0000 0.71600  0.37820  0.81150  Biso   1.000  H
  C131     1.0000 0.67788  0.37188  0.93420  Biso   1.000  C
  H88      1.0000 0.67930  0.38430  0.05140  Biso   1.000  H
  C132     1.0000 0.72203  0.34544  0.47650  Biso   1.000  C
  C133     1.0000 0.74336  0.32695  0.19000  Biso   1.000  C
  C134     1.0000 0.76728  0.34938  0.44100  Biso   1.000  C
  C135     1.0000 0.74315  0.31101  0.99180  Biso   1.000  C
  C136     1.0000 0.71979  0.29926  0.90540  Biso   1.000  C
  H89      1.0000 0.70280  0.30230  0.97250  Biso   1.000  H
  C137     1.0000 0.72186  0.28352  0.72460  Biso   1.000  C
  H90      1.0000 0.70600  0.27500  0.67240  Biso   1.000  H
  C138     1.0000 0.76745  0.29140  0.69360  Biso   1.000  C
  H91      1.0000 0.78390  0.28880  0.61610  Biso   1.000  H
  C139     1.0000 0.76767  0.30642  0.87050  Biso   1.000  C
  H92      1.0000 0.78400  0.31430  0.91850  Biso   1.000  H
  C140     1.0000 0.79358  0.35913  0.54270  Biso   1.000  C
  C141     1.0000 0.81776  0.35340  0.43080  Biso   1.000  C
  H93      1.0000 0.81820  0.34410  0.29460  Biso   1.000  H
  C142     1.0000 0.84172  0.36272  0.53900  Biso   1.000  C
  H94      1.0000 0.85860  0.35950  0.47030  Biso   1.000  H
  C143     1.0000 0.81768  0.38036  0.82810  Biso   1.000  C
  H95      1.0000 0.81760  0.38980  0.96350  Biso   1.000  H
  C144     1.0000 0.79330  0.37200  0.73800  Biso   1.000  C
  H96      1.0000 0.77680  0.37530  0.81270  Biso   1.000  H
  N43      1.0000 0.74524  0.35623  0.55900  Biso   1.000  N
  N44      1.0000 0.71984  0.33111  0.29930  Biso   1.000  N
  N45      1.0000 0.76767  0.33606  0.25800  Biso   1.000  N
  N46      1.0000 0.74486  0.27931  0.61590  Biso   1.000  N
  N47      1.0000 0.65465  0.35790  0.90950  Biso   1.000  N
  N48      1.0000 0.84167  0.37528  0.72640  Biso   1.000  N
  Zn9      1.0000 0.12469  0.11253  0.39012  Biso   1.000  Zn
  Cl25     1.0000 0.11018  0.14407  0.61470  Biso   1.000  Cl
  Cl26     1.0000 0.13733  0.07328  0.52700  Biso   1.000  Cl
  Cl27     1.0000 0.96049  0.00744  0.47050  Biso   1.000  Cl
  C145     1.0000 0.09712  0.09171  0.98800  Biso   1.000  C
  H97      1.0000 0.11350  0.08240  0.96690  Biso   1.000  H
  C146     1.0000 0.07630  0.08751  0.83610  Biso   1.000  C
  H98      1.0000 0.07840  0.07590  0.71390  Biso   1.000  H
  C147     1.0000 0.05230  0.10124  0.87330  Biso   1.000  C
  C148     1.0000 0.05019  0.11840  0.04030  Biso   1.000  C
  H99      1.0000 0.03400  0.12820  0.06150  Biso   1.000  H
  C149     1.0000 0.07212  0.12188  0.18420  Biso   1.000  C
  H100     1.0000 0.07070  0.13430  0.30140  Biso   1.000  H
  C150     1.0000 0.02797  0.09544  0.72650  Biso   1.000  C
  C151     1.0000 0.00664  0.07695  0.44000  Biso   1.000  C
  C152     1.0000 0.98272  0.09938  0.69100  Biso   1.000  C
  C153     1.0000 0.00685  0.06101  0.24180  Biso   1.000  C
  C154     1.0000 0.03021  0.04926  0.15540  Biso   1.000  C
  H101     1.0000 0.04720  0.05230  0.22250  Biso   1.000  H
  C155     1.0000 0.02814  0.03352  0.97460  Biso   1.000  C
  H102     1.0000 0.04400  0.02500  0.92240  Biso   1.000  H
  C156     1.0000 0.98255  0.04140  0.94360  Biso   1.000  C
  H103     1.0000 0.96610  0.03880  0.86610  Biso   1.000  H
  C157     1.0000 0.98233  0.05642  0.12050  Biso   1.000  C
  H104     1.0000 0.96600  0.06430  0.16850  Biso   1.000  H
  C158     1.0000 0.95642  0.10913  0.79270  Biso   1.000  C
  C159     1.0000 0.93224  0.10340  0.68080  Biso   1.000  C
  H105     1.0000 0.93180  0.09410  0.54460  Biso   1.000  H
  C160     1.0000 0.90828  0.11272  0.78900  Biso   1.000  C
  H106     1.0000 0.89140  0.10950  0.72030  Biso   1.000  H
  C161     1.0000 0.93232  0.13036  0.07810  Biso   1.000  C
  H107     1.0000 0.93240  0.13980  0.21350  Biso   1.000  H
  C162     1.0000 0.95670  0.12200  0.98800  Biso   1.000  C
  H108     1.0000 0.97320  0.12530  0.06270  Biso   1.000  H
  N49      1.0000 0.00476  0.10623  0.80900  Biso   1.000  N
  N50      1.0000 0.03016  0.08111  0.54930  Biso   1.000  N
  N51      1.0000 0.98233  0.08606  0.50800  Biso   1.000  N
  N52      1.0000 0.00514  0.02931  0.86590  Biso   1.000  N
  N53      1.0000 0.09535  0.10790  0.15950  Biso   1.000  N
  N54      1.0000 0.90833  0.12528  0.97640  Biso   1.000  N
  Zn10     1.0000 0.12469  0.61253  0.89012  Biso   1.000  Zn
  Cl28     1.0000 0.11018  0.64407  0.11470  Biso   1.000  Cl
  Cl29     1.0000 0.13733  0.57328  0.02700  Biso   1.000  Cl
  Cl30     1.0000 0.96049  0.50744  0.97050  Biso   1.000  Cl
  C163     1.0000 0.09712  0.59171  0.48800  Biso   1.000  C
  H109     1.0000 0.11350  0.58240  0.46690  Biso   1.000  H
  C164     1.0000 0.07630  0.58751  0.33610  Biso   1.000  C
  H110     1.0000 0.07840  0.57590  0.21390  Biso   1.000  H
  C165     1.0000 0.05230  0.60124  0.37330  Biso   1.000  C
  C166     1.0000 0.05019  0.61840  0.54030  Biso   1.000  C
  H111     1.0000 0.03400  0.62820  0.56150  Biso   1.000  H
  C167     1.0000 0.07212  0.62188  0.68420  Biso   1.000  C
  H112     1.0000 0.07070  0.63430  0.80140  Biso   1.000  H
  C168     1.0000 0.02797  0.59544  0.22650  Biso   1.000  C
  C169     1.0000 0.00664  0.57695  0.94000  Biso   1.000  C
  C170     1.0000 0.98272  0.59938  0.19100  Biso   1.000  C
  C171     1.0000 0.00685  0.56101  0.74180  Biso   1.000  C
  C172     1.0000 0.03021  0.54926  0.65540  Biso   1.000  C
  H113     1.0000 0.04720  0.55230  0.72250  Biso   1.000  H
  C173     1.0000 0.02814  0.53352  0.47460  Biso   1.000  C
  H114     1.0000 0.04400  0.52500  0.42240  Biso   1.000  H
  C174     1.0000 0.98255  0.54140  0.44360  Biso   1.000  C
  H115     1.0000 0.96610  0.53880  0.36610  Biso   1.000  H
  C175     1.0000 0.98233  0.55642  0.62050  Biso   1.000  C
  H116     1.0000 0.96600  0.56430  0.66850  Biso   1.000  H
  C176     1.0000 0.95642  0.60913  0.29270  Biso   1.000  C
  C177     1.0000 0.93224  0.60340  0.18080  Biso   1.000  C
  H117     1.0000 0.93180  0.59410  0.04460  Biso   1.000  H
  C178     1.0000 0.90828  0.61272  0.28900  Biso   1.000  C
  H118     1.0000 0.89140  0.60950  0.22030  Biso   1.000  H
  C179     1.0000 0.93232  0.63036  0.57810  Biso   1.000  C
  H119     1.0000 0.93240  0.63980  0.71350  Biso   1.000  H
  C180     1.0000 0.95670  0.62200  0.48800  Biso   1.000  C
  H120     1.0000 0.97320  0.62530  0.56270  Biso   1.000  H
  N55      1.0000 0.00476  0.60623  0.30900  Biso   1.000  N
  N56      1.0000 0.03016  0.58111  0.04930  Biso   1.000  N
  N57      1.0000 0.98233  0.58606  0.00800  Biso   1.000  N
  N58      1.0000 0.00514  0.52931  0.36590  Biso   1.000  N
  N59      1.0000 0.09535  0.60790  0.65950  Biso   1.000  N
  N60      1.0000 0.90833  0.62528  0.47640  Biso   1.000  N
  Zn11     1.0000 0.62469  0.11253  0.89012  Biso   1.000  Zn
  Cl31     1.0000 0.61018  0.14407  0.11470  Biso   1.000  Cl
  Cl32     1.0000 0.63733  0.07328  0.02700  Biso   1.000  Cl
  Cl33     1.0000 0.46049  0.00744  0.97050  Biso   1.000  Cl
  C181     1.0000 0.59712  0.09171  0.48800  Biso   1.000  C
  H121     1.0000 0.61350  0.08240  0.46690  Biso   1.000  H
  C182     1.0000 0.57630  0.08751  0.33610  Biso   1.000  C
  H122     1.0000 0.57840  0.07590  0.21390  Biso   1.000  H
  C183     1.0000 0.55230  0.10124  0.37330  Biso   1.000  C
  C184     1.0000 0.55019  0.11840  0.54030  Biso   1.000  C
  H123     1.0000 0.53400  0.12820  0.56150  Biso   1.000  H
  C185     1.0000 0.57212  0.12188  0.68420  Biso   1.000  C
  H124     1.0000 0.57070  0.13430  0.80140  Biso   1.000  H
  C186     1.0000 0.52797  0.09544  0.22650  Biso   1.000  C
  C187     1.0000 0.50664  0.07695  0.94000  Biso   1.000  C
  C188     1.0000 0.48272  0.09938  0.19100  Biso   1.000  C
  C189     1.0000 0.50685  0.06101  0.74180  Biso   1.000  C
  C190     1.0000 0.53021  0.04926  0.65540  Biso   1.000  C
  H125     1.0000 0.54720  0.05230  0.72250  Biso   1.000  H
  C191     1.0000 0.52814  0.03352  0.47460  Biso   1.000  C
  H126     1.0000 0.54400  0.02500  0.42240  Biso   1.000  H
  C192     1.0000 0.48255  0.04140  0.44360  Biso   1.000  C
  H127     1.0000 0.46610  0.03880  0.36610  Biso   1.000  H
  C193     1.0000 0.48233  0.05642  0.62050  Biso   1.000  C
  H128     1.0000 0.46600  0.06430  0.66850  Biso   1.000  H
  C194     1.0000 0.45642  0.10913  0.29270  Biso   1.000  C
  C195     1.0000 0.43224  0.10340  0.18080  Biso   1.000  C
  H129     1.0000 0.43180  0.09410  0.04460  Biso   1.000  H
  C196     1.0000 0.40828  0.11272  0.28900  Biso   1.000  C
  H130     1.0000 0.39140  0.10950  0.22030  Biso   1.000  H
  C197     1.0000 0.43232  0.13036  0.57810  Biso   1.000  C
  H131     1.0000 0.43240  0.13980  0.71350  Biso   1.000  H
  C198     1.0000 0.45670  0.12200  0.48800  Biso   1.000  C
  H132     1.0000 0.47320  0.12530  0.56270  Biso   1.000  H
  N61      1.0000 0.50476  0.10623  0.30900  Biso   1.000  N
  N62      1.0000 0.53016  0.08111  0.04930  Biso   1.000  N
  N63      1.0000 0.48233  0.08606  0.00800  Biso   1.000  N
  N64      1.0000 0.50514  0.02931  0.36590  Biso   1.000  N
  N65      1.0000 0.59535  0.10790  0.65950  Biso   1.000  N
  N66      1.0000 0.40833  0.12528  0.47640  Biso   1.000  N
  Zn12     1.0000 0.62469  0.61253  0.39012  Biso   1.000  Zn
  Cl34     1.0000 0.61018  0.64407  0.61470  Biso   1.000  Cl
  Cl35     1.0000 0.63733  0.57328  0.52700  Biso   1.000  Cl
  Cl36     1.0000 0.46049  0.50744  0.47050  Biso   1.000  Cl
  C199     1.0000 0.59712  0.59171  0.98800  Biso   1.000  C
  H133     1.0000 0.61350  0.58240  0.96690  Biso   1.000  H
  C200     1.0000 0.57630  0.58751  0.83610  Biso   1.000  C
  H134     1.0000 0.57840  0.57590  0.71390  Biso   1.000  H
  C201     1.0000 0.55230  0.60124  0.87330  Biso   1.000  C
  C202     1.0000 0.55019  0.61840  0.04030  Biso   1.000  C
  H135     1.0000 0.53400  0.62820  0.06150  Biso   1.000  H
  C203     1.0000 0.57212  0.62188  0.18420  Biso   1.000  C
  H136     1.0000 0.57070  0.63430  0.30140  Biso   1.000  H
  C204     1.0000 0.52797  0.59544  0.72650  Biso   1.000  C
  C205     1.0000 0.50664  0.57695  0.44000  Biso   1.000  C
  C206     1.0000 0.48272  0.59938  0.69100  Biso   1.000  C
  C207     1.0000 0.50685  0.56101  0.24180  Biso   1.000  C
  C208     1.0000 0.53021  0.54926  0.15540  Biso   1.000  C
  H137     1.0000 0.54720  0.55230  0.22250  Biso   1.000  H
  C209     1.0000 0.52814  0.53352  0.97460  Biso   1.000  C
  H138     1.0000 0.54400  0.52500  0.92240  Biso   1.000  H
  C210     1.0000 0.48255  0.54140  0.94360  Biso   1.000  C
  H139     1.0000 0.46610  0.53880  0.86610  Biso   1.000  H
  C211     1.0000 0.48233  0.55642  0.12050  Biso   1.000  C
  H140     1.0000 0.46600  0.56430  0.16850  Biso   1.000  H
  C212     1.0000 0.45642  0.60913  0.79270  Biso   1.000  C
  C213     1.0000 0.43224  0.60340  0.68080  Biso   1.000  C
  H141     1.0000 0.43180  0.59410  0.54460  Biso   1.000  H
  C214     1.0000 0.40828  0.61272  0.78900  Biso   1.000  C
  H142     1.0000 0.39140  0.60950  0.72030  Biso   1.000  H
  C215     1.0000 0.43232  0.63036  0.07810  Biso   1.000  C
  H143     1.0000 0.43240  0.63980  0.21350  Biso   1.000  H
  C216     1.0000 0.45670  0.62200  0.98800  Biso   1.000  C
  H144     1.0000 0.47320  0.62530  0.06270  Biso   1.000  H
  N67      1.0000 0.50476  0.60623  0.80900  Biso   1.000  N
  N68      1.0000 0.53016  0.58111  0.54930  Biso   1.000  N
  N69      1.0000 0.48233  0.58606  0.50800  Biso   1.000  N
  N70      1.0000 0.50514  0.52931  0.86590  Biso   1.000  N
  N71      1.0000 0.59535  0.60790  0.15950  Biso   1.000  N
  N72      1.0000 0.40833  0.62528  0.97640  Biso   1.000  N
  Zn13     1.0000 0.37531  0.38747  0.39012  Biso   1.000  Zn
  Cl37     1.0000 0.38982  0.35593  0.61470  Biso   1.000  Cl
  Cl38     1.0000 0.36267  0.42672  0.52700  Biso   1.000  Cl
  Cl39     1.0000 0.53951  0.49256  0.47050  Biso   1.000  Cl
  C217     1.0000 0.40288  0.40829  0.98800  Biso   1.000  C
  H145     1.0000 0.38650  0.41760  0.96690  Biso   1.000  H
  C218     1.0000 0.42370  0.41249  0.83610  Biso   1.000  C
  H146     1.0000 0.42160  0.42410  0.71390  Biso   1.000  H
  C219     1.0000 0.44770  0.39876  0.87330  Biso   1.000  C
  C220     1.0000 0.44981  0.38160  0.04030  Biso   1.000  C
  H147     1.0000 0.46600  0.37180  0.06150  Biso   1.000  H
  C221     1.0000 0.42788  0.37812  0.18420  Biso   1.000  C
  H148     1.0000 0.42930  0.36570  0.30140  Biso   1.000  H
  C222     1.0000 0.47203  0.40456  0.72650  Biso   1.000  C
  C223     1.0000 0.49336  0.42305  0.44000  Biso   1.000  C
  C224     1.0000 0.51728  0.40062  0.69100  Biso   1.000  C
  C225     1.0000 0.49315  0.43899  0.24180  Biso   1.000  C
  C226     1.0000 0.46979  0.45074  0.15540  Biso   1.000  C
  H149     1.0000 0.45280  0.44770  0.22250  Biso   1.000  H
  C227     1.0000 0.47186  0.46648  0.97460  Biso   1.000  C
  H150     1.0000 0.45600  0.47500  0.92240  Biso   1.000  H
  C228     1.0000 0.51745  0.45860  0.94360  Biso   1.000  C
  H151     1.0000 0.53390  0.46120  0.86610  Biso   1.000  H
  C229     1.0000 0.51767  0.44358  0.12050  Biso   1.000  C
  H152     1.0000 0.53400  0.43570  0.16850  Biso   1.000  H
  C230     1.0000 0.54358  0.39087  0.79270  Biso   1.000  C
  C231     1.0000 0.56776  0.39660  0.68080  Biso   1.000  C
  H153     1.0000 0.56820  0.40590  0.54460  Biso   1.000  H
  C232     1.0000 0.59172  0.38728  0.78900  Biso   1.000  C
  H154     1.0000 0.60860  0.39050  0.72030  Biso   1.000  H
  C233     1.0000 0.56768  0.36964  0.07810  Biso   1.000  C
  H155     1.0000 0.56760  0.36020  0.21350  Biso   1.000  H
  C234     1.0000 0.54330  0.37800  0.98800  Biso   1.000  C
  H156     1.0000 0.52680  0.37470  0.06270  Biso   1.000  H
  N73      1.0000 0.49524  0.39377  0.80900  Biso   1.000  N
  N74      1.0000 0.46984  0.41889  0.54930  Biso   1.000  N
  N75      1.0000 0.51767  0.41394  0.50800  Biso   1.000  N
  N76      1.0000 0.49486  0.47069  0.86590  Biso   1.000  N
  N77      1.0000 0.40465  0.39210  0.15950  Biso   1.000  N
  N78      1.0000 0.59167  0.37472  0.97640  Biso   1.000  N
  Zn14     1.0000 0.37531  0.88747  0.89012  Biso   1.000  Zn
  Cl40     1.0000 0.38982  0.85593  0.11470  Biso   1.000  Cl
  Cl41     1.0000 0.36267  0.92672  0.02700  Biso   1.000  Cl
  Cl42     1.0000 0.53951  0.99256  0.97050  Biso   1.000  Cl
  C235     1.0000 0.40288  0.90829  0.48800  Biso   1.000  C
  H157     1.0000 0.38650  0.91760  0.46690  Biso   1.000  H
  C236     1.0000 0.42370  0.91249  0.33610  Biso   1.000  C
  H158     1.0000 0.42160  0.92410  0.21390  Biso   1.000  H
  C237     1.0000 0.44770  0.89876  0.37330  Biso   1.000  C
  C238     1.0000 0.44981  0.88160  0.54030  Biso   1.000  C
  H159     1.0000 0.46600  0.87180  0.56150  Biso   1.000  H
  C239     1.0000 0.42788  0.87812  0.68420  Biso   1.000  C
  H160     1.0000 0.42930  0.86570  0.80140  Biso   1.000  H
  C240     1.0000 0.47203  0.90456  0.22650  Biso   1.000  C
  C241     1.0000 0.49336  0.92305  0.94000  Biso   1.000  C
  C242     1.0000 0.51728  0.90062  0.19100  Biso   1.000  C
  C243     1.0000 0.49315  0.93899  0.74180  Biso   1.000  C
  C244     1.0000 0.46979  0.95074  0.65540  Biso   1.000  C
  H161     1.0000 0.45280  0.94770  0.72250  Biso   1.000  H
  C245     1.0000 0.47186  0.96648  0.47460  Biso   1.000  C
  H162     1.0000 0.45600  0.97500  0.42240  Biso   1.000  H
  C246     1.0000 0.51745  0.95860  0.44360  Biso   1.000  C
  H163     1.0000 0.53390  0.96120  0.36610  Biso   1.000  H
  C247     1.0000 0.51767  0.94358  0.62050  Biso   1.000  C
  H164     1.0000 0.53400  0.93570  0.66850  Biso   1.000  H
  C248     1.0000 0.54358  0.89087  0.29270  Biso   1.000  C
  C249     1.0000 0.56776  0.89660  0.18080  Biso   1.000  C
  H165     1.0000 0.56820  0.90590  0.04460  Biso   1.000  H
  C250     1.0000 0.59172  0.88728  0.28900  Biso   1.000  C
  H166     1.0000 0.60860  0.89050  0.22030  Biso   1.000  H
  C251     1.0000 0.56768  0.86964  0.57810  Biso   1.000  C
  H167     1.0000 0.56760  0.86020  0.71350  Biso   1.000  H
  C252     1.0000 0.54330  0.87800  0.48800  Biso   1.000  C
  H168     1.0000 0.52680  0.87470  0.56270  Biso   1.000  H
  N79      1.0000 0.49524  0.89377  0.30900  Biso   1.000  N
  N80      1.0000 0.46984  0.91889  0.04930  Biso   1.000  N
  N81      1.0000 0.51767  0.91394  0.00800  Biso   1.000  N
  N82      1.0000 0.49486  0.97069  0.36590  Biso   1.000  N
  N83      1.0000 0.40465  0.89210  0.65950  Biso   1.000  N
  N84      1.0000 0.59167  0.87472  0.47640  Biso   1.000  N
  Zn15     1.0000 0.87531  0.38747  0.89012  Biso   1.000  Zn
  Cl43     1.0000 0.88982  0.35593  0.11470  Biso   1.000  Cl
  Cl44     1.0000 0.86267  0.42672  0.02700  Biso   1.000  Cl
  Cl45     1.0000 0.03951  0.49256  0.97050  Biso   1.000  Cl
  C253     1.0000 0.90288  0.40829  0.48800  Biso   1.000  C
  H169     1.0000 0.88650  0.41760  0.46690  Biso   1.000  H
  C254     1.0000 0.92370  0.41249  0.33610  Biso   1.000  C
  H170     1.0000 0.92160  0.42410  0.21390  Biso   1.000  H
  C255     1.0000 0.94770  0.39876  0.37330  Biso   1.000  C
  C256     1.0000 0.94981  0.38160  0.54030  Biso   1.000  C
  H171     1.0000 0.96600  0.37180  0.56150  Biso   1.000  H
  C257     1.0000 0.92788  0.37812  0.68420  Biso   1.000  C
  H172     1.0000 0.92930  0.36570  0.80140  Biso   1.000  H
  C258     1.0000 0.97203  0.40456  0.22650  Biso   1.000  C
  C259     1.0000 0.99336  0.42305  0.94000  Biso   1.000  C
  C260     1.0000 0.01728  0.40062  0.19100  Biso   1.000  C
  C261     1.0000 0.99315  0.43899  0.74180  Biso   1.000  C
  C262     1.0000 0.96979  0.45074  0.65540  Biso   1.000  C
  H173     1.0000 0.95280  0.44770  0.72250  Biso   1.000  H
  C263     1.0000 0.97186  0.46648  0.47460  Biso   1.000  C
  H174     1.0000 0.95600  0.47500  0.42240  Biso   1.000  H
  C264     1.0000 0.01745  0.45860  0.44360  Biso   1.000  C
  H175     1.0000 0.03390  0.46120  0.36610  Biso   1.000  H
  C265     1.0000 0.01767  0.44358  0.62050  Biso   1.000  C
  H176     1.0000 0.03400  0.43570  0.66850  Biso   1.000  H
  C266     1.0000 0.04358  0.39087  0.29270  Biso   1.000  C
  C267     1.0000 0.06776  0.39660  0.18080  Biso   1.000  C
  H177     1.0000 0.06820  0.40590  0.04460  Biso   1.000  H
  C268     1.0000 0.09172  0.38728  0.28900  Biso   1.000  C
  H178     1.0000 0.10860  0.39050  0.22030  Biso   1.000  H
  C269     1.0000 0.06768  0.36964  0.57810  Biso   1.000  C
  H179     1.0000 0.06760  0.36020  0.71350  Biso   1.000  H
  C270     1.0000 0.04330  0.37800  0.48800  Biso   1.000  C
  H180     1.0000 0.02680  0.37470  0.56270  Biso   1.000  H
  N85      1.0000 0.99524  0.39377  0.30900  Biso   1.000  N
  N86      1.0000 0.96984  0.41889  0.04930  Biso   1.000  N
  N87      1.0000 0.01767  0.41394  0.00800  Biso   1.000  N
  N88      1.0000 0.99486  0.47069  0.36590  Biso   1.000  N
  N89      1.0000 0.90465  0.39210  0.65950  Biso   1.000  N
  N90      1.0000 0.09167  0.37472  0.47640  Biso   1.000  N
  Zn16     1.0000 0.87531  0.88747  0.39012  Biso   1.000  Zn
  Cl46     1.0000 0.88982  0.85593  0.61470  Biso   1.000  Cl
  Cl47     1.0000 0.86267  0.92672  0.52700  Biso   1.000  Cl
  Cl48     1.0000 0.03951  0.99256  0.47050  Biso   1.000  Cl
  C271     1.0000 0.90288  0.90829  0.98800  Biso   1.000  C
  H181     1.0000 0.88650  0.91760  0.96690  Biso   1.000  H
  C272     1.0000 0.92370  0.91249  0.83610  Biso   1.000  C
  H182     1.0000 0.92160  0.92410  0.71390  Biso   1.000  H
  C273     1.0000 0.94770  0.89876  0.87330  Biso   1.000  C
  C274     1.0000 0.94981  0.88160  0.04030  Biso   1.000  C
  H183     1.0000 0.96600  0.87180  0.06150  Biso   1.000  H
  C275     1.0000 0.92788  0.87812  0.18420  Biso   1.000  C
  H184     1.0000 0.92930  0.86570  0.30140  Biso   1.000  H
  C276     1.0000 0.97203  0.90456  0.72650  Biso   1.000  C
  C277     1.0000 0.99336  0.92305  0.44000  Biso   1.000  C
  C278     1.0000 0.01728  0.90062  0.69100  Biso   1.000  C
  C279     1.0000 0.99315  0.93899  0.24180  Biso   1.000  C
  C280     1.0000 0.96979  0.95074  0.15540  Biso   1.000  C
  H185     1.0000 0.95280  0.94770  0.22250  Biso   1.000  H
  C281     1.0000 0.97186  0.96648  0.97460  Biso   1.000  C
  H186     1.0000 0.95600  0.97500  0.92240  Biso   1.000  H
  C282     1.0000 0.01745  0.95860  0.94360  Biso   1.000  C
  H187     1.0000 0.03390  0.96120  0.86610  Biso   1.000  H
  C283     1.0000 0.01767  0.94358  0.12050  Biso   1.000  C
  H188     1.0000 0.03400  0.93570  0.16850  Biso   1.000  H
  C284     1.0000 0.04358  0.89087  0.79270  Biso   1.000  C
  C285     1.0000 0.06776  0.89660  0.68080  Biso   1.000  C
  H189     1.0000 0.06820  0.90590  0.54460  Biso   1.000  H
  C286     1.0000 0.09172  0.88728  0.78900  Biso   1.000  C
  H190     1.0000 0.10860  0.89050  0.72030  Biso   1.000  H
  C287     1.0000 0.06768  0.86964  0.07810  Biso   1.000  C
  H191     1.0000 0.06760  0.86020  0.21350  Biso   1.000  H
  C288     1.0000 0.04330  0.87800  0.98800  Biso   1.000  C
  H192     1.0000 0.02680  0.87470  0.06270  Biso   1.000  H
  N91      1.0000 0.99524  0.89377  0.80900  Biso   1.000  N
  N92      1.0000 0.96984  0.91889  0.54930  Biso   1.000  N
  N93      1.0000 0.01767  0.91394  0.50800  Biso   1.000  N
  N94      1.0000 0.99486  0.97069  0.86590  Biso   1.000  N
  N95      1.0000 0.90465  0.89210  0.15950  Biso   1.000  N
  N96      1.0000 0.09167  0.87472  0.97640  Biso   1.000  N
  Zn17     1.0000 0.75000  0.25000  0.37890  Biso   1.000  Zn
  Zn18     1.0000 0.75000  0.75000  0.87890  Biso   1.000  Zn
  Zn19     1.0000 0.25000  0.75000  0.37890  Biso   1.000  Zn
  Zn20     1.0000 0.25000  0.25000  0.87890  Biso   1.000  Zn
  Zn21     1.0000 0.00000  0.00000  0.62890  Biso   1.000  Zn
  Zn22     1.0000 0.00000  0.50000  0.12890  Biso   1.000  Zn
  Zn23     1.0000 0.50000  0.50000  0.62890  Biso   1.000  Zn
  Zn24     1.0000 0.50000  0.00000  0.12890  Biso   1.000  Zn
