data_image0
_cell_length_a       30.5678
_cell_length_b       30.5678
_cell_length_c       30.5678
_cell_angle_alpha    90
_cell_angle_beta     90
_cell_angle_gamma    90

_symmetry_space_group_name_H-M    "P 1"
_symmetry_int_tables_number       1

loop_
  _symmetry_equiv_pos_as_xyz
  'x, y, z'

loop_
  _atom_site_label
  _atom_site_occupancy
  _atom_site_fract_x
  _atom_site_fract_y
  _atom_site_fract_z
  _atom_site_thermal_displace_type
  _atom_site_B_iso_or_equiv
  _atom_site_type_symbol
  Ag1      1.0000 0.13048  0.78877  0.18794  Biso   1.000  Ag
  C1       1.0000 0.09350  0.03870  0.09750  Biso   1.000  C
  C2       1.0000 0.13780  0.03260  0.10340  Biso   1.000  C
  H1       1.0000 0.15740  0.05410  0.09460  Biso   1.000  H
  C3       1.0000 0.15340  0.99450  0.12260  Biso   1.000  C
  H2       1.0000 0.18340  0.99020  0.12580  Biso   1.000  H
  C4       1.0000 0.12480  0.96360  0.13650  Biso   1.000  C
  C5       1.0000 0.07970  0.96960  0.13230  Biso   1.000  C
  H3       1.0000 0.06020  0.94870  0.14270  Biso   1.000  H
  C6       1.0000 0.06480  0.00720  0.11230  Biso   1.000  C
  H4       1.0000 0.03490  0.01140  0.10880  Biso   1.000  H
  C7       1.0000 0.18020  0.91870  0.17700  Biso   1.000  C
  H5       1.0000 0.20140  0.94010  0.18140  Biso   1.000  H
  C8       1.0000 0.18170  0.87590  0.18980  Biso   1.000  C
  H6       1.0000 0.20530  0.86280  0.20390  Biso   1.000  H
  C9       1.0000 0.12090  0.88510  0.15750  Biso   1.000  C
  H7       1.0000 0.09380  0.87940  0.14480  Biso   1.000  H
  C10      1.0000 0.15030  0.69130  0.20390  Biso   1.000  C
  H8       1.0000 0.17960  0.69820  0.20770  Biso   1.000  H
  C11      1.0000 0.08020  0.69720  0.19350  Biso   1.000  C
  H9       1.0000 0.05250  0.70900  0.18880  Biso   1.000  H
  C12      1.0000 0.09030  0.65370  0.19990  Biso   1.000  C
  H10      1.0000 0.07100  0.63030  0.19980  Biso   1.000  H
  C13      1.0000 0.15830  0.61270  0.21640  Biso   1.000  C
  C14      1.0000 0.19230  0.61500  0.24710  Biso   1.000  C
  H11      1.0000 0.19940  0.64170  0.25990  Biso   1.000  H
  C15      1.0000 0.21520  0.57790  0.25820  Biso   1.000  C
  H12      1.0000 0.23740  0.57920  0.27900  Biso   1.000  H
  C16      1.0000 0.20480  0.53810  0.23810  Biso   1.000  C
  C17      1.0000 0.17050  0.53700  0.20780  Biso   1.000  C
  H13      1.0000 0.16330  0.51070  0.19440  Biso   1.000  H
  C18      1.0000 0.14750  0.57370  0.19740  Biso   1.000  C
  H14      1.0000 0.12460  0.57220  0.17750  Biso   1.000  H
  C19      1.0000 0.29670  0.51080  0.21220  Biso   1.000  C
  H15      1.0000 0.28170  0.51810  0.18670  Biso   1.000  H
  C20      1.0000 0.34230  0.51060  0.21330  Biso   1.000  C
  H16      1.0000 0.35780  0.51790  0.18820  Biso   1.000  H
  C21      1.0000 0.43770  0.47520  0.27550  Biso   1.000  C
  C22      1.0000 0.47920  0.48600  0.26570  Biso   1.000  C
  N1       1.0000 0.14440  0.85550  0.17920  Biso   1.000  N
  N2       1.0000 0.14070  0.92340  0.15640  Biso   1.000  N
  N3       1.0000 0.11890  0.71960  0.19530  Biso   1.000  N
  N4       1.0000 0.13380  0.65210  0.20640  Biso   1.000  N
  O1       1.0000 0.09710  0.81720  0.23680  Biso   1.000  O
  Ag2      1.0000 0.63048  0.28877  0.68794  Biso   1.000  Ag
  C23      1.0000 0.59350  0.53870  0.59750  Biso   1.000  C
  C24      1.0000 0.63780  0.53260  0.60340  Biso   1.000  C
  H17      1.0000 0.65740  0.55410  0.59460  Biso   1.000  H
  C25      1.0000 0.65340  0.49450  0.62260  Biso   1.000  C
  H18      1.0000 0.68340  0.49020  0.62580  Biso   1.000  H
  C26      1.0000 0.62480  0.46360  0.63650  Biso   1.000  C
  C27      1.0000 0.57970  0.46960  0.63230  Biso   1.000  C
  H19      1.0000 0.56020  0.44870  0.64270  Biso   1.000  H
  C28      1.0000 0.56480  0.50720  0.61230  Biso   1.000  C
  H20      1.0000 0.53490  0.51140  0.60880  Biso   1.000  H
  C29      1.0000 0.68020  0.41870  0.67700  Biso   1.000  C
  H21      1.0000 0.70140  0.44010  0.68140  Biso   1.000  H
  C30      1.0000 0.68170  0.37590  0.68980  Biso   1.000  C
  H22      1.0000 0.70530  0.36280  0.70390  Biso   1.000  H
  C31      1.0000 0.62090  0.38510  0.65750  Biso   1.000  C
  H23      1.0000 0.59380  0.37940  0.64480  Biso   1.000  H
  C32      1.0000 0.65030  0.19130  0.70390  Biso   1.000  C
  H24      1.0000 0.67960  0.19820  0.70770  Biso   1.000  H
  C33      1.0000 0.58020  0.19720  0.69350  Biso   1.000  C
  H25      1.0000 0.55250  0.20900  0.68880  Biso   1.000  H
  C34      1.0000 0.59030  0.15370  0.69990  Biso   1.000  C
  H26      1.0000 0.57100  0.13030  0.69980  Biso   1.000  H
  C35      1.0000 0.65830  0.11270  0.71640  Biso   1.000  C
  C36      1.0000 0.69230  0.11500  0.74710  Biso   1.000  C
  H27      1.0000 0.69940  0.14170  0.75990  Biso   1.000  H
  C37      1.0000 0.71520  0.07790  0.75820  Biso   1.000  C
  H28      1.0000 0.73740  0.07920  0.77900  Biso   1.000  H
  C38      1.0000 0.70480  0.03810  0.73810  Biso   1.000  C
  C39      1.0000 0.67050  0.03700  0.70780  Biso   1.000  C
  H29      1.0000 0.66330  0.01070  0.69440  Biso   1.000  H
  C40      1.0000 0.64750  0.07370  0.69740  Biso   1.000  C
  H30      1.0000 0.62460  0.07220  0.67750  Biso   1.000  H
  C41      1.0000 0.79670  0.01080  0.71220  Biso   1.000  C
  H31      1.0000 0.78170  0.01810  0.68670  Biso   1.000  H
  C42      1.0000 0.84230  0.01060  0.71330  Biso   1.000  C
  H32      1.0000 0.85780  0.01790  0.68820  Biso   1.000  H
  C43      1.0000 0.93770  0.97520  0.77550  Biso   1.000  C
  C44      1.0000 0.97920  0.98600  0.76570  Biso   1.000  C
  N5       1.0000 0.64440  0.35550  0.67920  Biso   1.000  N
  N6       1.0000 0.64070  0.42340  0.65640  Biso   1.000  N
  N7       1.0000 0.61890  0.21960  0.69530  Biso   1.000  N
  N8       1.0000 0.63380  0.15210  0.70640  Biso   1.000  N
  O2       1.0000 0.59710  0.31720  0.73680  Biso   1.000  O
  Ag3      1.0000 0.36952  0.21123  0.68794  Biso   1.000  Ag
  C45      1.0000 0.40650  0.96130  0.59750  Biso   1.000  C
  C46      1.0000 0.36220  0.96740  0.60340  Biso   1.000  C
  H33      1.0000 0.34260  0.94590  0.59460  Biso   1.000  H
  C47      1.0000 0.34660  0.00550  0.62260  Biso   1.000  C
  H34      1.0000 0.31660  0.00980  0.62580  Biso   1.000  H
  C48      1.0000 0.37520  0.03640  0.63650  Biso   1.000  C
  C49      1.0000 0.42030  0.03040  0.63230  Biso   1.000  C
  H35      1.0000 0.43980  0.05130  0.64270  Biso   1.000  H
  C50      1.0000 0.43520  0.99280  0.61230  Biso   1.000  C
  H36      1.0000 0.46510  0.98860  0.60880  Biso   1.000  H
  C51      1.0000 0.31980  0.08130  0.67700  Biso   1.000  C
  H37      1.0000 0.29860  0.05990  0.68140  Biso   1.000  H
  C52      1.0000 0.31830  0.12410  0.68980  Biso   1.000  C
  H38      1.0000 0.29470  0.13720  0.70390  Biso   1.000  H
  C53      1.0000 0.37910  0.11490  0.65750  Biso   1.000  C
  H39      1.0000 0.40620  0.12060  0.64480  Biso   1.000  H
  C54      1.0000 0.34970  0.30870  0.70390  Biso   1.000  C
  H40      1.0000 0.32040  0.30180  0.70770  Biso   1.000  H
  C55      1.0000 0.41980  0.30280  0.69350  Biso   1.000  C
  H41      1.0000 0.44750  0.29100  0.68880  Biso   1.000  H
  C56      1.0000 0.40970  0.34630  0.69990  Biso   1.000  C
  H42      1.0000 0.42900  0.36970  0.69980  Biso   1.000  H
  C57      1.0000 0.34170  0.38730  0.71640  Biso   1.000  C
  C58      1.0000 0.30770  0.38500  0.74710  Biso   1.000  C
  H43      1.0000 0.30060  0.35830  0.75990  Biso   1.000  H
  C59      1.0000 0.28480  0.42210  0.75820  Biso   1.000  C
  H44      1.0000 0.26260  0.42080  0.77900  Biso   1.000  H
  C60      1.0000 0.29520  0.46190  0.73810  Biso   1.000  C
  C61      1.0000 0.32950  0.46300  0.70780  Biso   1.000  C
  H45      1.0000 0.33670  0.48930  0.69440  Biso   1.000  H
  C62      1.0000 0.35250  0.42630  0.69740  Biso   1.000  C
  H46      1.0000 0.37540  0.42780  0.67750  Biso   1.000  H
  C63      1.0000 0.20330  0.48920  0.71220  Biso   1.000  C
  H47      1.0000 0.21830  0.48190  0.68670  Biso   1.000  H
  C64      1.0000 0.15770  0.48940  0.71330  Biso   1.000  C
  H48      1.0000 0.14220  0.48210  0.68820  Biso   1.000  H
  C65      1.0000 0.06230  0.52480  0.77550  Biso   1.000  C
  C66      1.0000 0.02080  0.51400  0.76570  Biso   1.000  C
  N9       1.0000 0.35560  0.14450  0.67920  Biso   1.000  N
  N10      1.0000 0.35930  0.07660  0.65640  Biso   1.000  N
  N11      1.0000 0.38110  0.28040  0.69530  Biso   1.000  N
  N12      1.0000 0.36620  0.34790  0.70640  Biso   1.000  N
  O3       1.0000 0.40290  0.18280  0.73680  Biso   1.000  O
  Ag4      1.0000 0.86952  0.71123  0.18794  Biso   1.000  Ag
  C67      1.0000 0.90650  0.46130  0.09750  Biso   1.000  C
  C68      1.0000 0.86220  0.46740  0.10340  Biso   1.000  C
  H49      1.0000 0.84260  0.44590  0.09460  Biso   1.000  H
  C69      1.0000 0.84660  0.50550  0.12260  Biso   1.000  C
  H50      1.0000 0.81660  0.50980  0.12580  Biso   1.000  H
  C70      1.0000 0.87520  0.53640  0.13650  Biso   1.000  C
  C71      1.0000 0.92030  0.53040  0.13230  Biso   1.000  C
  H51      1.0000 0.93980  0.55130  0.14270  Biso   1.000  H
  C72      1.0000 0.93520  0.49280  0.11230  Biso   1.000  C
  H52      1.0000 0.96510  0.48860  0.10880  Biso   1.000  H
  C73      1.0000 0.81980  0.58130  0.17700  Biso   1.000  C
  H53      1.0000 0.79860  0.55990  0.18140  Biso   1.000  H
  C74      1.0000 0.81830  0.62410  0.18980  Biso   1.000  C
  H54      1.0000 0.79470  0.63720  0.20390  Biso   1.000  H
  C75      1.0000 0.87910  0.61490  0.15750  Biso   1.000  C
  H55      1.0000 0.90620  0.62060  0.14480  Biso   1.000  H
  C76      1.0000 0.84970  0.80870  0.20390  Biso   1.000  C
  H56      1.0000 0.82040  0.80180  0.20770  Biso   1.000  H
  C77      1.0000 0.91980  0.80280  0.19350  Biso   1.000  C
  H57      1.0000 0.94750  0.79100  0.18880  Biso   1.000  H
  C78      1.0000 0.90970  0.84630  0.19990  Biso   1.000  C
  H58      1.0000 0.92900  0.86970  0.19980  Biso   1.000  H
  C79      1.0000 0.84170  0.88730  0.21640  Biso   1.000  C
  C80      1.0000 0.80770  0.88500  0.24710  Biso   1.000  C
  H59      1.0000 0.80060  0.85830  0.25990  Biso   1.000  H
  C81      1.0000 0.78480  0.92210  0.25820  Biso   1.000  C
  H60      1.0000 0.76260  0.92080  0.27900  Biso   1.000  H
  C82      1.0000 0.79520  0.96190  0.23810  Biso   1.000  C
  C83      1.0000 0.82950  0.96300  0.20780  Biso   1.000  C
  H61      1.0000 0.83670  0.98930  0.19440  Biso   1.000  H
  C84      1.0000 0.85250  0.92630  0.19740  Biso   1.000  C
  H62      1.0000 0.87540  0.92780  0.17750  Biso   1.000  H
  C85      1.0000 0.70330  0.98920  0.21220  Biso   1.000  C
  H63      1.0000 0.71830  0.98190  0.18670  Biso   1.000  H
  C86      1.0000 0.65770  0.98940  0.21330  Biso   1.000  C
  H64      1.0000 0.64220  0.98210  0.18820  Biso   1.000  H
  C87      1.0000 0.56230  0.02480  0.27550  Biso   1.000  C
  C88      1.0000 0.52080  0.01400  0.26570  Biso   1.000  C
  N13      1.0000 0.85560  0.64450  0.17920  Biso   1.000  N
  N14      1.0000 0.85930  0.57660  0.15640  Biso   1.000  N
  N15      1.0000 0.88110  0.78040  0.19530  Biso   1.000  N
  N16      1.0000 0.86620  0.84790  0.20640  Biso   1.000  N
  O4       1.0000 0.90290  0.68280  0.23680  Biso   1.000  O
  Ag5      1.0000 0.86952  0.28877  0.31206  Biso   1.000  Ag
  C89      1.0000 0.90650  0.53870  0.40250  Biso   1.000  C
  C90      1.0000 0.86220  0.53260  0.39660  Biso   1.000  C
  H65      1.0000 0.84260  0.55410  0.40540  Biso   1.000  H
  C91      1.0000 0.84660  0.49450  0.37740  Biso   1.000  C
  H66      1.0000 0.81660  0.49020  0.37420  Biso   1.000  H
  C92      1.0000 0.87520  0.46360  0.36350  Biso   1.000  C
  C93      1.0000 0.92030  0.46960  0.36770  Biso   1.000  C
  H67      1.0000 0.93980  0.44870  0.35730  Biso   1.000  H
  C94      1.0000 0.93520  0.50720  0.38770  Biso   1.000  C
  H68      1.0000 0.96510  0.51140  0.39120  Biso   1.000  H
  C95      1.0000 0.81980  0.41870  0.32300  Biso   1.000  C
  H69      1.0000 0.79860  0.44010  0.31860  Biso   1.000  H
  C96      1.0000 0.81830  0.37590  0.31020  Biso   1.000  C
  H70      1.0000 0.79470  0.36280  0.29610  Biso   1.000  H
  C97      1.0000 0.87910  0.38510  0.34250  Biso   1.000  C
  H71      1.0000 0.90620  0.37940  0.35520  Biso   1.000  H
  C98      1.0000 0.84970  0.19130  0.29610  Biso   1.000  C
  H72      1.0000 0.82040  0.19820  0.29230  Biso   1.000  H
  C99      1.0000 0.91980  0.19720  0.30650  Biso   1.000  C
  H73      1.0000 0.94750  0.20900  0.31120  Biso   1.000  H
  C100     1.0000 0.90970  0.15370  0.30010  Biso   1.000  C
  H74      1.0000 0.92900  0.13030  0.30020  Biso   1.000  H
  C101     1.0000 0.84170  0.11270  0.28360  Biso   1.000  C
  C102     1.0000 0.80770  0.11500  0.25290  Biso   1.000  C
  H75      1.0000 0.80060  0.14170  0.24010  Biso   1.000  H
  C103     1.0000 0.78480  0.07790  0.24180  Biso   1.000  C
  H76      1.0000 0.76260  0.07920  0.22100  Biso   1.000  H
  C104     1.0000 0.79520  0.03810  0.26190  Biso   1.000  C
  C105     1.0000 0.82950  0.03700  0.29220  Biso   1.000  C
  H77      1.0000 0.83670  0.01070  0.30560  Biso   1.000  H
  C106     1.0000 0.85250  0.07370  0.30260  Biso   1.000  C
  H78      1.0000 0.87540  0.07220  0.32250  Biso   1.000  H
  C107     1.0000 0.70330  0.01080  0.28780  Biso   1.000  C
  H79      1.0000 0.71830  0.01810  0.31330  Biso   1.000  H
  C108     1.0000 0.65770  0.01060  0.28670  Biso   1.000  C
  H80      1.0000 0.64220  0.01790  0.31180  Biso   1.000  H
  C109     1.0000 0.56230  0.97520  0.22450  Biso   1.000  C
  C110     1.0000 0.52080  0.98600  0.23430  Biso   1.000  C
  N17      1.0000 0.85560  0.35550  0.32080  Biso   1.000  N
  N18      1.0000 0.85930  0.42340  0.34360  Biso   1.000  N
  N19      1.0000 0.88110  0.21960  0.30470  Biso   1.000  N
  N20      1.0000 0.86620  0.15210  0.29360  Biso   1.000  N
  O5       1.0000 0.90290  0.31720  0.26320  Biso   1.000  O
  Ag6      1.0000 0.36952  0.78877  0.81206  Biso   1.000  Ag
  C111     1.0000 0.40650  0.03870  0.90250  Biso   1.000  C
  C112     1.0000 0.36220  0.03260  0.89660  Biso   1.000  C
  H81      1.0000 0.34260  0.05410  0.90540  Biso   1.000  H
  C113     1.0000 0.34660  0.99450  0.87740  Biso   1.000  C
  H82      1.0000 0.31660  0.99020  0.87420  Biso   1.000  H
  C114     1.0000 0.37520  0.96360  0.86350  Biso   1.000  C
  C115     1.0000 0.42030  0.96960  0.86770  Biso   1.000  C
  H83      1.0000 0.43980  0.94870  0.85730  Biso   1.000  H
  C116     1.0000 0.43520  0.00720  0.88770  Biso   1.000  C
  H84      1.0000 0.46510  0.01140  0.89120  Biso   1.000  H
  C117     1.0000 0.31980  0.91870  0.82300  Biso   1.000  C
  H85      1.0000 0.29860  0.94010  0.81860  Biso   1.000  H
  C118     1.0000 0.31830  0.87590  0.81020  Biso   1.000  C
  H86      1.0000 0.29470  0.86280  0.79610  Biso   1.000  H
  C119     1.0000 0.37910  0.88510  0.84250  Biso   1.000  C
  H87      1.0000 0.40620  0.87940  0.85520  Biso   1.000  H
  C120     1.0000 0.34970  0.69130  0.79610  Biso   1.000  C
  H88      1.0000 0.32040  0.69820  0.79230  Biso   1.000  H
  C121     1.0000 0.41980  0.69720  0.80650  Biso   1.000  C
  H89      1.0000 0.44750  0.70900  0.81120  Biso   1.000  H
  C122     1.0000 0.40970  0.65370  0.80010  Biso   1.000  C
  H90      1.0000 0.42900  0.63030  0.80020  Biso   1.000  H
  C123     1.0000 0.34170  0.61270  0.78360  Biso   1.000  C
  C124     1.0000 0.30770  0.61500  0.75290  Biso   1.000  C
  H91      1.0000 0.30060  0.64170  0.74010  Biso   1.000  H
  C125     1.0000 0.28480  0.57790  0.74180  Biso   1.000  C
  H92      1.0000 0.26260  0.57920  0.72100  Biso   1.000  H
  C126     1.0000 0.29520  0.53810  0.76190  Biso   1.000  C
  C127     1.0000 0.32950  0.53700  0.79220  Biso   1.000  C
  H93      1.0000 0.33670  0.51070  0.80560  Biso   1.000  H
  C128     1.0000 0.35250  0.57370  0.80260  Biso   1.000  C
  H94      1.0000 0.37540  0.57220  0.82250  Biso   1.000  H
  C129     1.0000 0.20330  0.51080  0.78780  Biso   1.000  C
  H95      1.0000 0.21830  0.51810  0.81330  Biso   1.000  H
  C130     1.0000 0.15770  0.51060  0.78670  Biso   1.000  C
  H96      1.0000 0.14220  0.51790  0.81180  Biso   1.000  H
  C131     1.0000 0.06230  0.47520  0.72450  Biso   1.000  C
  C132     1.0000 0.02080  0.48600  0.73430  Biso   1.000  C
  N21      1.0000 0.35560  0.85550  0.82080  Biso   1.000  N
  N22      1.0000 0.35930  0.92340  0.84360  Biso   1.000  N
  N23      1.0000 0.38110  0.71960  0.80470  Biso   1.000  N
  N24      1.0000 0.36620  0.65210  0.79360  Biso   1.000  N
  O6       1.0000 0.40290  0.81720  0.76320  Biso   1.000  O
  Ag7      1.0000 0.63048  0.71123  0.81206  Biso   1.000  Ag
  C133     1.0000 0.59350  0.46130  0.90250  Biso   1.000  C
  C134     1.0000 0.63780  0.46740  0.89660  Biso   1.000  C
  H97      1.0000 0.65740  0.44590  0.90540  Biso   1.000  H
  C135     1.0000 0.65340  0.50550  0.87740  Biso   1.000  C
  H98      1.0000 0.68340  0.50980  0.87420  Biso   1.000  H
  C136     1.0000 0.62480  0.53640  0.86350  Biso   1.000  C
  C137     1.0000 0.57970  0.53040  0.86770  Biso   1.000  C
  H99      1.0000 0.56020  0.55130  0.85730  Biso   1.000  H
  C138     1.0000 0.56480  0.49280  0.88770  Biso   1.000  C
  H100     1.0000 0.53490  0.48860  0.89120  Biso   1.000  H
  C139     1.0000 0.68020  0.58130  0.82300  Biso   1.000  C
  H101     1.0000 0.70140  0.55990  0.81860  Biso   1.000  H
  C140     1.0000 0.68170  0.62410  0.81020  Biso   1.000  C
  H102     1.0000 0.70530  0.63720  0.79610  Biso   1.000  H
  C141     1.0000 0.62090  0.61490  0.84250  Biso   1.000  C
  H103     1.0000 0.59380  0.62060  0.85520  Biso   1.000  H
  C142     1.0000 0.65030  0.80870  0.79610  Biso   1.000  C
  H104     1.0000 0.67960  0.80180  0.79230  Biso   1.000  H
  C143     1.0000 0.58020  0.80280  0.80650  Biso   1.000  C
  H105     1.0000 0.55250  0.79100  0.81120  Biso   1.000  H
  C144     1.0000 0.59030  0.84630  0.80010  Biso   1.000  C
  H106     1.0000 0.57100  0.86970  0.80020  Biso   1.000  H
  C145     1.0000 0.65830  0.88730  0.78360  Biso   1.000  C
  C146     1.0000 0.69230  0.88500  0.75290  Biso   1.000  C
  H107     1.0000 0.69940  0.85830  0.74010  Biso   1.000  H
  C147     1.0000 0.71520  0.92210  0.74180  Biso   1.000  C
  H108     1.0000 0.73740  0.92080  0.72100  Biso   1.000  H
  C148     1.0000 0.70480  0.96190  0.76190  Biso   1.000  C
  C149     1.0000 0.67050  0.96300  0.79220  Biso   1.000  C
  H109     1.0000 0.66330  0.98930  0.80560  Biso   1.000  H
  C150     1.0000 0.64750  0.92630  0.80260  Biso   1.000  C
  H110     1.0000 0.62460  0.92780  0.82250  Biso   1.000  H
  C151     1.0000 0.79670  0.98920  0.78780  Biso   1.000  C
  H111     1.0000 0.78170  0.98190  0.81330  Biso   1.000  H
  C152     1.0000 0.84230  0.98940  0.78670  Biso   1.000  C
  H112     1.0000 0.85780  0.98210  0.81180  Biso   1.000  H
  C153     1.0000 0.93770  0.02480  0.72450  Biso   1.000  C
  C154     1.0000 0.97920  0.01400  0.73430  Biso   1.000  C
  N25      1.0000 0.64440  0.64450  0.82080  Biso   1.000  N
  N26      1.0000 0.64070  0.57660  0.84360  Biso   1.000  N
  N27      1.0000 0.61890  0.78040  0.80470  Biso   1.000  N
  N28      1.0000 0.63380  0.84790  0.79360  Biso   1.000  N
  O7       1.0000 0.59710  0.68280  0.76320  Biso   1.000  O
  Ag8      1.0000 0.13048  0.21123  0.31206  Biso   1.000  Ag
  C155     1.0000 0.09350  0.96130  0.40250  Biso   1.000  C
  C156     1.0000 0.13780  0.96740  0.39660  Biso   1.000  C
  H113     1.0000 0.15740  0.94590  0.40540  Biso   1.000  H
  C157     1.0000 0.15340  0.00550  0.37740  Biso   1.000  C
  H114     1.0000 0.18340  0.00980  0.37420  Biso   1.000  H
  C158     1.0000 0.12480  0.03640  0.36350  Biso   1.000  C
  C159     1.0000 0.07970  0.03040  0.36770  Biso   1.000  C
  H115     1.0000 0.06020  0.05130  0.35730  Biso   1.000  H
  C160     1.0000 0.06480  0.99280  0.38770  Biso   1.000  C
  H116     1.0000 0.03490  0.98860  0.39120  Biso   1.000  H
  C161     1.0000 0.18020  0.08130  0.32300  Biso   1.000  C
  H117     1.0000 0.20140  0.05990  0.31860  Biso   1.000  H
  C162     1.0000 0.18170  0.12410  0.31020  Biso   1.000  C
  H118     1.0000 0.20530  0.13720  0.29610  Biso   1.000  H
  C163     1.0000 0.12090  0.11490  0.34250  Biso   1.000  C
  H119     1.0000 0.09380  0.12060  0.35520  Biso   1.000  H
  C164     1.0000 0.15030  0.30870  0.29610  Biso   1.000  C
  H120     1.0000 0.17960  0.30180  0.29230  Biso   1.000  H
  C165     1.0000 0.08020  0.30280  0.30650  Biso   1.000  C
  H121     1.0000 0.05250  0.29100  0.31120  Biso   1.000  H
  C166     1.0000 0.09030  0.34630  0.30010  Biso   1.000  C
  H122     1.0000 0.07100  0.36970  0.30020  Biso   1.000  H
  C167     1.0000 0.15830  0.38730  0.28360  Biso   1.000  C
  C168     1.0000 0.19230  0.38500  0.25290  Biso   1.000  C
  H123     1.0000 0.19940  0.35830  0.24010  Biso   1.000  H
  C169     1.0000 0.21520  0.42210  0.24180  Biso   1.000  C
  H124     1.0000 0.23740  0.42080  0.22100  Biso   1.000  H
  C170     1.0000 0.20480  0.46190  0.26190  Biso   1.000  C
  C171     1.0000 0.17050  0.46300  0.29220  Biso   1.000  C
  H125     1.0000 0.16330  0.48930  0.30560  Biso   1.000  H
  C172     1.0000 0.14750  0.42630  0.30260  Biso   1.000  C
  H126     1.0000 0.12460  0.42780  0.32250  Biso   1.000  H
  C173     1.0000 0.29670  0.48920  0.28780  Biso   1.000  C
  H127     1.0000 0.28170  0.48190  0.31330  Biso   1.000  H
  C174     1.0000 0.34230  0.48940  0.28670  Biso   1.000  C
  H128     1.0000 0.35780  0.48210  0.31180  Biso   1.000  H
  C175     1.0000 0.43770  0.52480  0.22450  Biso   1.000  C
  C176     1.0000 0.47920  0.51400  0.23430  Biso   1.000  C
  N29      1.0000 0.14440  0.14450  0.32080  Biso   1.000  N
  N30      1.0000 0.14070  0.07660  0.34360  Biso   1.000  N
  N31      1.0000 0.11890  0.28040  0.30470  Biso   1.000  N
  N32      1.0000 0.13380  0.34790  0.29360  Biso   1.000  N
  O8       1.0000 0.09710  0.18280  0.26320  Biso   1.000  O
  Ag9      1.0000 0.18794  0.13048  0.78877  Biso   1.000  Ag
  C177     1.0000 0.09750  0.09350  0.03870  Biso   1.000  C
  C178     1.0000 0.10340  0.13780  0.03260  Biso   1.000  C
  H129     1.0000 0.09460  0.15740  0.05410  Biso   1.000  H
  C179     1.0000 0.12260  0.15340  0.99450  Biso   1.000  C
  H130     1.0000 0.12580  0.18340  0.99020  Biso   1.000  H
  C180     1.0000 0.13650  0.12480  0.96360  Biso   1.000  C
  C181     1.0000 0.13230  0.07970  0.96960  Biso   1.000  C
  H131     1.0000 0.14270  0.06020  0.94870  Biso   1.000  H
  C182     1.0000 0.11230  0.06480  0.00720  Biso   1.000  C
  H132     1.0000 0.10880  0.03490  0.01140  Biso   1.000  H
  C183     1.0000 0.17700  0.18020  0.91870  Biso   1.000  C
  H133     1.0000 0.18140  0.20140  0.94010  Biso   1.000  H
  C184     1.0000 0.18980  0.18170  0.87590  Biso   1.000  C
  H134     1.0000 0.20390  0.20530  0.86280  Biso   1.000  H
  C185     1.0000 0.15750  0.12090  0.88510  Biso   1.000  C
  H135     1.0000 0.14480  0.09380  0.87940  Biso   1.000  H
  C186     1.0000 0.20390  0.15030  0.69130  Biso   1.000  C
  H136     1.0000 0.20770  0.17960  0.69820  Biso   1.000  H
  C187     1.0000 0.19350  0.08020  0.69720  Biso   1.000  C
  H137     1.0000 0.18880  0.05250  0.70900  Biso   1.000  H
  C188     1.0000 0.19990  0.09030  0.65370  Biso   1.000  C
  H138     1.0000 0.19980  0.07100  0.63030  Biso   1.000  H
  C189     1.0000 0.21640  0.15830  0.61270  Biso   1.000  C
  C190     1.0000 0.24710  0.19230  0.61500  Biso   1.000  C
  H139     1.0000 0.25990  0.19940  0.64170  Biso   1.000  H
  C191     1.0000 0.25820  0.21520  0.57790  Biso   1.000  C
  H140     1.0000 0.27900  0.23740  0.57920  Biso   1.000  H
  C192     1.0000 0.23810  0.20480  0.53810  Biso   1.000  C
  C193     1.0000 0.20780  0.17050  0.53700  Biso   1.000  C
  H141     1.0000 0.19440  0.16330  0.51070  Biso   1.000  H
  C194     1.0000 0.19740  0.14750  0.57370  Biso   1.000  C
  H142     1.0000 0.17750  0.12460  0.57220  Biso   1.000  H
  C195     1.0000 0.21220  0.29670  0.51080  Biso   1.000  C
  H143     1.0000 0.18670  0.28170  0.51810  Biso   1.000  H
  C196     1.0000 0.21330  0.34230  0.51060  Biso   1.000  C
  H144     1.0000 0.18820  0.35780  0.51790  Biso   1.000  H
  C197     1.0000 0.27550  0.43770  0.47520  Biso   1.000  C
  C198     1.0000 0.26570  0.47920  0.48600  Biso   1.000  C
  N33      1.0000 0.17920  0.14440  0.85550  Biso   1.000  N
  N34      1.0000 0.15640  0.14070  0.92340  Biso   1.000  N
  N35      1.0000 0.19530  0.11890  0.71960  Biso   1.000  N
  N36      1.0000 0.20640  0.13380  0.65210  Biso   1.000  N
  O9       1.0000 0.23680  0.09710  0.81720  Biso   1.000  O
  Ag10     1.0000 0.68794  0.63048  0.28877  Biso   1.000  Ag
  C199     1.0000 0.59750  0.59350  0.53870  Biso   1.000  C
  C200     1.0000 0.60340  0.63780  0.53260  Biso   1.000  C
  H145     1.0000 0.59460  0.65740  0.55410  Biso   1.000  H
  C201     1.0000 0.62260  0.65340  0.49450  Biso   1.000  C
  H146     1.0000 0.62580  0.68340  0.49020  Biso   1.000  H
  C202     1.0000 0.63650  0.62480  0.46360  Biso   1.000  C
  C203     1.0000 0.63230  0.57970  0.46960  Biso   1.000  C
  H147     1.0000 0.64270  0.56020  0.44870  Biso   1.000  H
  C204     1.0000 0.61230  0.56480  0.50720  Biso   1.000  C
  H148     1.0000 0.60880  0.53490  0.51140  Biso   1.000  H
  C205     1.0000 0.67700  0.68020  0.41870  Biso   1.000  C
  H149     1.0000 0.68140  0.70140  0.44010  Biso   1.000  H
  C206     1.0000 0.68980  0.68170  0.37590  Biso   1.000  C
  H150     1.0000 0.70390  0.70530  0.36280  Biso   1.000  H
  C207     1.0000 0.65750  0.62090  0.38510  Biso   1.000  C
  H151     1.0000 0.64480  0.59380  0.37940  Biso   1.000  H
  C208     1.0000 0.70390  0.65030  0.19130  Biso   1.000  C
  H152     1.0000 0.70770  0.67960  0.19820  Biso   1.000  H
  C209     1.0000 0.69350  0.58020  0.19720  Biso   1.000  C
  H153     1.0000 0.68880  0.55250  0.20900  Biso   1.000  H
  C210     1.0000 0.69990  0.59030  0.15370  Biso   1.000  C
  H154     1.0000 0.69980  0.57100  0.13030  Biso   1.000  H
  C211     1.0000 0.71640  0.65830  0.11270  Biso   1.000  C
  C212     1.0000 0.74710  0.69230  0.11500  Biso   1.000  C
  H155     1.0000 0.75990  0.69940  0.14170  Biso   1.000  H
  C213     1.0000 0.75820  0.71520  0.07790  Biso   1.000  C
  H156     1.0000 0.77900  0.73740  0.07920  Biso   1.000  H
  C214     1.0000 0.73810  0.70480  0.03810  Biso   1.000  C
  C215     1.0000 0.70780  0.67050  0.03700  Biso   1.000  C
  H157     1.0000 0.69440  0.66330  0.01070  Biso   1.000  H
  C216     1.0000 0.69740  0.64750  0.07370  Biso   1.000  C
  H158     1.0000 0.67750  0.62460  0.07220  Biso   1.000  H
  C217     1.0000 0.71220  0.79670  0.01080  Biso   1.000  C
  H159     1.0000 0.68670  0.78170  0.01810  Biso   1.000  H
  C218     1.0000 0.71330  0.84230  0.01060  Biso   1.000  C
  H160     1.0000 0.68820  0.85780  0.01790  Biso   1.000  H
  C219     1.0000 0.77550  0.93770  0.97520  Biso   1.000  C
  C220     1.0000 0.76570  0.97920  0.98600  Biso   1.000  C
  N37      1.0000 0.67920  0.64440  0.35550  Biso   1.000  N
  N38      1.0000 0.65640  0.64070  0.42340  Biso   1.000  N
  N39      1.0000 0.69530  0.61890  0.21960  Biso   1.000  N
  N40      1.0000 0.70640  0.63380  0.15210  Biso   1.000  N
  O10      1.0000 0.73680  0.59710  0.31720  Biso   1.000  O
  Ag11     1.0000 0.68794  0.36952  0.21123  Biso   1.000  Ag
  C221     1.0000 0.59750  0.40650  0.96130  Biso   1.000  C
  C222     1.0000 0.60340  0.36220  0.96740  Biso   1.000  C
  H161     1.0000 0.59460  0.34260  0.94590  Biso   1.000  H
  C223     1.0000 0.62260  0.34660  0.00550  Biso   1.000  C
  H162     1.0000 0.62580  0.31660  0.00980  Biso   1.000  H
  C224     1.0000 0.63650  0.37520  0.03640  Biso   1.000  C
  C225     1.0000 0.63230  0.42030  0.03040  Biso   1.000  C
  H163     1.0000 0.64270  0.43980  0.05130  Biso   1.000  H
  C226     1.0000 0.61230  0.43520  0.99280  Biso   1.000  C
  H164     1.0000 0.60880  0.46510  0.98860  Biso   1.000  H
  C227     1.0000 0.67700  0.31980  0.08130  Biso   1.000  C
  H165     1.0000 0.68140  0.29860  0.05990  Biso   1.000  H
  C228     1.0000 0.68980  0.31830  0.12410  Biso   1.000  C
  H166     1.0000 0.70390  0.29470  0.13720  Biso   1.000  H
  C229     1.0000 0.65750  0.37910  0.11490  Biso   1.000  C
  H167     1.0000 0.64480  0.40620  0.12060  Biso   1.000  H
  C230     1.0000 0.70390  0.34970  0.30870  Biso   1.000  C
  H168     1.0000 0.70770  0.32040  0.30180  Biso   1.000  H
  C231     1.0000 0.69350  0.41980  0.30280  Biso   1.000  C
  H169     1.0000 0.68880  0.44750  0.29100  Biso   1.000  H
  C232     1.0000 0.69990  0.40970  0.34630  Biso   1.000  C
  H170     1.0000 0.69980  0.42900  0.36970  Biso   1.000  H
  C233     1.0000 0.71640  0.34170  0.38730  Biso   1.000  C
  C234     1.0000 0.74710  0.30770  0.38500  Biso   1.000  C
  H171     1.0000 0.75990  0.30060  0.35830  Biso   1.000  H
  C235     1.0000 0.75820  0.28480  0.42210  Biso   1.000  C
  H172     1.0000 0.77900  0.26260  0.42080  Biso   1.000  H
  C236     1.0000 0.73810  0.29520  0.46190  Biso   1.000  C
  C237     1.0000 0.70780  0.32950  0.46300  Biso   1.000  C
  H173     1.0000 0.69440  0.33670  0.48930  Biso   1.000  H
  C238     1.0000 0.69740  0.35250  0.42630  Biso   1.000  C
  H174     1.0000 0.67750  0.37540  0.42780  Biso   1.000  H
  C239     1.0000 0.71220  0.20330  0.48920  Biso   1.000  C
  H175     1.0000 0.68670  0.21830  0.48190  Biso   1.000  H
  C240     1.0000 0.71330  0.15770  0.48940  Biso   1.000  C
  H176     1.0000 0.68820  0.14220  0.48210  Biso   1.000  H
  C241     1.0000 0.77550  0.06230  0.52480  Biso   1.000  C
  C242     1.0000 0.76570  0.02080  0.51400  Biso   1.000  C
  N41      1.0000 0.67920  0.35560  0.14450  Biso   1.000  N
  N42      1.0000 0.65640  0.35930  0.07660  Biso   1.000  N
  N43      1.0000 0.69530  0.38110  0.28040  Biso   1.000  N
  N44      1.0000 0.70640  0.36620  0.34790  Biso   1.000  N
  O11      1.0000 0.73680  0.40290  0.18280  Biso   1.000  O
  Ag12     1.0000 0.18794  0.86952  0.71123  Biso   1.000  Ag
  C243     1.0000 0.09750  0.90650  0.46130  Biso   1.000  C
  C244     1.0000 0.10340  0.86220  0.46740  Biso   1.000  C
  H177     1.0000 0.09460  0.84260  0.44590  Biso   1.000  H
  C245     1.0000 0.12260  0.84660  0.50550  Biso   1.000  C
  H178     1.0000 0.12580  0.81660  0.50980  Biso   1.000  H
  C246     1.0000 0.13650  0.87520  0.53640  Biso   1.000  C
  C247     1.0000 0.13230  0.92030  0.53040  Biso   1.000  C
  H179     1.0000 0.14270  0.93980  0.55130  Biso   1.000  H
  C248     1.0000 0.11230  0.93520  0.49280  Biso   1.000  C
  H180     1.0000 0.10880  0.96510  0.48860  Biso   1.000  H
  C249     1.0000 0.17700  0.81980  0.58130  Biso   1.000  C
  H181     1.0000 0.18140  0.79860  0.55990  Biso   1.000  H
  C250     1.0000 0.18980  0.81830  0.62410  Biso   1.000  C
  H182     1.0000 0.20390  0.79470  0.63720  Biso   1.000  H
  C251     1.0000 0.15750  0.87910  0.61490  Biso   1.000  C
  H183     1.0000 0.14480  0.90620  0.62060  Biso   1.000  H
  C252     1.0000 0.20390  0.84970  0.80870  Biso   1.000  C
  H184     1.0000 0.20770  0.82040  0.80180  Biso   1.000  H
  C253     1.0000 0.19350  0.91980  0.80280  Biso   1.000  C
  H185     1.0000 0.18880  0.94750  0.79100  Biso   1.000  H
  C254     1.0000 0.19990  0.90970  0.84630  Biso   1.000  C
  H186     1.0000 0.19980  0.92900  0.86970  Biso   1.000  H
  C255     1.0000 0.21640  0.84170  0.88730  Biso   1.000  C
  C256     1.0000 0.24710  0.80770  0.88500  Biso   1.000  C
  H187     1.0000 0.25990  0.80060  0.85830  Biso   1.000  H
  C257     1.0000 0.25820  0.78480  0.92210  Biso   1.000  C
  H188     1.0000 0.27900  0.76260  0.92080  Biso   1.000  H
  C258     1.0000 0.23810  0.79520  0.96190  Biso   1.000  C
  C259     1.0000 0.20780  0.82950  0.96300  Biso   1.000  C
  H189     1.0000 0.19440  0.83670  0.98930  Biso   1.000  H
  C260     1.0000 0.19740  0.85250  0.92630  Biso   1.000  C
  H190     1.0000 0.17750  0.87540  0.92780  Biso   1.000  H
  C261     1.0000 0.21220  0.70330  0.98920  Biso   1.000  C
  H191     1.0000 0.18670  0.71830  0.98190  Biso   1.000  H
  C262     1.0000 0.21330  0.65770  0.98940  Biso   1.000  C
  H192     1.0000 0.18820  0.64220  0.98210  Biso   1.000  H
  C263     1.0000 0.27550  0.56230  0.02480  Biso   1.000  C
  C264     1.0000 0.26570  0.52080  0.01400  Biso   1.000  C
  N45      1.0000 0.17920  0.85560  0.64450  Biso   1.000  N
  N46      1.0000 0.15640  0.85930  0.57660  Biso   1.000  N
  N47      1.0000 0.19530  0.88110  0.78040  Biso   1.000  N
  N48      1.0000 0.20640  0.86620  0.84790  Biso   1.000  N
  O12      1.0000 0.23680  0.90290  0.68280  Biso   1.000  O
  Ag13     1.0000 0.31206  0.86952  0.28877  Biso   1.000  Ag
  C265     1.0000 0.40250  0.90650  0.53870  Biso   1.000  C
  C266     1.0000 0.39660  0.86220  0.53260  Biso   1.000  C
  H193     1.0000 0.40540  0.84260  0.55410  Biso   1.000  H
  C267     1.0000 0.37740  0.84660  0.49450  Biso   1.000  C
  H194     1.0000 0.37420  0.81660  0.49020  Biso   1.000  H
  C268     1.0000 0.36350  0.87520  0.46360  Biso   1.000  C
  C269     1.0000 0.36770  0.92030  0.46960  Biso   1.000  C
  H195     1.0000 0.35730  0.93980  0.44870  Biso   1.000  H
  C270     1.0000 0.38770  0.93520  0.50720  Biso   1.000  C
  H196     1.0000 0.39120  0.96510  0.51140  Biso   1.000  H
  C271     1.0000 0.32300  0.81980  0.41870  Biso   1.000  C
  H197     1.0000 0.31860  0.79860  0.44010  Biso   1.000  H
  C272     1.0000 0.31020  0.81830  0.37590  Biso   1.000  C
  H198     1.0000 0.29610  0.79470  0.36280  Biso   1.000  H
  C273     1.0000 0.34250  0.87910  0.38510  Biso   1.000  C
  H199     1.0000 0.35520  0.90620  0.37940  Biso   1.000  H
  C274     1.0000 0.29610  0.84970  0.19130  Biso   1.000  C
  H200     1.0000 0.29230  0.82040  0.19820  Biso   1.000  H
  C275     1.0000 0.30650  0.91980  0.19720  Biso   1.000  C
  H201     1.0000 0.31120  0.94750  0.20900  Biso   1.000  H
  C276     1.0000 0.30010  0.90970  0.15370  Biso   1.000  C
  H202     1.0000 0.30020  0.92900  0.13030  Biso   1.000  H
  C277     1.0000 0.28360  0.84170  0.11270  Biso   1.000  C
  C278     1.0000 0.25290  0.80770  0.11500  Biso   1.000  C
  H203     1.0000 0.24010  0.80060  0.14170  Biso   1.000  H
  C279     1.0000 0.24180  0.78480  0.07790  Biso   1.000  C
  H204     1.0000 0.22100  0.76260  0.07920  Biso   1.000  H
  C280     1.0000 0.26190  0.79520  0.03810  Biso   1.000  C
  C281     1.0000 0.29220  0.82950  0.03700  Biso   1.000  C
  H205     1.0000 0.30560  0.83670  0.01070  Biso   1.000  H
  C282     1.0000 0.30260  0.85250  0.07370  Biso   1.000  C
  H206     1.0000 0.32250  0.87540  0.07220  Biso   1.000  H
  C283     1.0000 0.28780  0.70330  0.01080  Biso   1.000  C
  H207     1.0000 0.31330  0.71830  0.01810  Biso   1.000  H
  C284     1.0000 0.28670  0.65770  0.01060  Biso   1.000  C
  H208     1.0000 0.31180  0.64220  0.01790  Biso   1.000  H
  C285     1.0000 0.22450  0.56230  0.97520  Biso   1.000  C
  C286     1.0000 0.23430  0.52080  0.98600  Biso   1.000  C
  N49      1.0000 0.32080  0.85560  0.35550  Biso   1.000  N
  N50      1.0000 0.34360  0.85930  0.42340  Biso   1.000  N
  N51      1.0000 0.30470  0.88110  0.21960  Biso   1.000  N
  N52      1.0000 0.29360  0.86620  0.15210  Biso   1.000  N
  O13      1.0000 0.26320  0.90290  0.31720  Biso   1.000  O
  Ag14     1.0000 0.81206  0.36952  0.78877  Biso   1.000  Ag
  C287     1.0000 0.90250  0.40650  0.03870  Biso   1.000  C
  C288     1.0000 0.89660  0.36220  0.03260  Biso   1.000  C
  H209     1.0000 0.90540  0.34260  0.05410  Biso   1.000  H
  C289     1.0000 0.87740  0.34660  0.99450  Biso   1.000  C
  H210     1.0000 0.87420  0.31660  0.99020  Biso   1.000  H
  C290     1.0000 0.86350  0.37520  0.96360  Biso   1.000  C
  C291     1.0000 0.86770  0.42030  0.96960  Biso   1.000  C
  H211     1.0000 0.85730  0.43980  0.94870  Biso   1.000  H
  C292     1.0000 0.88770  0.43520  0.00720  Biso   1.000  C
  H212     1.0000 0.89120  0.46510  0.01140  Biso   1.000  H
  C293     1.0000 0.82300  0.31980  0.91870  Biso   1.000  C
  H213     1.0000 0.81860  0.29860  0.94010  Biso   1.000  H
  C294     1.0000 0.81020  0.31830  0.87590  Biso   1.000  C
  H214     1.0000 0.79610  0.29470  0.86280  Biso   1.000  H
  C295     1.0000 0.84250  0.37910  0.88510  Biso   1.000  C
  H215     1.0000 0.85520  0.40620  0.87940  Biso   1.000  H
  C296     1.0000 0.79610  0.34970  0.69130  Biso   1.000  C
  H216     1.0000 0.79230  0.32040  0.69820  Biso   1.000  H
  C297     1.0000 0.80650  0.41980  0.69720  Biso   1.000  C
  H217     1.0000 0.81120  0.44750  0.70900  Biso   1.000  H
  C298     1.0000 0.80010  0.40970  0.65370  Biso   1.000  C
  H218     1.0000 0.80020  0.42900  0.63030  Biso   1.000  H
  C299     1.0000 0.78360  0.34170  0.61270  Biso   1.000  C
  C300     1.0000 0.75290  0.30770  0.61500  Biso   1.000  C
  H219     1.0000 0.74010  0.30060  0.64170  Biso   1.000  H
  C301     1.0000 0.74180  0.28480  0.57790  Biso   1.000  C
  H220     1.0000 0.72100  0.26260  0.57920  Biso   1.000  H
  C302     1.0000 0.76190  0.29520  0.53810  Biso   1.000  C
  C303     1.0000 0.79220  0.32950  0.53700  Biso   1.000  C
  H221     1.0000 0.80560  0.33670  0.51070  Biso   1.000  H
  C304     1.0000 0.80260  0.35250  0.57370  Biso   1.000  C
  H222     1.0000 0.82250  0.37540  0.57220  Biso   1.000  H
  C305     1.0000 0.78780  0.20330  0.51080  Biso   1.000  C
  H223     1.0000 0.81330  0.21830  0.51810  Biso   1.000  H
  C306     1.0000 0.78670  0.15770  0.51060  Biso   1.000  C
  H224     1.0000 0.81180  0.14220  0.51790  Biso   1.000  H
  C307     1.0000 0.72450  0.06230  0.47520  Biso   1.000  C
  C308     1.0000 0.73430  0.02080  0.48600  Biso   1.000  C
  N53      1.0000 0.82080  0.35560  0.85550  Biso   1.000  N
  N54      1.0000 0.84360  0.35930  0.92340  Biso   1.000  N
  N55      1.0000 0.80470  0.38110  0.71960  Biso   1.000  N
  N56      1.0000 0.79360  0.36620  0.65210  Biso   1.000  N
  O14      1.0000 0.76320  0.40290  0.81720  Biso   1.000  O
  Ag15     1.0000 0.81206  0.63048  0.71123  Biso   1.000  Ag
  C309     1.0000 0.90250  0.59350  0.46130  Biso   1.000  C
  C310     1.0000 0.89660  0.63780  0.46740  Biso   1.000  C
  H225     1.0000 0.90540  0.65740  0.44590  Biso   1.000  H
  C311     1.0000 0.87740  0.65340  0.50550  Biso   1.000  C
  H226     1.0000 0.87420  0.68340  0.50980  Biso   1.000  H
  C312     1.0000 0.86350  0.62480  0.53640  Biso   1.000  C
  C313     1.0000 0.86770  0.57970  0.53040  Biso   1.000  C
  H227     1.0000 0.85730  0.56020  0.55130  Biso   1.000  H
  C314     1.0000 0.88770  0.56480  0.49280  Biso   1.000  C
  H228     1.0000 0.89120  0.53490  0.48860  Biso   1.000  H
  C315     1.0000 0.82300  0.68020  0.58130  Biso   1.000  C
  H229     1.0000 0.81860  0.70140  0.55990  Biso   1.000  H
  C316     1.0000 0.81020  0.68170  0.62410  Biso   1.000  C
  H230     1.0000 0.79610  0.70530  0.63720  Biso   1.000  H
  C317     1.0000 0.84250  0.62090  0.61490  Biso   1.000  C
  H231     1.0000 0.85520  0.59380  0.62060  Biso   1.000  H
  C318     1.0000 0.79610  0.65030  0.80870  Biso   1.000  C
  H232     1.0000 0.79230  0.67960  0.80180  Biso   1.000  H
  C319     1.0000 0.80650  0.58020  0.80280  Biso   1.000  C
  H233     1.0000 0.81120  0.55250  0.79100  Biso   1.000  H
  C320     1.0000 0.80010  0.59030  0.84630  Biso   1.000  C
  H234     1.0000 0.80020  0.57100  0.86970  Biso   1.000  H
  C321     1.0000 0.78360  0.65830  0.88730  Biso   1.000  C
  C322     1.0000 0.75290  0.69230  0.88500  Biso   1.000  C
  H235     1.0000 0.74010  0.69940  0.85830  Biso   1.000  H
  C323     1.0000 0.74180  0.71520  0.92210  Biso   1.000  C
  H236     1.0000 0.72100  0.73740  0.92080  Biso   1.000  H
  C324     1.0000 0.76190  0.70480  0.96190  Biso   1.000  C
  C325     1.0000 0.79220  0.67050  0.96300  Biso   1.000  C
  H237     1.0000 0.80560  0.66330  0.98930  Biso   1.000  H
  C326     1.0000 0.80260  0.64750  0.92630  Biso   1.000  C
  H238     1.0000 0.82250  0.62460  0.92780  Biso   1.000  H
  C327     1.0000 0.78780  0.79670  0.98920  Biso   1.000  C
  H239     1.0000 0.81330  0.78170  0.98190  Biso   1.000  H
  C328     1.0000 0.78670  0.84230  0.98940  Biso   1.000  C
  H240     1.0000 0.81180  0.85780  0.98210  Biso   1.000  H
  C329     1.0000 0.72450  0.93770  0.02480  Biso   1.000  C
  C330     1.0000 0.73430  0.97920  0.01400  Biso   1.000  C
  N57      1.0000 0.82080  0.64440  0.64450  Biso   1.000  N
  N58      1.0000 0.84360  0.64070  0.57660  Biso   1.000  N
  N59      1.0000 0.80470  0.61890  0.78040  Biso   1.000  N
  N60      1.0000 0.79360  0.63380  0.84790  Biso   1.000  N
  O15      1.0000 0.76320  0.59710  0.68280  Biso   1.000  O
  Ag16     1.0000 0.31206  0.13048  0.21123  Biso   1.000  Ag
  C331     1.0000 0.40250  0.09350  0.96130  Biso   1.000  C
  C332     1.0000 0.39660  0.13780  0.96740  Biso   1.000  C
  H241     1.0000 0.40540  0.15740  0.94590  Biso   1.000  H
  C333     1.0000 0.37740  0.15340  0.00550  Biso   1.000  C
  H242     1.0000 0.37420  0.18340  0.00980  Biso   1.000  H
  C334     1.0000 0.36350  0.12480  0.03640  Biso   1.000  C
  C335     1.0000 0.36770  0.07970  0.03040  Biso   1.000  C
  H243     1.0000 0.35730  0.06020  0.05130  Biso   1.000  H
  C336     1.0000 0.38770  0.06480  0.99280  Biso   1.000  C
  H244     1.0000 0.39120  0.03490  0.98860  Biso   1.000  H
  C337     1.0000 0.32300  0.18020  0.08130  Biso   1.000  C
  H245     1.0000 0.31860  0.20140  0.05990  Biso   1.000  H
  C338     1.0000 0.31020  0.18170  0.12410  Biso   1.000  C
  H246     1.0000 0.29610  0.20530  0.13720  Biso   1.000  H
  C339     1.0000 0.34250  0.12090  0.11490  Biso   1.000  C
  H247     1.0000 0.35520  0.09380  0.12060  Biso   1.000  H
  C340     1.0000 0.29610  0.15030  0.30870  Biso   1.000  C
  H248     1.0000 0.29230  0.17960  0.30180  Biso   1.000  H
  C341     1.0000 0.30650  0.08020  0.30280  Biso   1.000  C
  H249     1.0000 0.31120  0.05250  0.29100  Biso   1.000  H
  C342     1.0000 0.30010  0.09030  0.34630  Biso   1.000  C
  H250     1.0000 0.30020  0.07100  0.36970  Biso   1.000  H
  C343     1.0000 0.28360  0.15830  0.38730  Biso   1.000  C
  C344     1.0000 0.25290  0.19230  0.38500  Biso   1.000  C
  H251     1.0000 0.24010  0.19940  0.35830  Biso   1.000  H
  C345     1.0000 0.24180  0.21520  0.42210  Biso   1.000  C
  H252     1.0000 0.22100  0.23740  0.42080  Biso   1.000  H
  C346     1.0000 0.26190  0.20480  0.46190  Biso   1.000  C
  C347     1.0000 0.29220  0.17050  0.46300  Biso   1.000  C
  H253     1.0000 0.30560  0.16330  0.48930  Biso   1.000  H
  C348     1.0000 0.30260  0.14750  0.42630  Biso   1.000  C
  H254     1.0000 0.32250  0.12460  0.42780  Biso   1.000  H
  C349     1.0000 0.28780  0.29670  0.48920  Biso   1.000  C
  H255     1.0000 0.31330  0.28170  0.48190  Biso   1.000  H
  C350     1.0000 0.28670  0.34230  0.48940  Biso   1.000  C
  H256     1.0000 0.31180  0.35780  0.48210  Biso   1.000  H
  C351     1.0000 0.22450  0.43770  0.52480  Biso   1.000  C
  C352     1.0000 0.23430  0.47920  0.51400  Biso   1.000  C
  N61      1.0000 0.32080  0.14440  0.14450  Biso   1.000  N
  N62      1.0000 0.34360  0.14070  0.07660  Biso   1.000  N
  N63      1.0000 0.30470  0.11890  0.28040  Biso   1.000  N
  N64      1.0000 0.29360  0.13380  0.34790  Biso   1.000  N
  O16      1.0000 0.26320  0.09710  0.18280  Biso   1.000  O
  Ag17     1.0000 0.78877  0.18794  0.13048  Biso   1.000  Ag
  C353     1.0000 0.03870  0.09750  0.09350  Biso   1.000  C
  C354     1.0000 0.03260  0.10340  0.13780  Biso   1.000  C
  H257     1.0000 0.05410  0.09460  0.15740  Biso   1.000  H
  C355     1.0000 0.99450  0.12260  0.15340  Biso   1.000  C
  H258     1.0000 0.99020  0.12580  0.18340  Biso   1.000  H
  C356     1.0000 0.96360  0.13650  0.12480  Biso   1.000  C
  C357     1.0000 0.96960  0.13230  0.07970  Biso   1.000  C
  H259     1.0000 0.94870  0.14270  0.06020  Biso   1.000  H
  C358     1.0000 0.00720  0.11230  0.06480  Biso   1.000  C
  H260     1.0000 0.01140  0.10880  0.03490  Biso   1.000  H
  C359     1.0000 0.91870  0.17700  0.18020  Biso   1.000  C
  H261     1.0000 0.94010  0.18140  0.20140  Biso   1.000  H
  C360     1.0000 0.87590  0.18980  0.18170  Biso   1.000  C
  H262     1.0000 0.86280  0.20390  0.20530  Biso   1.000  H
  C361     1.0000 0.88510  0.15750  0.12090  Biso   1.000  C
  H263     1.0000 0.87940  0.14480  0.09380  Biso   1.000  H
  C362     1.0000 0.69130  0.20390  0.15030  Biso   1.000  C
  H264     1.0000 0.69820  0.20770  0.17960  Biso   1.000  H
  C363     1.0000 0.69720  0.19350  0.08020  Biso   1.000  C
  H265     1.0000 0.70900  0.18880  0.05250  Biso   1.000  H
  C364     1.0000 0.65370  0.19990  0.09030  Biso   1.000  C
  H266     1.0000 0.63030  0.19980  0.07100  Biso   1.000  H
  C365     1.0000 0.61270  0.21640  0.15830  Biso   1.000  C
  C366     1.0000 0.61500  0.24710  0.19230  Biso   1.000  C
  H267     1.0000 0.64170  0.25990  0.19940  Biso   1.000  H
  C367     1.0000 0.57790  0.25820  0.21520  Biso   1.000  C
  H268     1.0000 0.57920  0.27900  0.23740  Biso   1.000  H
  C368     1.0000 0.53810  0.23810  0.20480  Biso   1.000  C
  C369     1.0000 0.53700  0.20780  0.17050  Biso   1.000  C
  H269     1.0000 0.51070  0.19440  0.16330  Biso   1.000  H
  C370     1.0000 0.57370  0.19740  0.14750  Biso   1.000  C
  H270     1.0000 0.57220  0.17750  0.12460  Biso   1.000  H
  C371     1.0000 0.51080  0.21220  0.29670  Biso   1.000  C
  H271     1.0000 0.51810  0.18670  0.28170  Biso   1.000  H
  C372     1.0000 0.51060  0.21330  0.34230  Biso   1.000  C
  H272     1.0000 0.51790  0.18820  0.35780  Biso   1.000  H
  C373     1.0000 0.47520  0.27550  0.43770  Biso   1.000  C
  C374     1.0000 0.48600  0.26570  0.47920  Biso   1.000  C
  N65      1.0000 0.85550  0.17920  0.14440  Biso   1.000  N
  N66      1.0000 0.92340  0.15640  0.14070  Biso   1.000  N
  N67      1.0000 0.71960  0.19530  0.11890  Biso   1.000  N
  N68      1.0000 0.65210  0.20640  0.13380  Biso   1.000  N
  O17      1.0000 0.81720  0.23680  0.09710  Biso   1.000  O
  Ag18     1.0000 0.28877  0.68794  0.63048  Biso   1.000  Ag
  C375     1.0000 0.53870  0.59750  0.59350  Biso   1.000  C
  C376     1.0000 0.53260  0.60340  0.63780  Biso   1.000  C
  H273     1.0000 0.55410  0.59460  0.65740  Biso   1.000  H
  C377     1.0000 0.49450  0.62260  0.65340  Biso   1.000  C
  H274     1.0000 0.49020  0.62580  0.68340  Biso   1.000  H
  C378     1.0000 0.46360  0.63650  0.62480  Biso   1.000  C
  C379     1.0000 0.46960  0.63230  0.57970  Biso   1.000  C
  H275     1.0000 0.44870  0.64270  0.56020  Biso   1.000  H
  C380     1.0000 0.50720  0.61230  0.56480  Biso   1.000  C
  H276     1.0000 0.51140  0.60880  0.53490  Biso   1.000  H
  C381     1.0000 0.41870  0.67700  0.68020  Biso   1.000  C
  H277     1.0000 0.44010  0.68140  0.70140  Biso   1.000  H
  C382     1.0000 0.37590  0.68980  0.68170  Biso   1.000  C
  H278     1.0000 0.36280  0.70390  0.70530  Biso   1.000  H
  C383     1.0000 0.38510  0.65750  0.62090  Biso   1.000  C
  H279     1.0000 0.37940  0.64480  0.59380  Biso   1.000  H
  C384     1.0000 0.19130  0.70390  0.65030  Biso   1.000  C
  H280     1.0000 0.19820  0.70770  0.67960  Biso   1.000  H
  C385     1.0000 0.19720  0.69350  0.58020  Biso   1.000  C
  H281     1.0000 0.20900  0.68880  0.55250  Biso   1.000  H
  C386     1.0000 0.15370  0.69990  0.59030  Biso   1.000  C
  H282     1.0000 0.13030  0.69980  0.57100  Biso   1.000  H
  C387     1.0000 0.11270  0.71640  0.65830  Biso   1.000  C
  C388     1.0000 0.11500  0.74710  0.69230  Biso   1.000  C
  H283     1.0000 0.14170  0.75990  0.69940  Biso   1.000  H
  C389     1.0000 0.07790  0.75820  0.71520  Biso   1.000  C
  H284     1.0000 0.07920  0.77900  0.73740  Biso   1.000  H
  C390     1.0000 0.03810  0.73810  0.70480  Biso   1.000  C
  C391     1.0000 0.03700  0.70780  0.67050  Biso   1.000  C
  H285     1.0000 0.01070  0.69440  0.66330  Biso   1.000  H
  C392     1.0000 0.07370  0.69740  0.64750  Biso   1.000  C
  H286     1.0000 0.07220  0.67750  0.62460  Biso   1.000  H
  C393     1.0000 0.01080  0.71220  0.79670  Biso   1.000  C
  H287     1.0000 0.01810  0.68670  0.78170  Biso   1.000  H
  C394     1.0000 0.01060  0.71330  0.84230  Biso   1.000  C
  H288     1.0000 0.01790  0.68820  0.85780  Biso   1.000  H
  C395     1.0000 0.97520  0.77550  0.93770  Biso   1.000  C
  C396     1.0000 0.98600  0.76570  0.97920  Biso   1.000  C
  N69      1.0000 0.35550  0.67920  0.64440  Biso   1.000  N
  N70      1.0000 0.42340  0.65640  0.64070  Biso   1.000  N
  N71      1.0000 0.21960  0.69530  0.61890  Biso   1.000  N
  N72      1.0000 0.15210  0.70640  0.63380  Biso   1.000  N
  O18      1.0000 0.31720  0.73680  0.59710  Biso   1.000  O
  Ag19     1.0000 0.21123  0.68794  0.36952  Biso   1.000  Ag
  C397     1.0000 0.96130  0.59750  0.40650  Biso   1.000  C
  C398     1.0000 0.96740  0.60340  0.36220  Biso   1.000  C
  H289     1.0000 0.94590  0.59460  0.34260  Biso   1.000  H
  C399     1.0000 0.00550  0.62260  0.34660  Biso   1.000  C
  H290     1.0000 0.00980  0.62580  0.31660  Biso   1.000  H
  C400     1.0000 0.03640  0.63650  0.37520  Biso   1.000  C
  C401     1.0000 0.03040  0.63230  0.42030  Biso   1.000  C
  H291     1.0000 0.05130  0.64270  0.43980  Biso   1.000  H
  C402     1.0000 0.99280  0.61230  0.43520  Biso   1.000  C
  H292     1.0000 0.98860  0.60880  0.46510  Biso   1.000  H
  C403     1.0000 0.08130  0.67700  0.31980  Biso   1.000  C
  H293     1.0000 0.05990  0.68140  0.29860  Biso   1.000  H
  C404     1.0000 0.12410  0.68980  0.31830  Biso   1.000  C
  H294     1.0000 0.13720  0.70390  0.29470  Biso   1.000  H
  C405     1.0000 0.11490  0.65750  0.37910  Biso   1.000  C
  H295     1.0000 0.12060  0.64480  0.40620  Biso   1.000  H
  C406     1.0000 0.30870  0.70390  0.34970  Biso   1.000  C
  H296     1.0000 0.30180  0.70770  0.32040  Biso   1.000  H
  C407     1.0000 0.30280  0.69350  0.41980  Biso   1.000  C
  H297     1.0000 0.29100  0.68880  0.44750  Biso   1.000  H
  C408     1.0000 0.34630  0.69990  0.40970  Biso   1.000  C
  H298     1.0000 0.36970  0.69980  0.42900  Biso   1.000  H
  C409     1.0000 0.38730  0.71640  0.34170  Biso   1.000  C
  C410     1.0000 0.38500  0.74710  0.30770  Biso   1.000  C
  H299     1.0000 0.35830  0.75990  0.30060  Biso   1.000  H
  C411     1.0000 0.42210  0.75820  0.28480  Biso   1.000  C
  H300     1.0000 0.42080  0.77900  0.26260  Biso   1.000  H
  C412     1.0000 0.46190  0.73810  0.29520  Biso   1.000  C
  C413     1.0000 0.46300  0.70780  0.32950  Biso   1.000  C
  H301     1.0000 0.48930  0.69440  0.33670  Biso   1.000  H
  C414     1.0000 0.42630  0.69740  0.35250  Biso   1.000  C
  H302     1.0000 0.42780  0.67750  0.37540  Biso   1.000  H
  C415     1.0000 0.48920  0.71220  0.20330  Biso   1.000  C
  H303     1.0000 0.48190  0.68670  0.21830  Biso   1.000  H
  C416     1.0000 0.48940  0.71330  0.15770  Biso   1.000  C
  H304     1.0000 0.48210  0.68820  0.14220  Biso   1.000  H
  C417     1.0000 0.52480  0.77550  0.06230  Biso   1.000  C
  C418     1.0000 0.51400  0.76570  0.02080  Biso   1.000  C
  N73      1.0000 0.14450  0.67920  0.35560  Biso   1.000  N
  N74      1.0000 0.07660  0.65640  0.35930  Biso   1.000  N
  N75      1.0000 0.28040  0.69530  0.38110  Biso   1.000  N
  N76      1.0000 0.34790  0.70640  0.36620  Biso   1.000  N
  O19      1.0000 0.18280  0.73680  0.40290  Biso   1.000  O
  Ag20     1.0000 0.71123  0.18794  0.86952  Biso   1.000  Ag
  C419     1.0000 0.46130  0.09750  0.90650  Biso   1.000  C
  C420     1.0000 0.46740  0.10340  0.86220  Biso   1.000  C
  H305     1.0000 0.44590  0.09460  0.84260  Biso   1.000  H
  C421     1.0000 0.50550  0.12260  0.84660  Biso   1.000  C
  H306     1.0000 0.50980  0.12580  0.81660  Biso   1.000  H
  C422     1.0000 0.53640  0.13650  0.87520  Biso   1.000  C
  C423     1.0000 0.53040  0.13230  0.92030  Biso   1.000  C
  H307     1.0000 0.55130  0.14270  0.93980  Biso   1.000  H
  C424     1.0000 0.49280  0.11230  0.93520  Biso   1.000  C
  H308     1.0000 0.48860  0.10880  0.96510  Biso   1.000  H
  C425     1.0000 0.58130  0.17700  0.81980  Biso   1.000  C
  H309     1.0000 0.55990  0.18140  0.79860  Biso   1.000  H
  C426     1.0000 0.62410  0.18980  0.81830  Biso   1.000  C
  H310     1.0000 0.63720  0.20390  0.79470  Biso   1.000  H
  C427     1.0000 0.61490  0.15750  0.87910  Biso   1.000  C
  H311     1.0000 0.62060  0.14480  0.90620  Biso   1.000  H
  C428     1.0000 0.80870  0.20390  0.84970  Biso   1.000  C
  H312     1.0000 0.80180  0.20770  0.82040  Biso   1.000  H
  C429     1.0000 0.80280  0.19350  0.91980  Biso   1.000  C
  H313     1.0000 0.79100  0.18880  0.94750  Biso   1.000  H
  C430     1.0000 0.84630  0.19990  0.90970  Biso   1.000  C
  H314     1.0000 0.86970  0.19980  0.92900  Biso   1.000  H
  C431     1.0000 0.88730  0.21640  0.84170  Biso   1.000  C
  C432     1.0000 0.88500  0.24710  0.80770  Biso   1.000  C
  H315     1.0000 0.85830  0.25990  0.80060  Biso   1.000  H
  C433     1.0000 0.92210  0.25820  0.78480  Biso   1.000  C
  H316     1.0000 0.92080  0.27900  0.76260  Biso   1.000  H
  C434     1.0000 0.96190  0.23810  0.79520  Biso   1.000  C
  C435     1.0000 0.96300  0.20780  0.82950  Biso   1.000  C
  H317     1.0000 0.98930  0.19440  0.83670  Biso   1.000  H
  C436     1.0000 0.92630  0.19740  0.85250  Biso   1.000  C
  H318     1.0000 0.92780  0.17750  0.87540  Biso   1.000  H
  C437     1.0000 0.98920  0.21220  0.70330  Biso   1.000  C
  H319     1.0000 0.98190  0.18670  0.71830  Biso   1.000  H
  C438     1.0000 0.98940  0.21330  0.65770  Biso   1.000  C
  H320     1.0000 0.98210  0.18820  0.64220  Biso   1.000  H
  C439     1.0000 0.02480  0.27550  0.56230  Biso   1.000  C
  C440     1.0000 0.01400  0.26570  0.52080  Biso   1.000  C
  N77      1.0000 0.64450  0.17920  0.85560  Biso   1.000  N
  N78      1.0000 0.57660  0.15640  0.85930  Biso   1.000  N
  N79      1.0000 0.78040  0.19530  0.88110  Biso   1.000  N
  N80      1.0000 0.84790  0.20640  0.86620  Biso   1.000  N
  O20      1.0000 0.68280  0.23680  0.90290  Biso   1.000  O
  Ag21     1.0000 0.28877  0.31206  0.86952  Biso   1.000  Ag
  C441     1.0000 0.53870  0.40250  0.90650  Biso   1.000  C
  C442     1.0000 0.53260  0.39660  0.86220  Biso   1.000  C
  H321     1.0000 0.55410  0.40540  0.84260  Biso   1.000  H
  C443     1.0000 0.49450  0.37740  0.84660  Biso   1.000  C
  H322     1.0000 0.49020  0.37420  0.81660  Biso   1.000  H
  C444     1.0000 0.46360  0.36350  0.87520  Biso   1.000  C
  C445     1.0000 0.46960  0.36770  0.92030  Biso   1.000  C
  H323     1.0000 0.44870  0.35730  0.93980  Biso   1.000  H
  C446     1.0000 0.50720  0.38770  0.93520  Biso   1.000  C
  H324     1.0000 0.51140  0.39120  0.96510  Biso   1.000  H
  C447     1.0000 0.41870  0.32300  0.81980  Biso   1.000  C
  H325     1.0000 0.44010  0.31860  0.79860  Biso   1.000  H
  C448     1.0000 0.37590  0.31020  0.81830  Biso   1.000  C
  H326     1.0000 0.36280  0.29610  0.79470  Biso   1.000  H
  C449     1.0000 0.38510  0.34250  0.87910  Biso   1.000  C
  H327     1.0000 0.37940  0.35520  0.90620  Biso   1.000  H
  C450     1.0000 0.19130  0.29610  0.84970  Biso   1.000  C
  H328     1.0000 0.19820  0.29230  0.82040  Biso   1.000  H
  C451     1.0000 0.19720  0.30650  0.91980  Biso   1.000  C
  H329     1.0000 0.20900  0.31120  0.94750  Biso   1.000  H
  C452     1.0000 0.15370  0.30010  0.90970  Biso   1.000  C
  H330     1.0000 0.13030  0.30020  0.92900  Biso   1.000  H
  C453     1.0000 0.11270  0.28360  0.84170  Biso   1.000  C
  C454     1.0000 0.11500  0.25290  0.80770  Biso   1.000  C
  H331     1.0000 0.14170  0.24010  0.80060  Biso   1.000  H
  C455     1.0000 0.07790  0.24180  0.78480  Biso   1.000  C
  H332     1.0000 0.07920  0.22100  0.76260  Biso   1.000  H
  C456     1.0000 0.03810  0.26190  0.79520  Biso   1.000  C
  C457     1.0000 0.03700  0.29220  0.82950  Biso   1.000  C
  H333     1.0000 0.01070  0.30560  0.83670  Biso   1.000  H
  C458     1.0000 0.07370  0.30260  0.85250  Biso   1.000  C
  H334     1.0000 0.07220  0.32250  0.87540  Biso   1.000  H
  C459     1.0000 0.01080  0.28780  0.70330  Biso   1.000  C
  H335     1.0000 0.01810  0.31330  0.71830  Biso   1.000  H
  C460     1.0000 0.01060  0.28670  0.65770  Biso   1.000  C
  H336     1.0000 0.01790  0.31180  0.64220  Biso   1.000  H
  C461     1.0000 0.97520  0.22450  0.56230  Biso   1.000  C
  C462     1.0000 0.98600  0.23430  0.52080  Biso   1.000  C
  N81      1.0000 0.35550  0.32080  0.85560  Biso   1.000  N
  N82      1.0000 0.42340  0.34360  0.85930  Biso   1.000  N
  N83      1.0000 0.21960  0.30470  0.88110  Biso   1.000  N
  N84      1.0000 0.15210  0.29360  0.86620  Biso   1.000  N
  O21      1.0000 0.31720  0.26320  0.90290  Biso   1.000  O
  Ag22     1.0000 0.78877  0.81206  0.36952  Biso   1.000  Ag
  C463     1.0000 0.03870  0.90250  0.40650  Biso   1.000  C
  C464     1.0000 0.03260  0.89660  0.36220  Biso   1.000  C
  H337     1.0000 0.05410  0.90540  0.34260  Biso   1.000  H
  C465     1.0000 0.99450  0.87740  0.34660  Biso   1.000  C
  H338     1.0000 0.99020  0.87420  0.31660  Biso   1.000  H
  C466     1.0000 0.96360  0.86350  0.37520  Biso   1.000  C
  C467     1.0000 0.96960  0.86770  0.42030  Biso   1.000  C
  H339     1.0000 0.94870  0.85730  0.43980  Biso   1.000  H
  C468     1.0000 0.00720  0.88770  0.43520  Biso   1.000  C
  H340     1.0000 0.01140  0.89120  0.46510  Biso   1.000  H
  C469     1.0000 0.91870  0.82300  0.31980  Biso   1.000  C
  H341     1.0000 0.94010  0.81860  0.29860  Biso   1.000  H
  C470     1.0000 0.87590  0.81020  0.31830  Biso   1.000  C
  H342     1.0000 0.86280  0.79610  0.29470  Biso   1.000  H
  C471     1.0000 0.88510  0.84250  0.37910  Biso   1.000  C
  H343     1.0000 0.87940  0.85520  0.40620  Biso   1.000  H
  C472     1.0000 0.69130  0.79610  0.34970  Biso   1.000  C
  H344     1.0000 0.69820  0.79230  0.32040  Biso   1.000  H
  C473     1.0000 0.69720  0.80650  0.41980  Biso   1.000  C
  H345     1.0000 0.70900  0.81120  0.44750  Biso   1.000  H
  C474     1.0000 0.65370  0.80010  0.40970  Biso   1.000  C
  H346     1.0000 0.63030  0.80020  0.42900  Biso   1.000  H
  C475     1.0000 0.61270  0.78360  0.34170  Biso   1.000  C
  C476     1.0000 0.61500  0.75290  0.30770  Biso   1.000  C
  H347     1.0000 0.64170  0.74010  0.30060  Biso   1.000  H
  C477     1.0000 0.57790  0.74180  0.28480  Biso   1.000  C
  H348     1.0000 0.57920  0.72100  0.26260  Biso   1.000  H
  C478     1.0000 0.53810  0.76190  0.29520  Biso   1.000  C
  C479     1.0000 0.53700  0.79220  0.32950  Biso   1.000  C
  H349     1.0000 0.51070  0.80560  0.33670  Biso   1.000  H
  C480     1.0000 0.57370  0.80260  0.35250  Biso   1.000  C
  H350     1.0000 0.57220  0.82250  0.37540  Biso   1.000  H
  C481     1.0000 0.51080  0.78780  0.20330  Biso   1.000  C
  H351     1.0000 0.51810  0.81330  0.21830  Biso   1.000  H
  C482     1.0000 0.51060  0.78670  0.15770  Biso   1.000  C
  H352     1.0000 0.51790  0.81180  0.14220  Biso   1.000  H
  C483     1.0000 0.47520  0.72450  0.06230  Biso   1.000  C
  C484     1.0000 0.48600  0.73430  0.02080  Biso   1.000  C
  N85      1.0000 0.85550  0.82080  0.35560  Biso   1.000  N
  N86      1.0000 0.92340  0.84360  0.35930  Biso   1.000  N
  N87      1.0000 0.71960  0.80470  0.38110  Biso   1.000  N
  N88      1.0000 0.65210  0.79360  0.36620  Biso   1.000  N
  O22      1.0000 0.81720  0.76320  0.40290  Biso   1.000  O
  Ag23     1.0000 0.71123  0.81206  0.63048  Biso   1.000  Ag
  C485     1.0000 0.46130  0.90250  0.59350  Biso   1.000  C
  C486     1.0000 0.46740  0.89660  0.63780  Biso   1.000  C
  H353     1.0000 0.44590  0.90540  0.65740  Biso   1.000  H
  C487     1.0000 0.50550  0.87740  0.65340  Biso   1.000  C
  H354     1.0000 0.50980  0.87420  0.68340  Biso   1.000  H
  C488     1.0000 0.53640  0.86350  0.62480  Biso   1.000  C
  C489     1.0000 0.53040  0.86770  0.57970  Biso   1.000  C
  H355     1.0000 0.55130  0.85730  0.56020  Biso   1.000  H
  C490     1.0000 0.49280  0.88770  0.56480  Biso   1.000  C
  H356     1.0000 0.48860  0.89120  0.53490  Biso   1.000  H
  C491     1.0000 0.58130  0.82300  0.68020  Biso   1.000  C
  H357     1.0000 0.55990  0.81860  0.70140  Biso   1.000  H
  C492     1.0000 0.62410  0.81020  0.68170  Biso   1.000  C
  H358     1.0000 0.63720  0.79610  0.70530  Biso   1.000  H
  C493     1.0000 0.61490  0.84250  0.62090  Biso   1.000  C
  H359     1.0000 0.62060  0.85520  0.59380  Biso   1.000  H
  C494     1.0000 0.80870  0.79610  0.65030  Biso   1.000  C
  H360     1.0000 0.80180  0.79230  0.67960  Biso   1.000  H
  C495     1.0000 0.80280  0.80650  0.58020  Biso   1.000  C
  H361     1.0000 0.79100  0.81120  0.55250  Biso   1.000  H
  C496     1.0000 0.84630  0.80010  0.59030  Biso   1.000  C
  H362     1.0000 0.86970  0.80020  0.57100  Biso   1.000  H
  C497     1.0000 0.88730  0.78360  0.65830  Biso   1.000  C
  C498     1.0000 0.88500  0.75290  0.69230  Biso   1.000  C
  H363     1.0000 0.85830  0.74010  0.69940  Biso   1.000  H
  C499     1.0000 0.92210  0.74180  0.71520  Biso   1.000  C
  H364     1.0000 0.92080  0.72100  0.73740  Biso   1.000  H
  C500     1.0000 0.96190  0.76190  0.70480  Biso   1.000  C
  C501     1.0000 0.96300  0.79220  0.67050  Biso   1.000  C
  H365     1.0000 0.98930  0.80560  0.66330  Biso   1.000  H
  C502     1.0000 0.92630  0.80260  0.64750  Biso   1.000  C
  H366     1.0000 0.92780  0.82250  0.62460  Biso   1.000  H
  C503     1.0000 0.98920  0.78780  0.79670  Biso   1.000  C
  H367     1.0000 0.98190  0.81330  0.78170  Biso   1.000  H
  C504     1.0000 0.98940  0.78670  0.84230  Biso   1.000  C
  H368     1.0000 0.98210  0.81180  0.85780  Biso   1.000  H
  C505     1.0000 0.02480  0.72450  0.93770  Biso   1.000  C
  C506     1.0000 0.01400  0.73430  0.97920  Biso   1.000  C
  N89      1.0000 0.64450  0.82080  0.64440  Biso   1.000  N
  N90      1.0000 0.57660  0.84360  0.64070  Biso   1.000  N
  N91      1.0000 0.78040  0.80470  0.61890  Biso   1.000  N
  N92      1.0000 0.84790  0.79360  0.63380  Biso   1.000  N
  O23      1.0000 0.68280  0.76320  0.59710  Biso   1.000  O
  Ag24     1.0000 0.21123  0.31206  0.13048  Biso   1.000  Ag
  C507     1.0000 0.96130  0.40250  0.09350  Biso   1.000  C
  C508     1.0000 0.96740  0.39660  0.13780  Biso   1.000  C
  H369     1.0000 0.94590  0.40540  0.15740  Biso   1.000  H
  C509     1.0000 0.00550  0.37740  0.15340  Biso   1.000  C
  H370     1.0000 0.00980  0.37420  0.18340  Biso   1.000  H
  C510     1.0000 0.03640  0.36350  0.12480  Biso   1.000  C
  C511     1.0000 0.03040  0.36770  0.07970  Biso   1.000  C
  H371     1.0000 0.05130  0.35730  0.06020  Biso   1.000  H
  C512     1.0000 0.99280  0.38770  0.06480  Biso   1.000  C
  H372     1.0000 0.98860  0.39120  0.03490  Biso   1.000  H
  C513     1.0000 0.08130  0.32300  0.18020  Biso   1.000  C
  H373     1.0000 0.05990  0.31860  0.20140  Biso   1.000  H
  C514     1.0000 0.12410  0.31020  0.18170  Biso   1.000  C
  H374     1.0000 0.13720  0.29610  0.20530  Biso   1.000  H
  C515     1.0000 0.11490  0.34250  0.12090  Biso   1.000  C
  H375     1.0000 0.12060  0.35520  0.09380  Biso   1.000  H
  C516     1.0000 0.30870  0.29610  0.15030  Biso   1.000  C
  H376     1.0000 0.30180  0.29230  0.17960  Biso   1.000  H
  C517     1.0000 0.30280  0.30650  0.08020  Biso   1.000  C
  H377     1.0000 0.29100  0.31120  0.05250  Biso   1.000  H
  C518     1.0000 0.34630  0.30010  0.09030  Biso   1.000  C
  H378     1.0000 0.36970  0.30020  0.07100  Biso   1.000  H
  C519     1.0000 0.38730  0.28360  0.15830  Biso   1.000  C
  C520     1.0000 0.38500  0.25290  0.19230  Biso   1.000  C
  H379     1.0000 0.35830  0.24010  0.19940  Biso   1.000  H
  C521     1.0000 0.42210  0.24180  0.21520  Biso   1.000  C
  H380     1.0000 0.42080  0.22100  0.23740  Biso   1.000  H
  C522     1.0000 0.46190  0.26190  0.20480  Biso   1.000  C
  C523     1.0000 0.46300  0.29220  0.17050  Biso   1.000  C
  H381     1.0000 0.48930  0.30560  0.16330  Biso   1.000  H
  C524     1.0000 0.42630  0.30260  0.14750  Biso   1.000  C
  H382     1.0000 0.42780  0.32250  0.12460  Biso   1.000  H
  C525     1.0000 0.48920  0.28780  0.29670  Biso   1.000  C
  H383     1.0000 0.48190  0.31330  0.28170  Biso   1.000  H
  C526     1.0000 0.48940  0.28670  0.34230  Biso   1.000  C
  H384     1.0000 0.48210  0.31180  0.35780  Biso   1.000  H
  C527     1.0000 0.52480  0.22450  0.43770  Biso   1.000  C
  C528     1.0000 0.51400  0.23430  0.47920  Biso   1.000  C
  N93      1.0000 0.14450  0.32080  0.14440  Biso   1.000  N
  N94      1.0000 0.07660  0.34360  0.14070  Biso   1.000  N
  N95      1.0000 0.28040  0.30470  0.11890  Biso   1.000  N
  N96      1.0000 0.34790  0.29360  0.13380  Biso   1.000  N
  O24      1.0000 0.18280  0.26320  0.09710  Biso   1.000  O
  C529     1.0000 0.27450  0.50000  0.25000  Biso   1.000  C
  C530     1.0000 0.36450  0.50000  0.25000  Biso   1.000  C
  N97      1.0000 0.41190  0.50000  0.25000  Biso   1.000  N
  N98      1.0000 0.22750  0.50000  0.25000  Biso   1.000  N
  C531     1.0000 0.22550  0.50000  0.75000  Biso   1.000  C
  C532     1.0000 0.13550  0.50000  0.75000  Biso   1.000  C
  N99      1.0000 0.08810  0.50000  0.75000  Biso   1.000  N
  N100     1.0000 0.27250  0.50000  0.75000  Biso   1.000  N
  C533     1.0000 0.72550  0.00000  0.25000  Biso   1.000  C
  C534     1.0000 0.63550  0.00000  0.25000  Biso   1.000  C
  N101     1.0000 0.58810  0.00000  0.25000  Biso   1.000  N
  N102     1.0000 0.77250  0.00000  0.25000  Biso   1.000  N
  C535     1.0000 0.77450  0.00000  0.75000  Biso   1.000  C
  C536     1.0000 0.86450  0.00000  0.75000  Biso   1.000  C
  N103     1.0000 0.91190  0.00000  0.75000  Biso   1.000  N
  N104     1.0000 0.72750  0.00000  0.75000  Biso   1.000  N
  C537     1.0000 0.25000  0.27450  0.50000  Biso   1.000  C
  C538     1.0000 0.25000  0.36450  0.50000  Biso   1.000  C
  N105     1.0000 0.25000  0.41190  0.50000  Biso   1.000  N
  N106     1.0000 0.25000  0.22750  0.50000  Biso   1.000  N
  C539     1.0000 0.75000  0.22550  0.50000  Biso   1.000  C
  C540     1.0000 0.75000  0.13550  0.50000  Biso   1.000  C
  N107     1.0000 0.75000  0.08810  0.50000  Biso   1.000  N
  N108     1.0000 0.75000  0.27250  0.50000  Biso   1.000  N
  C541     1.0000 0.25000  0.72550  0.00000  Biso   1.000  C
  C542     1.0000 0.25000  0.63550  0.00000  Biso   1.000  C
  N109     1.0000 0.25000  0.58810  0.00000  Biso   1.000  N
  N110     1.0000 0.25000  0.77250  0.00000  Biso   1.000  N
  C543     1.0000 0.75000  0.77450  0.00000  Biso   1.000  C
  C544     1.0000 0.75000  0.86450  0.00000  Biso   1.000  C
  N111     1.0000 0.75000  0.91190  0.00000  Biso   1.000  N
  N112     1.0000 0.75000  0.72750  0.00000  Biso   1.000  N
  C545     1.0000 0.50000  0.25000  0.27450  Biso   1.000  C
  C546     1.0000 0.50000  0.25000  0.36450  Biso   1.000  C
  N113     1.0000 0.50000  0.25000  0.41190  Biso   1.000  N
  N114     1.0000 0.50000  0.25000  0.22750  Biso   1.000  N
  C547     1.0000 0.50000  0.75000  0.22550  Biso   1.000  C
  C548     1.0000 0.50000  0.75000  0.13550  Biso   1.000  C
  N115     1.0000 0.50000  0.75000  0.08810  Biso   1.000  N
  N116     1.0000 0.50000  0.75000  0.27250  Biso   1.000  N
  C549     1.0000 0.00000  0.25000  0.72550  Biso   1.000  C
  C550     1.0000 0.00000  0.25000  0.63550  Biso   1.000  C
  N117     1.0000 0.00000  0.25000  0.58810  Biso   1.000  N
  N118     1.0000 0.00000  0.25000  0.77250  Biso   1.000  N
  C551     1.0000 0.00000  0.75000  0.77450  Biso   1.000  C
  C552     1.0000 0.00000  0.75000  0.86450  Biso   1.000  C
  N119     1.0000 0.00000  0.75000  0.91190  Biso   1.000  N
  N120     1.0000 0.00000  0.75000  0.72750  Biso   1.000  N
  N121     1.0000 0.07740  0.07740  0.07740  Biso   1.000  N
  N122     1.0000 0.57740  0.57740  0.57740  Biso   1.000  N
  N123     1.0000 0.42260  0.92260  0.57740  Biso   1.000  N
  N124     1.0000 0.92260  0.42260  0.07740  Biso   1.000  N
  N125     1.0000 0.92260  0.57740  0.42260  Biso   1.000  N
  N126     1.0000 0.42260  0.07740  0.92260  Biso   1.000  N
  N127     1.0000 0.57740  0.42260  0.92260  Biso   1.000  N
  N128     1.0000 0.07740  0.92260  0.42260  Biso   1.000  N
  Ag25     1.0000 0.03877  0.38048  0.43794  Biso   1.000  Ag
  C553     1.0000 0.28870  0.34350  0.34750  Biso   1.000  C
  C554     1.0000 0.28260  0.38780  0.35340  Biso   1.000  C
  H385     1.0000 0.30410  0.40740  0.34460  Biso   1.000  H
  C555     1.0000 0.24450  0.40340  0.37260  Biso   1.000  C
  H386     1.0000 0.24020  0.43340  0.37580  Biso   1.000  H
  C556     1.0000 0.21360  0.37480  0.38650  Biso   1.000  C
  C557     1.0000 0.21960  0.32970  0.38230  Biso   1.000  C
  H387     1.0000 0.19870  0.31020  0.39270  Biso   1.000  H
  C558     1.0000 0.25720  0.31480  0.36230  Biso   1.000  C
  H388     1.0000 0.26140  0.28490  0.35880  Biso   1.000  H
  C559     1.0000 0.16870  0.43020  0.42700  Biso   1.000  C
  H389     1.0000 0.19010  0.45140  0.43140  Biso   1.000  H
  C560     1.0000 0.12590  0.43170  0.43980  Biso   1.000  C
  H390     1.0000 0.11280  0.45530  0.45390  Biso   1.000  H
  C561     1.0000 0.13510  0.37090  0.40750  Biso   1.000  C
  H391     1.0000 0.12940  0.34380  0.39480  Biso   1.000  H
  C562     1.0000 0.94130  0.40030  0.45390  Biso   1.000  C
  H392     1.0000 0.94820  0.42960  0.45770  Biso   1.000  H
  C563     1.0000 0.94720  0.33020  0.44350  Biso   1.000  C
  H393     1.0000 0.95900  0.30250  0.43880  Biso   1.000  H
  C564     1.0000 0.90370  0.34030  0.44990  Biso   1.000  C
  H394     1.0000 0.88030  0.32100  0.44980  Biso   1.000  H
  C565     1.0000 0.86270  0.40830  0.46640  Biso   1.000  C
  C566     1.0000 0.86500  0.44230  0.49710  Biso   1.000  C
  H395     1.0000 0.89170  0.44940  0.50990  Biso   1.000  H
  C567     1.0000 0.82790  0.46520  0.50820  Biso   1.000  C
  H396     1.0000 0.82920  0.48740  0.52900  Biso   1.000  H
  C568     1.0000 0.78810  0.45480  0.48810  Biso   1.000  C
  C569     1.0000 0.78700  0.42050  0.45780  Biso   1.000  C
  H397     1.0000 0.76070  0.41330  0.44440  Biso   1.000  H
  C570     1.0000 0.82370  0.39750  0.44740  Biso   1.000  C
  H398     1.0000 0.82220  0.37460  0.42750  Biso   1.000  H
  C571     1.0000 0.76080  0.54670  0.46220  Biso   1.000  C
  H399     1.0000 0.76810  0.53170  0.43670  Biso   1.000  H
  C572     1.0000 0.76060  0.59230  0.46330  Biso   1.000  C
  H400     1.0000 0.76790  0.60780  0.43820  Biso   1.000  H
  C573     1.0000 0.72520  0.68770  0.52550  Biso   1.000  C
  C574     1.0000 0.73600  0.72920  0.51570  Biso   1.000  C
  N129     1.0000 0.10550  0.39440  0.42920  Biso   1.000  N
  N130     1.0000 0.17340  0.39070  0.40640  Biso   1.000  N
  N131     1.0000 0.96960  0.36890  0.44530  Biso   1.000  N
  N132     1.0000 0.90210  0.38380  0.45640  Biso   1.000  N
  O25      1.0000 0.06720  0.34710  0.48680  Biso   1.000  O
  Ag26     1.0000 0.53877  0.88048  0.93794  Biso   1.000  Ag
  C575     1.0000 0.78870  0.84350  0.84750  Biso   1.000  C
  C576     1.0000 0.78260  0.88780  0.85340  Biso   1.000  C
  H401     1.0000 0.80410  0.90740  0.84460  Biso   1.000  H
  C577     1.0000 0.74450  0.90340  0.87260  Biso   1.000  C
  H402     1.0000 0.74020  0.93340  0.87580  Biso   1.000  H
  C578     1.0000 0.71360  0.87480  0.88650  Biso   1.000  C
  C579     1.0000 0.71960  0.82970  0.88230  Biso   1.000  C
  H403     1.0000 0.69870  0.81020  0.89270  Biso   1.000  H
  C580     1.0000 0.75720  0.81480  0.86230  Biso   1.000  C
  H404     1.0000 0.76140  0.78490  0.85880  Biso   1.000  H
  C581     1.0000 0.66870  0.93020  0.92700  Biso   1.000  C
  H405     1.0000 0.69010  0.95140  0.93140  Biso   1.000  H
  C582     1.0000 0.62590  0.93170  0.93980  Biso   1.000  C
  H406     1.0000 0.61280  0.95530  0.95390  Biso   1.000  H
  C583     1.0000 0.63510  0.87090  0.90750  Biso   1.000  C
  H407     1.0000 0.62940  0.84380  0.89480  Biso   1.000  H
  C584     1.0000 0.44130  0.90030  0.95390  Biso   1.000  C
  H408     1.0000 0.44820  0.92960  0.95770  Biso   1.000  H
  C585     1.0000 0.44720  0.83020  0.94350  Biso   1.000  C
  H409     1.0000 0.45900  0.80250  0.93880  Biso   1.000  H
  C586     1.0000 0.40370  0.84030  0.94990  Biso   1.000  C
  H410     1.0000 0.38030  0.82100  0.94980  Biso   1.000  H
  C587     1.0000 0.36270  0.90830  0.96640  Biso   1.000  C
  C588     1.0000 0.36500  0.94230  0.99710  Biso   1.000  C
  H411     1.0000 0.39170  0.94940  0.00990  Biso   1.000  H
  C589     1.0000 0.32790  0.96520  0.00820  Biso   1.000  C
  H412     1.0000 0.32920  0.98740  0.02900  Biso   1.000  H
  C590     1.0000 0.28810  0.95480  0.98810  Biso   1.000  C
  C591     1.0000 0.28700  0.92050  0.95780  Biso   1.000  C
  H413     1.0000 0.26070  0.91330  0.94440  Biso   1.000  H
  C592     1.0000 0.32370  0.89750  0.94740  Biso   1.000  C
  H414     1.0000 0.32220  0.87460  0.92750  Biso   1.000  H
  C593     1.0000 0.26080  0.04670  0.96220  Biso   1.000  C
  H415     1.0000 0.26810  0.03170  0.93670  Biso   1.000  H
  C594     1.0000 0.26060  0.09230  0.96330  Biso   1.000  C
  H416     1.0000 0.26790  0.10780  0.93820  Biso   1.000  H
  C595     1.0000 0.22520  0.18770  0.02550  Biso   1.000  C
  C596     1.0000 0.23600  0.22920  0.01570  Biso   1.000  C
  N133     1.0000 0.60550  0.89440  0.92920  Biso   1.000  N
  N134     1.0000 0.67340  0.89070  0.90640  Biso   1.000  N
  N135     1.0000 0.46960  0.86890  0.94530  Biso   1.000  N
  N136     1.0000 0.40210  0.88380  0.95640  Biso   1.000  N
  O26      1.0000 0.56720  0.84710  0.98680  Biso   1.000  O
  Ag27     1.0000 0.46123  0.61952  0.93794  Biso   1.000  Ag
  C597     1.0000 0.21130  0.65650  0.84750  Biso   1.000  C
  C598     1.0000 0.21740  0.61220  0.85340  Biso   1.000  C
  H417     1.0000 0.19590  0.59260  0.84460  Biso   1.000  H
  C599     1.0000 0.25550  0.59660  0.87260  Biso   1.000  C
  H418     1.0000 0.25980  0.56660  0.87580  Biso   1.000  H
  C600     1.0000 0.28640  0.62520  0.88650  Biso   1.000  C
  C601     1.0000 0.28040  0.67030  0.88230  Biso   1.000  C
  H419     1.0000 0.30130  0.68980  0.89270  Biso   1.000  H
  C602     1.0000 0.24280  0.68520  0.86230  Biso   1.000  C
  H420     1.0000 0.23860  0.71510  0.85880  Biso   1.000  H
  C603     1.0000 0.33130  0.56980  0.92700  Biso   1.000  C
  H421     1.0000 0.30990  0.54860  0.93140  Biso   1.000  H
  C604     1.0000 0.37410  0.56830  0.93980  Biso   1.000  C
  H422     1.0000 0.38720  0.54470  0.95390  Biso   1.000  H
  C605     1.0000 0.36490  0.62910  0.90750  Biso   1.000  C
  H423     1.0000 0.37060  0.65620  0.89480  Biso   1.000  H
  C606     1.0000 0.55870  0.59970  0.95390  Biso   1.000  C
  H424     1.0000 0.55180  0.57040  0.95770  Biso   1.000  H
  C607     1.0000 0.55280  0.66980  0.94350  Biso   1.000  C
  H425     1.0000 0.54100  0.69750  0.93880  Biso   1.000  H
  C608     1.0000 0.59630  0.65970  0.94990  Biso   1.000  C
  H426     1.0000 0.61970  0.67900  0.94980  Biso   1.000  H
  C609     1.0000 0.63730  0.59170  0.96640  Biso   1.000  C
  C610     1.0000 0.63500  0.55770  0.99710  Biso   1.000  C
  H427     1.0000 0.60830  0.55060  0.00990  Biso   1.000  H
  C611     1.0000 0.67210  0.53480  0.00820  Biso   1.000  C
  H428     1.0000 0.67080  0.51260  0.02900  Biso   1.000  H
  C612     1.0000 0.71190  0.54520  0.98810  Biso   1.000  C
  C613     1.0000 0.71300  0.57950  0.95780  Biso   1.000  C
  H429     1.0000 0.73930  0.58670  0.94440  Biso   1.000  H
  C614     1.0000 0.67630  0.60250  0.94740  Biso   1.000  C
  H430     1.0000 0.67780  0.62540  0.92750  Biso   1.000  H
  C615     1.0000 0.73920  0.45330  0.96220  Biso   1.000  C
  H431     1.0000 0.73190  0.46830  0.93670  Biso   1.000  H
  C616     1.0000 0.73940  0.40770  0.96330  Biso   1.000  C
  H432     1.0000 0.73210  0.39220  0.93820  Biso   1.000  H
  C617     1.0000 0.77480  0.31230  0.02550  Biso   1.000  C
  C618     1.0000 0.76400  0.27080  0.01570  Biso   1.000  C
  N137     1.0000 0.39450  0.60560  0.92920  Biso   1.000  N
  N138     1.0000 0.32660  0.60930  0.90640  Biso   1.000  N
  N139     1.0000 0.53040  0.63110  0.94530  Biso   1.000  N
  N140     1.0000 0.59790  0.61620  0.95640  Biso   1.000  N
  O27      1.0000 0.43280  0.65290  0.98680  Biso   1.000  O
  Ag28     1.0000 0.96123  0.11952  0.43794  Biso   1.000  Ag
  C619     1.0000 0.71130  0.15650  0.34750  Biso   1.000  C
  C620     1.0000 0.71740  0.11220  0.35340  Biso   1.000  C
  H433     1.0000 0.69590  0.09260  0.34460  Biso   1.000  H
  C621     1.0000 0.75550  0.09660  0.37260  Biso   1.000  C
  H434     1.0000 0.75980  0.06660  0.37580  Biso   1.000  H
  C622     1.0000 0.78640  0.12520  0.38650  Biso   1.000  C
  C623     1.0000 0.78040  0.17030  0.38230  Biso   1.000  C
  H435     1.0000 0.80130  0.18980  0.39270  Biso   1.000  H
  C624     1.0000 0.74280  0.18520  0.36230  Biso   1.000  C
  H436     1.0000 0.73860  0.21510  0.35880  Biso   1.000  H
  C625     1.0000 0.83130  0.06980  0.42700  Biso   1.000  C
  H437     1.0000 0.80990  0.04860  0.43140  Biso   1.000  H
  C626     1.0000 0.87410  0.06830  0.43980  Biso   1.000  C
  H438     1.0000 0.88720  0.04470  0.45390  Biso   1.000  H
  C627     1.0000 0.86490  0.12910  0.40750  Biso   1.000  C
  H439     1.0000 0.87060  0.15620  0.39480  Biso   1.000  H
  C628     1.0000 0.05870  0.09970  0.45390  Biso   1.000  C
  H440     1.0000 0.05180  0.07040  0.45770  Biso   1.000  H
  C629     1.0000 0.05280  0.16980  0.44350  Biso   1.000  C
  H441     1.0000 0.04100  0.19750  0.43880  Biso   1.000  H
  C630     1.0000 0.09630  0.15970  0.44990  Biso   1.000  C
  H442     1.0000 0.11970  0.17900  0.44980  Biso   1.000  H
  C631     1.0000 0.13730  0.09170  0.46640  Biso   1.000  C
  C632     1.0000 0.13500  0.05770  0.49710  Biso   1.000  C
  H443     1.0000 0.10830  0.05060  0.50990  Biso   1.000  H
  C633     1.0000 0.17210  0.03480  0.50820  Biso   1.000  C
  H444     1.0000 0.17080  0.01260  0.52900  Biso   1.000  H
  C634     1.0000 0.21190  0.04520  0.48810  Biso   1.000  C
  C635     1.0000 0.21300  0.07950  0.45780  Biso   1.000  C
  H445     1.0000 0.23930  0.08670  0.44440  Biso   1.000  H
  C636     1.0000 0.17630  0.10250  0.44740  Biso   1.000  C
  H446     1.0000 0.17780  0.12540  0.42750  Biso   1.000  H
  C637     1.0000 0.23920  0.95330  0.46220  Biso   1.000  C
  H447     1.0000 0.23190  0.96830  0.43670  Biso   1.000  H
  C638     1.0000 0.23940  0.90770  0.46330  Biso   1.000  C
  H448     1.0000 0.23210  0.89220  0.43820  Biso   1.000  H
  C639     1.0000 0.27480  0.81230  0.52550  Biso   1.000  C
  C640     1.0000 0.26400  0.77080  0.51570  Biso   1.000  C
  N141     1.0000 0.89450  0.10560  0.42920  Biso   1.000  N
  N142     1.0000 0.82660  0.10930  0.40640  Biso   1.000  N
  N143     1.0000 0.03040  0.13110  0.44530  Biso   1.000  N
  N144     1.0000 0.09790  0.11620  0.45640  Biso   1.000  N
  O28      1.0000 0.93280  0.15290  0.48680  Biso   1.000  O
  Ag29     1.0000 0.53877  0.11952  0.56206  Biso   1.000  Ag
  C641     1.0000 0.78870  0.15650  0.65250  Biso   1.000  C
  C642     1.0000 0.78260  0.11220  0.64660  Biso   1.000  C
  H449     1.0000 0.80410  0.09260  0.65540  Biso   1.000  H
  C643     1.0000 0.74450  0.09660  0.62740  Biso   1.000  C
  H450     1.0000 0.74020  0.06660  0.62420  Biso   1.000  H
  C644     1.0000 0.71360  0.12520  0.61350  Biso   1.000  C
  C645     1.0000 0.71960  0.17030  0.61770  Biso   1.000  C
  H451     1.0000 0.69870  0.18980  0.60730  Biso   1.000  H
  C646     1.0000 0.75720  0.18520  0.63770  Biso   1.000  C
  H452     1.0000 0.76140  0.21510  0.64120  Biso   1.000  H
  C647     1.0000 0.66870  0.06980  0.57300  Biso   1.000  C
  H453     1.0000 0.69010  0.04860  0.56860  Biso   1.000  H
  C648     1.0000 0.62590  0.06830  0.56020  Biso   1.000  C
  H454     1.0000 0.61280  0.04470  0.54610  Biso   1.000  H
  C649     1.0000 0.63510  0.12910  0.59250  Biso   1.000  C
  H455     1.0000 0.62940  0.15620  0.60520  Biso   1.000  H
  C650     1.0000 0.44130  0.09970  0.54610  Biso   1.000  C
  H456     1.0000 0.44820  0.07040  0.54230  Biso   1.000  H
  C651     1.0000 0.44720  0.16980  0.55650  Biso   1.000  C
  H457     1.0000 0.45900  0.19750  0.56120  Biso   1.000  H
  C652     1.0000 0.40370  0.15970  0.55010  Biso   1.000  C
  H458     1.0000 0.38030  0.17900  0.55020  Biso   1.000  H
  C653     1.0000 0.36270  0.09170  0.53360  Biso   1.000  C
  C654     1.0000 0.36500  0.05770  0.50290  Biso   1.000  C
  H459     1.0000 0.39170  0.05060  0.49010  Biso   1.000  H
  C655     1.0000 0.32790  0.03480  0.49180  Biso   1.000  C
  H460     1.0000 0.32920  0.01260  0.47100  Biso   1.000  H
  C656     1.0000 0.28810  0.04520  0.51190  Biso   1.000  C
  C657     1.0000 0.28700  0.07950  0.54220  Biso   1.000  C
  H461     1.0000 0.26070  0.08670  0.55560  Biso   1.000  H
  C658     1.0000 0.32370  0.10250  0.55260  Biso   1.000  C
  H462     1.0000 0.32220  0.12540  0.57250  Biso   1.000  H
  C659     1.0000 0.26080  0.95330  0.53780  Biso   1.000  C
  H463     1.0000 0.26810  0.96830  0.56330  Biso   1.000  H
  C660     1.0000 0.26060  0.90770  0.53670  Biso   1.000  C
  H464     1.0000 0.26790  0.89220  0.56180  Biso   1.000  H
  C661     1.0000 0.22520  0.81230  0.47450  Biso   1.000  C
  C662     1.0000 0.23600  0.77080  0.48430  Biso   1.000  C
  N145     1.0000 0.60550  0.10560  0.57080  Biso   1.000  N
  N146     1.0000 0.67340  0.10930  0.59360  Biso   1.000  N
  N147     1.0000 0.46960  0.13110  0.55470  Biso   1.000  N
  N148     1.0000 0.40210  0.11620  0.54360  Biso   1.000  N
  O29      1.0000 0.56720  0.15290  0.51320  Biso   1.000  O
  Ag30     1.0000 0.03877  0.61952  0.06206  Biso   1.000  Ag
  C663     1.0000 0.28870  0.65650  0.15250  Biso   1.000  C
  C664     1.0000 0.28260  0.61220  0.14660  Biso   1.000  C
  H465     1.0000 0.30410  0.59260  0.15540  Biso   1.000  H
  C665     1.0000 0.24450  0.59660  0.12740  Biso   1.000  C
  H466     1.0000 0.24020  0.56660  0.12420  Biso   1.000  H
  C666     1.0000 0.21360  0.62520  0.11350  Biso   1.000  C
  C667     1.0000 0.21960  0.67030  0.11770  Biso   1.000  C
  H467     1.0000 0.19870  0.68980  0.10730  Biso   1.000  H
  C668     1.0000 0.25720  0.68520  0.13770  Biso   1.000  C
  H468     1.0000 0.26140  0.71510  0.14120  Biso   1.000  H
  C669     1.0000 0.16870  0.56980  0.07300  Biso   1.000  C
  H469     1.0000 0.19010  0.54860  0.06860  Biso   1.000  H
  C670     1.0000 0.12590  0.56830  0.06020  Biso   1.000  C
  H470     1.0000 0.11280  0.54470  0.04610  Biso   1.000  H
  C671     1.0000 0.13510  0.62910  0.09250  Biso   1.000  C
  H471     1.0000 0.12940  0.65620  0.10520  Biso   1.000  H
  C672     1.0000 0.94130  0.59970  0.04610  Biso   1.000  C
  H472     1.0000 0.94820  0.57040  0.04230  Biso   1.000  H
  C673     1.0000 0.94720  0.66980  0.05650  Biso   1.000  C
  H473     1.0000 0.95900  0.69750  0.06120  Biso   1.000  H
  C674     1.0000 0.90370  0.65970  0.05010  Biso   1.000  C
  H474     1.0000 0.88030  0.67900  0.05020  Biso   1.000  H
  C675     1.0000 0.86270  0.59170  0.03360  Biso   1.000  C
  C676     1.0000 0.86500  0.55770  0.00290  Biso   1.000  C
  H475     1.0000 0.89170  0.55060  0.99010  Biso   1.000  H
  C677     1.0000 0.82790  0.53480  0.99180  Biso   1.000  C
  H476     1.0000 0.82920  0.51260  0.97100  Biso   1.000  H
  C678     1.0000 0.78810  0.54520  0.01190  Biso   1.000  C
  C679     1.0000 0.78700  0.57950  0.04220  Biso   1.000  C
  H477     1.0000 0.76070  0.58670  0.05560  Biso   1.000  H
  C680     1.0000 0.82370  0.60250  0.05260  Biso   1.000  C
  H478     1.0000 0.82220  0.62540  0.07250  Biso   1.000  H
  C681     1.0000 0.76080  0.45330  0.03780  Biso   1.000  C
  H479     1.0000 0.76810  0.46830  0.06330  Biso   1.000  H
  C682     1.0000 0.76060  0.40770  0.03670  Biso   1.000  C
  H480     1.0000 0.76790  0.39220  0.06180  Biso   1.000  H
  C683     1.0000 0.72520  0.31230  0.97450  Biso   1.000  C
  C684     1.0000 0.73600  0.27080  0.98430  Biso   1.000  C
  N149     1.0000 0.10550  0.60560  0.07080  Biso   1.000  N
  N150     1.0000 0.17340  0.60930  0.09360  Biso   1.000  N
  N151     1.0000 0.96960  0.63110  0.05470  Biso   1.000  N
  N152     1.0000 0.90210  0.61620  0.04360  Biso   1.000  N
  O30      1.0000 0.06720  0.65290  0.01320  Biso   1.000  O
  Ag31     1.0000 0.96123  0.88048  0.06206  Biso   1.000  Ag
  C685     1.0000 0.71130  0.84350  0.15250  Biso   1.000  C
  C686     1.0000 0.71740  0.88780  0.14660  Biso   1.000  C
  H481     1.0000 0.69590  0.90740  0.15540  Biso   1.000  H
  C687     1.0000 0.75550  0.90340  0.12740  Biso   1.000  C
  H482     1.0000 0.75980  0.93340  0.12420  Biso   1.000  H
  C688     1.0000 0.78640  0.87480  0.11350  Biso   1.000  C
  C689     1.0000 0.78040  0.82970  0.11770  Biso   1.000  C
  H483     1.0000 0.80130  0.81020  0.10730  Biso   1.000  H
  C690     1.0000 0.74280  0.81480  0.13770  Biso   1.000  C
  H484     1.0000 0.73860  0.78490  0.14120  Biso   1.000  H
  C691     1.0000 0.83130  0.93020  0.07300  Biso   1.000  C
  H485     1.0000 0.80990  0.95140  0.06860  Biso   1.000  H
  C692     1.0000 0.87410  0.93170  0.06020  Biso   1.000  C
  H486     1.0000 0.88720  0.95530  0.04610  Biso   1.000  H
  C693     1.0000 0.86490  0.87090  0.09250  Biso   1.000  C
  H487     1.0000 0.87060  0.84380  0.10520  Biso   1.000  H
  C694     1.0000 0.05870  0.90030  0.04610  Biso   1.000  C
  H488     1.0000 0.05180  0.92960  0.04230  Biso   1.000  H
  C695     1.0000 0.05280  0.83020  0.05650  Biso   1.000  C
  H489     1.0000 0.04100  0.80250  0.06120  Biso   1.000  H
  C696     1.0000 0.09630  0.84030  0.05010  Biso   1.000  C
  H490     1.0000 0.11970  0.82100  0.05020  Biso   1.000  H
  C697     1.0000 0.13730  0.90830  0.03360  Biso   1.000  C
  C698     1.0000 0.13500  0.94230  0.00290  Biso   1.000  C
  H491     1.0000 0.10830  0.94940  0.99010  Biso   1.000  H
  C699     1.0000 0.17210  0.96520  0.99180  Biso   1.000  C
  H492     1.0000 0.17080  0.98740  0.97100  Biso   1.000  H
  C700     1.0000 0.21190  0.95480  0.01190  Biso   1.000  C
  C701     1.0000 0.21300  0.92050  0.04220  Biso   1.000  C
  H493     1.0000 0.23930  0.91330  0.05560  Biso   1.000  H
  C702     1.0000 0.17630  0.89750  0.05260  Biso   1.000  C
  H494     1.0000 0.17780  0.87460  0.07250  Biso   1.000  H
  C703     1.0000 0.23920  0.04670  0.03780  Biso   1.000  C
  H495     1.0000 0.23190  0.03170  0.06330  Biso   1.000  H
  C704     1.0000 0.23940  0.09230  0.03670  Biso   1.000  C
  H496     1.0000 0.23210  0.10780  0.06180  Biso   1.000  H
  C705     1.0000 0.27480  0.18770  0.97450  Biso   1.000  C
  C706     1.0000 0.26400  0.22920  0.98430  Biso   1.000  C
  N153     1.0000 0.89450  0.89440  0.07080  Biso   1.000  N
  N154     1.0000 0.82660  0.89070  0.09360  Biso   1.000  N
  N155     1.0000 0.03040  0.86890  0.05470  Biso   1.000  N
  N156     1.0000 0.09790  0.88380  0.04360  Biso   1.000  N
  O31      1.0000 0.93280  0.84710  0.01320  Biso   1.000  O
  Ag32     1.0000 0.46123  0.38048  0.56206  Biso   1.000  Ag
  C707     1.0000 0.21130  0.34350  0.65250  Biso   1.000  C
  C708     1.0000 0.21740  0.38780  0.64660  Biso   1.000  C
  H497     1.0000 0.19590  0.40740  0.65540  Biso   1.000  H
  C709     1.0000 0.25550  0.40340  0.62740  Biso   1.000  C
  H498     1.0000 0.25980  0.43340  0.62420  Biso   1.000  H
  C710     1.0000 0.28640  0.37480  0.61350  Biso   1.000  C
  C711     1.0000 0.28040  0.32970  0.61770  Biso   1.000  C
  H499     1.0000 0.30130  0.31020  0.60730  Biso   1.000  H
  C712     1.0000 0.24280  0.31480  0.63770  Biso   1.000  C
  H500     1.0000 0.23860  0.28490  0.64120  Biso   1.000  H
  C713     1.0000 0.33130  0.43020  0.57300  Biso   1.000  C
  H501     1.0000 0.30990  0.45140  0.56860  Biso   1.000  H
  C714     1.0000 0.37410  0.43170  0.56020  Biso   1.000  C
  H502     1.0000 0.38720  0.45530  0.54610  Biso   1.000  H
  C715     1.0000 0.36490  0.37090  0.59250  Biso   1.000  C
  H503     1.0000 0.37060  0.34380  0.60520  Biso   1.000  H
  C716     1.0000 0.55870  0.40030  0.54610  Biso   1.000  C
  H504     1.0000 0.55180  0.42960  0.54230  Biso   1.000  H
  C717     1.0000 0.55280  0.33020  0.55650  Biso   1.000  C
  H505     1.0000 0.54100  0.30250  0.56120  Biso   1.000  H
  C718     1.0000 0.59630  0.34030  0.55010  Biso   1.000  C
  H506     1.0000 0.61970  0.32100  0.55020  Biso   1.000  H
  C719     1.0000 0.63730  0.40830  0.53360  Biso   1.000  C
  C720     1.0000 0.63500  0.44230  0.50290  Biso   1.000  C
  H507     1.0000 0.60830  0.44940  0.49010  Biso   1.000  H
  C721     1.0000 0.67210  0.46520  0.49180  Biso   1.000  C
  H508     1.0000 0.67080  0.48740  0.47100  Biso   1.000  H
  C722     1.0000 0.71190  0.45480  0.51190  Biso   1.000  C
  C723     1.0000 0.71300  0.42050  0.54220  Biso   1.000  C
  H509     1.0000 0.73930  0.41330  0.55560  Biso   1.000  H
  C724     1.0000 0.67630  0.39750  0.55260  Biso   1.000  C
  H510     1.0000 0.67780  0.37460  0.57250  Biso   1.000  H
  C725     1.0000 0.73920  0.54670  0.53780  Biso   1.000  C
  H511     1.0000 0.73190  0.53170  0.56330  Biso   1.000  H
  C726     1.0000 0.73940  0.59230  0.53670  Biso   1.000  C
  H512     1.0000 0.73210  0.60780  0.56180  Biso   1.000  H
  C727     1.0000 0.77480  0.68770  0.47450  Biso   1.000  C
  C728     1.0000 0.76400  0.72920  0.48430  Biso   1.000  C
  N157     1.0000 0.39450  0.39440  0.57080  Biso   1.000  N
  N158     1.0000 0.32660  0.39070  0.59360  Biso   1.000  N
  N159     1.0000 0.53040  0.36890  0.55470  Biso   1.000  N
  N160     1.0000 0.59790  0.38380  0.54360  Biso   1.000  N
  O32      1.0000 0.43280  0.34710  0.51320  Biso   1.000  O
  Ag33     1.0000 0.38048  0.43794  0.03877  Biso   1.000  Ag
  C729     1.0000 0.34350  0.34750  0.28870  Biso   1.000  C
  C730     1.0000 0.38780  0.35340  0.28260  Biso   1.000  C
  H513     1.0000 0.40740  0.34460  0.30410  Biso   1.000  H
  C731     1.0000 0.40340  0.37260  0.24450  Biso   1.000  C
  H514     1.0000 0.43340  0.37580  0.24020  Biso   1.000  H
  C732     1.0000 0.37480  0.38650  0.21360  Biso   1.000  C
  C733     1.0000 0.32970  0.38230  0.21960  Biso   1.000  C
  H515     1.0000 0.31020  0.39270  0.19870  Biso   1.000  H
  C734     1.0000 0.31480  0.36230  0.25720  Biso   1.000  C
  H516     1.0000 0.28490  0.35880  0.26140  Biso   1.000  H
  C735     1.0000 0.43020  0.42700  0.16870  Biso   1.000  C
  H517     1.0000 0.45140  0.43140  0.19010  Biso   1.000  H
  C736     1.0000 0.43170  0.43980  0.12590  Biso   1.000  C
  H518     1.0000 0.45530  0.45390  0.11280  Biso   1.000  H
  C737     1.0000 0.37090  0.40750  0.13510  Biso   1.000  C
  H519     1.0000 0.34380  0.39480  0.12940  Biso   1.000  H
  C738     1.0000 0.40030  0.45390  0.94130  Biso   1.000  C
  H520     1.0000 0.42960  0.45770  0.94820  Biso   1.000  H
  C739     1.0000 0.33020  0.44350  0.94720  Biso   1.000  C
  H521     1.0000 0.30250  0.43880  0.95900  Biso   1.000  H
  C740     1.0000 0.34030  0.44990  0.90370  Biso   1.000  C
  H522     1.0000 0.32100  0.44980  0.88030  Biso   1.000  H
  C741     1.0000 0.40830  0.46640  0.86270  Biso   1.000  C
  C742     1.0000 0.44230  0.49710  0.86500  Biso   1.000  C
  H523     1.0000 0.44940  0.50990  0.89170  Biso   1.000  H
  C743     1.0000 0.46520  0.50820  0.82790  Biso   1.000  C
  H524     1.0000 0.48740  0.52900  0.82920  Biso   1.000  H
  C744     1.0000 0.45480  0.48810  0.78810  Biso   1.000  C
  C745     1.0000 0.42050  0.45780  0.78700  Biso   1.000  C
  H525     1.0000 0.41330  0.44440  0.76070  Biso   1.000  H
  C746     1.0000 0.39750  0.44740  0.82370  Biso   1.000  C
  H526     1.0000 0.37460  0.42750  0.82220  Biso   1.000  H
  C747     1.0000 0.54670  0.46220  0.76080  Biso   1.000  C
  H527     1.0000 0.53170  0.43670  0.76810  Biso   1.000  H
  C748     1.0000 0.59230  0.46330  0.76060  Biso   1.000  C
  H528     1.0000 0.60780  0.43820  0.76790  Biso   1.000  H
  C749     1.0000 0.68770  0.52550  0.72520  Biso   1.000  C
  C750     1.0000 0.72920  0.51570  0.73600  Biso   1.000  C
  N161     1.0000 0.39440  0.42920  0.10550  Biso   1.000  N
  N162     1.0000 0.39070  0.40640  0.17340  Biso   1.000  N
  N163     1.0000 0.36890  0.44530  0.96960  Biso   1.000  N
  N164     1.0000 0.38380  0.45640  0.90210  Biso   1.000  N
  O33      1.0000 0.34710  0.48680  0.06720  Biso   1.000  O
  Ag34     1.0000 0.88048  0.93794  0.53877  Biso   1.000  Ag
  C751     1.0000 0.84350  0.84750  0.78870  Biso   1.000  C
  C752     1.0000 0.88780  0.85340  0.78260  Biso   1.000  C
  H529     1.0000 0.90740  0.84460  0.80410  Biso   1.000  H
  C753     1.0000 0.90340  0.87260  0.74450  Biso   1.000  C
  H530     1.0000 0.93340  0.87580  0.74020  Biso   1.000  H
  C754     1.0000 0.87480  0.88650  0.71360  Biso   1.000  C
  C755     1.0000 0.82970  0.88230  0.71960  Biso   1.000  C
  H531     1.0000 0.81020  0.89270  0.69870  Biso   1.000  H
  C756     1.0000 0.81480  0.86230  0.75720  Biso   1.000  C
  H532     1.0000 0.78490  0.85880  0.76140  Biso   1.000  H
  C757     1.0000 0.93020  0.92700  0.66870  Biso   1.000  C
  H533     1.0000 0.95140  0.93140  0.69010  Biso   1.000  H
  C758     1.0000 0.93170  0.93980  0.62590  Biso   1.000  C
  H534     1.0000 0.95530  0.95390  0.61280  Biso   1.000  H
  C759     1.0000 0.87090  0.90750  0.63510  Biso   1.000  C
  H535     1.0000 0.84380  0.89480  0.62940  Biso   1.000  H
  C760     1.0000 0.90030  0.95390  0.44130  Biso   1.000  C
  H536     1.0000 0.92960  0.95770  0.44820  Biso   1.000  H
  C761     1.0000 0.83020  0.94350  0.44720  Biso   1.000  C
  H537     1.0000 0.80250  0.93880  0.45900  Biso   1.000  H
  C762     1.0000 0.84030  0.94990  0.40370  Biso   1.000  C
  H538     1.0000 0.82100  0.94980  0.38030  Biso   1.000  H
  C763     1.0000 0.90830  0.96640  0.36270  Biso   1.000  C
  C764     1.0000 0.94230  0.99710  0.36500  Biso   1.000  C
  H539     1.0000 0.94940  0.00990  0.39170  Biso   1.000  H
  C765     1.0000 0.96520  0.00820  0.32790  Biso   1.000  C
  H540     1.0000 0.98740  0.02900  0.32920  Biso   1.000  H
  C766     1.0000 0.95480  0.98810  0.28810  Biso   1.000  C
  C767     1.0000 0.92050  0.95780  0.28700  Biso   1.000  C
  H541     1.0000 0.91330  0.94440  0.26070  Biso   1.000  H
  C768     1.0000 0.89750  0.94740  0.32370  Biso   1.000  C
  H542     1.0000 0.87460  0.92750  0.32220  Biso   1.000  H
  C769     1.0000 0.04670  0.96220  0.26080  Biso   1.000  C
  H543     1.0000 0.03170  0.93670  0.26810  Biso   1.000  H
  C770     1.0000 0.09230  0.96330  0.26060  Biso   1.000  C
  H544     1.0000 0.10780  0.93820  0.26790  Biso   1.000  H
  C771     1.0000 0.18770  0.02550  0.22520  Biso   1.000  C
  C772     1.0000 0.22920  0.01570  0.23600  Biso   1.000  C
  N165     1.0000 0.89440  0.92920  0.60550  Biso   1.000  N
  N166     1.0000 0.89070  0.90640  0.67340  Biso   1.000  N
  N167     1.0000 0.86890  0.94530  0.46960  Biso   1.000  N
  N168     1.0000 0.88380  0.95640  0.40210  Biso   1.000  N
  O34      1.0000 0.84710  0.98680  0.56720  Biso   1.000  O
  Ag35     1.0000 0.61952  0.93794  0.46123  Biso   1.000  Ag
  C773     1.0000 0.65650  0.84750  0.21130  Biso   1.000  C
  C774     1.0000 0.61220  0.85340  0.21740  Biso   1.000  C
  H545     1.0000 0.59260  0.84460  0.19590  Biso   1.000  H
  C775     1.0000 0.59660  0.87260  0.25550  Biso   1.000  C
  H546     1.0000 0.56660  0.87580  0.25980  Biso   1.000  H
  C776     1.0000 0.62520  0.88650  0.28640  Biso   1.000  C
  C777     1.0000 0.67030  0.88230  0.28040  Biso   1.000  C
  H547     1.0000 0.68980  0.89270  0.30130  Biso   1.000  H
  C778     1.0000 0.68520  0.86230  0.24280  Biso   1.000  C
  H548     1.0000 0.71510  0.85880  0.23860  Biso   1.000  H
  C779     1.0000 0.56980  0.92700  0.33130  Biso   1.000  C
  H549     1.0000 0.54860  0.93140  0.30990  Biso   1.000  H
  C780     1.0000 0.56830  0.93980  0.37410  Biso   1.000  C
  H550     1.0000 0.54470  0.95390  0.38720  Biso   1.000  H
  C781     1.0000 0.62910  0.90750  0.36490  Biso   1.000  C
  H551     1.0000 0.65620  0.89480  0.37060  Biso   1.000  H
  C782     1.0000 0.59970  0.95390  0.55870  Biso   1.000  C
  H552     1.0000 0.57040  0.95770  0.55180  Biso   1.000  H
  C783     1.0000 0.66980  0.94350  0.55280  Biso   1.000  C
  H553     1.0000 0.69750  0.93880  0.54100  Biso   1.000  H
  C784     1.0000 0.65970  0.94990  0.59630  Biso   1.000  C
  H554     1.0000 0.67900  0.94980  0.61970  Biso   1.000  H
  C785     1.0000 0.59170  0.96640  0.63730  Biso   1.000  C
  C786     1.0000 0.55770  0.99710  0.63500  Biso   1.000  C
  H555     1.0000 0.55060  0.00990  0.60830  Biso   1.000  H
  C787     1.0000 0.53480  0.00820  0.67210  Biso   1.000  C
  H556     1.0000 0.51260  0.02900  0.67080  Biso   1.000  H
  C788     1.0000 0.54520  0.98810  0.71190  Biso   1.000  C
  C789     1.0000 0.57950  0.95780  0.71300  Biso   1.000  C
  H557     1.0000 0.58670  0.94440  0.73930  Biso   1.000  H
  C790     1.0000 0.60250  0.94740  0.67630  Biso   1.000  C
  H558     1.0000 0.62540  0.92750  0.67780  Biso   1.000  H
  C791     1.0000 0.45330  0.96220  0.73920  Biso   1.000  C
  H559     1.0000 0.46830  0.93670  0.73190  Biso   1.000  H
  C792     1.0000 0.40770  0.96330  0.73940  Biso   1.000  C
  H560     1.0000 0.39220  0.93820  0.73210  Biso   1.000  H
  C793     1.0000 0.31230  0.02550  0.77480  Biso   1.000  C
  C794     1.0000 0.27080  0.01570  0.76400  Biso   1.000  C
  N169     1.0000 0.60560  0.92920  0.39450  Biso   1.000  N
  N170     1.0000 0.60930  0.90640  0.32660  Biso   1.000  N
  N171     1.0000 0.63110  0.94530  0.53040  Biso   1.000  N
  N172     1.0000 0.61620  0.95640  0.59790  Biso   1.000  N
  O35      1.0000 0.65290  0.98680  0.43280  Biso   1.000  O
  Ag36     1.0000 0.11952  0.43794  0.96123  Biso   1.000  Ag
  C795     1.0000 0.15650  0.34750  0.71130  Biso   1.000  C
  C796     1.0000 0.11220  0.35340  0.71740  Biso   1.000  C
  H561     1.0000 0.09260  0.34460  0.69590  Biso   1.000  H
  C797     1.0000 0.09660  0.37260  0.75550  Biso   1.000  C
  H562     1.0000 0.06660  0.37580  0.75980  Biso   1.000  H
  C798     1.0000 0.12520  0.38650  0.78640  Biso   1.000  C
  C799     1.0000 0.17030  0.38230  0.78040  Biso   1.000  C
  H563     1.0000 0.18980  0.39270  0.80130  Biso   1.000  H
  C800     1.0000 0.18520  0.36230  0.74280  Biso   1.000  C
  H564     1.0000 0.21510  0.35880  0.73860  Biso   1.000  H
  C801     1.0000 0.06980  0.42700  0.83130  Biso   1.000  C
  H565     1.0000 0.04860  0.43140  0.80990  Biso   1.000  H
  C802     1.0000 0.06830  0.43980  0.87410  Biso   1.000  C
  H566     1.0000 0.04470  0.45390  0.88720  Biso   1.000  H
  C803     1.0000 0.12910  0.40750  0.86490  Biso   1.000  C
  H567     1.0000 0.15620  0.39480  0.87060  Biso   1.000  H
  C804     1.0000 0.09970  0.45390  0.05870  Biso   1.000  C
  H568     1.0000 0.07040  0.45770  0.05180  Biso   1.000  H
  C805     1.0000 0.16980  0.44350  0.05280  Biso   1.000  C
  H569     1.0000 0.19750  0.43880  0.04100  Biso   1.000  H
  C806     1.0000 0.15970  0.44990  0.09630  Biso   1.000  C
  H570     1.0000 0.17900  0.44980  0.11970  Biso   1.000  H
  C807     1.0000 0.09170  0.46640  0.13730  Biso   1.000  C
  C808     1.0000 0.05770  0.49710  0.13500  Biso   1.000  C
  H571     1.0000 0.05060  0.50990  0.10830  Biso   1.000  H
  C809     1.0000 0.03480  0.50820  0.17210  Biso   1.000  C
  H572     1.0000 0.01260  0.52900  0.17080  Biso   1.000  H
  C810     1.0000 0.04520  0.48810  0.21190  Biso   1.000  C
  C811     1.0000 0.07950  0.45780  0.21300  Biso   1.000  C
  H573     1.0000 0.08670  0.44440  0.23930  Biso   1.000  H
  C812     1.0000 0.10250  0.44740  0.17630  Biso   1.000  C
  H574     1.0000 0.12540  0.42750  0.17780  Biso   1.000  H
  C813     1.0000 0.95330  0.46220  0.23920  Biso   1.000  C
  H575     1.0000 0.96830  0.43670  0.23190  Biso   1.000  H
  C814     1.0000 0.90770  0.46330  0.23940  Biso   1.000  C
  H576     1.0000 0.89220  0.43820  0.23210  Biso   1.000  H
  C815     1.0000 0.81230  0.52550  0.27480  Biso   1.000  C
  C816     1.0000 0.77080  0.51570  0.26400  Biso   1.000  C
  N173     1.0000 0.10560  0.42920  0.89450  Biso   1.000  N
  N174     1.0000 0.10930  0.40640  0.82660  Biso   1.000  N
  N175     1.0000 0.13110  0.44530  0.03040  Biso   1.000  N
  N176     1.0000 0.11620  0.45640  0.09790  Biso   1.000  N
  O36      1.0000 0.15290  0.48680  0.93280  Biso   1.000  O
  Ag37     1.0000 0.11952  0.56206  0.53877  Biso   1.000  Ag
  C817     1.0000 0.15650  0.65250  0.78870  Biso   1.000  C
  C818     1.0000 0.11220  0.64660  0.78260  Biso   1.000  C
  H577     1.0000 0.09260  0.65540  0.80410  Biso   1.000  H
  C819     1.0000 0.09660  0.62740  0.74450  Biso   1.000  C
  H578     1.0000 0.06660  0.62420  0.74020  Biso   1.000  H
  C820     1.0000 0.12520  0.61350  0.71360  Biso   1.000  C
  C821     1.0000 0.17030  0.61770  0.71960  Biso   1.000  C
  H579     1.0000 0.18980  0.60730  0.69870  Biso   1.000  H
  C822     1.0000 0.18520  0.63770  0.75720  Biso   1.000  C
  H580     1.0000 0.21510  0.64120  0.76140  Biso   1.000  H
  C823     1.0000 0.06980  0.57300  0.66870  Biso   1.000  C
  H581     1.0000 0.04860  0.56860  0.69010  Biso   1.000  H
  C824     1.0000 0.06830  0.56020  0.62590  Biso   1.000  C
  H582     1.0000 0.04470  0.54610  0.61280  Biso   1.000  H
  C825     1.0000 0.12910  0.59250  0.63510  Biso   1.000  C
  H583     1.0000 0.15620  0.60520  0.62940  Biso   1.000  H
  C826     1.0000 0.09970  0.54610  0.44130  Biso   1.000  C
  H584     1.0000 0.07040  0.54230  0.44820  Biso   1.000  H
  C827     1.0000 0.16980  0.55650  0.44720  Biso   1.000  C
  H585     1.0000 0.19750  0.56120  0.45900  Biso   1.000  H
  C828     1.0000 0.15970  0.55010  0.40370  Biso   1.000  C
  H586     1.0000 0.17900  0.55020  0.38030  Biso   1.000  H
  C829     1.0000 0.09170  0.53360  0.36270  Biso   1.000  C
  C830     1.0000 0.05770  0.50290  0.36500  Biso   1.000  C
  H587     1.0000 0.05060  0.49010  0.39170  Biso   1.000  H
  C831     1.0000 0.03480  0.49180  0.32790  Biso   1.000  C
  H588     1.0000 0.01260  0.47100  0.32920  Biso   1.000  H
  C832     1.0000 0.04520  0.51190  0.28810  Biso   1.000  C
  C833     1.0000 0.07950  0.54220  0.28700  Biso   1.000  C
  H589     1.0000 0.08670  0.55560  0.26070  Biso   1.000  H
  C834     1.0000 0.10250  0.55260  0.32370  Biso   1.000  C
  H590     1.0000 0.12540  0.57250  0.32220  Biso   1.000  H
  C835     1.0000 0.95330  0.53780  0.26080  Biso   1.000  C
  H591     1.0000 0.96830  0.56330  0.26810  Biso   1.000  H
  C836     1.0000 0.90770  0.53670  0.26060  Biso   1.000  C
  H592     1.0000 0.89220  0.56180  0.26790  Biso   1.000  H
  C837     1.0000 0.81230  0.47450  0.22520  Biso   1.000  C
  C838     1.0000 0.77080  0.48430  0.23600  Biso   1.000  C
  N177     1.0000 0.10560  0.57080  0.60550  Biso   1.000  N
  N178     1.0000 0.10930  0.59360  0.67340  Biso   1.000  N
  N179     1.0000 0.13110  0.55470  0.46960  Biso   1.000  N
  N180     1.0000 0.11620  0.54360  0.40210  Biso   1.000  N
  O37      1.0000 0.15290  0.51320  0.56720  Biso   1.000  O
  Ag38     1.0000 0.61952  0.06206  0.03877  Biso   1.000  Ag
  C839     1.0000 0.65650  0.15250  0.28870  Biso   1.000  C
  C840     1.0000 0.61220  0.14660  0.28260  Biso   1.000  C
  H593     1.0000 0.59260  0.15540  0.30410  Biso   1.000  H
  C841     1.0000 0.59660  0.12740  0.24450  Biso   1.000  C
  H594     1.0000 0.56660  0.12420  0.24020  Biso   1.000  H
  C842     1.0000 0.62520  0.11350  0.21360  Biso   1.000  C
  C843     1.0000 0.67030  0.11770  0.21960  Biso   1.000  C
  H595     1.0000 0.68980  0.10730  0.19870  Biso   1.000  H
  C844     1.0000 0.68520  0.13770  0.25720  Biso   1.000  C
  H596     1.0000 0.71510  0.14120  0.26140  Biso   1.000  H
  C845     1.0000 0.56980  0.07300  0.16870  Biso   1.000  C
  H597     1.0000 0.54860  0.06860  0.19010  Biso   1.000  H
  C846     1.0000 0.56830  0.06020  0.12590  Biso   1.000  C
  H598     1.0000 0.54470  0.04610  0.11280  Biso   1.000  H
  C847     1.0000 0.62910  0.09250  0.13510  Biso   1.000  C
  H599     1.0000 0.65620  0.10520  0.12940  Biso   1.000  H
  C848     1.0000 0.59970  0.04610  0.94130  Biso   1.000  C
  H600     1.0000 0.57040  0.04230  0.94820  Biso   1.000  H
  C849     1.0000 0.66980  0.05650  0.94720  Biso   1.000  C
  H601     1.0000 0.69750  0.06120  0.95900  Biso   1.000  H
  C850     1.0000 0.65970  0.05010  0.90370  Biso   1.000  C
  H602     1.0000 0.67900  0.05020  0.88030  Biso   1.000  H
  C851     1.0000 0.59170  0.03360  0.86270  Biso   1.000  C
  C852     1.0000 0.55770  0.00290  0.86500  Biso   1.000  C
  H603     1.0000 0.55060  0.99010  0.89170  Biso   1.000  H
  C853     1.0000 0.53480  0.99180  0.82790  Biso   1.000  C
  H604     1.0000 0.51260  0.97100  0.82920  Biso   1.000  H
  C854     1.0000 0.54520  0.01190  0.78810  Biso   1.000  C
  C855     1.0000 0.57950  0.04220  0.78700  Biso   1.000  C
  H605     1.0000 0.58670  0.05560  0.76070  Biso   1.000  H
  C856     1.0000 0.60250  0.05260  0.82370  Biso   1.000  C
  H606     1.0000 0.62540  0.07250  0.82220  Biso   1.000  H
  C857     1.0000 0.45330  0.03780  0.76080  Biso   1.000  C
  H607     1.0000 0.46830  0.06330  0.76810  Biso   1.000  H
  C858     1.0000 0.40770  0.03670  0.76060  Biso   1.000  C
  H608     1.0000 0.39220  0.06180  0.76790  Biso   1.000  H
  C859     1.0000 0.31230  0.97450  0.72520  Biso   1.000  C
  C860     1.0000 0.27080  0.98430  0.73600  Biso   1.000  C
  N181     1.0000 0.60560  0.07080  0.10550  Biso   1.000  N
  N182     1.0000 0.60930  0.09360  0.17340  Biso   1.000  N
  N183     1.0000 0.63110  0.05470  0.96960  Biso   1.000  N
  N184     1.0000 0.61620  0.04360  0.90210  Biso   1.000  N
  O38      1.0000 0.65290  0.01320  0.06720  Biso   1.000  O
  Ag39     1.0000 0.88048  0.06206  0.96123  Biso   1.000  Ag
  C861     1.0000 0.84350  0.15250  0.71130  Biso   1.000  C
  C862     1.0000 0.88780  0.14660  0.71740  Biso   1.000  C
  H609     1.0000 0.90740  0.15540  0.69590  Biso   1.000  H
  C863     1.0000 0.90340  0.12740  0.75550  Biso   1.000  C
  H610     1.0000 0.93340  0.12420  0.75980  Biso   1.000  H
  C864     1.0000 0.87480  0.11350  0.78640  Biso   1.000  C
  C865     1.0000 0.82970  0.11770  0.78040  Biso   1.000  C
  H611     1.0000 0.81020  0.10730  0.80130  Biso   1.000  H
  C866     1.0000 0.81480  0.13770  0.74280  Biso   1.000  C
  H612     1.0000 0.78490  0.14120  0.73860  Biso   1.000  H
  C867     1.0000 0.93020  0.07300  0.83130  Biso   1.000  C
  H613     1.0000 0.95140  0.06860  0.80990  Biso   1.000  H
  C868     1.0000 0.93170  0.06020  0.87410  Biso   1.000  C
  H614     1.0000 0.95530  0.04610  0.88720  Biso   1.000  H
  C869     1.0000 0.87090  0.09250  0.86490  Biso   1.000  C
  H615     1.0000 0.84380  0.10520  0.87060  Biso   1.000  H
  C870     1.0000 0.90030  0.04610  0.05870  Biso   1.000  C
  H616     1.0000 0.92960  0.04230  0.05180  Biso   1.000  H
  C871     1.0000 0.83020  0.05650  0.05280  Biso   1.000  C
  H617     1.0000 0.80250  0.06120  0.04100  Biso   1.000  H
  C872     1.0000 0.84030  0.05010  0.09630  Biso   1.000  C
  H618     1.0000 0.82100  0.05020  0.11970  Biso   1.000  H
  C873     1.0000 0.90830  0.03360  0.13730  Biso   1.000  C
  C874     1.0000 0.94230  0.00290  0.13500  Biso   1.000  C
  H619     1.0000 0.94940  0.99010  0.10830  Biso   1.000  H
  C875     1.0000 0.96520  0.99180  0.17210  Biso   1.000  C
  H620     1.0000 0.98740  0.97100  0.17080  Biso   1.000  H
  C876     1.0000 0.95480  0.01190  0.21190  Biso   1.000  C
  C877     1.0000 0.92050  0.04220  0.21300  Biso   1.000  C
  H621     1.0000 0.91330  0.05560  0.23930  Biso   1.000  H
  C878     1.0000 0.89750  0.05260  0.17630  Biso   1.000  C
  H622     1.0000 0.87460  0.07250  0.17780  Biso   1.000  H
  C879     1.0000 0.04670  0.03780  0.23920  Biso   1.000  C
  H623     1.0000 0.03170  0.06330  0.23190  Biso   1.000  H
  C880     1.0000 0.09230  0.03670  0.23940  Biso   1.000  C
  H624     1.0000 0.10780  0.06180  0.23210  Biso   1.000  H
  C881     1.0000 0.18770  0.97450  0.27480  Biso   1.000  C
  C882     1.0000 0.22920  0.98430  0.26400  Biso   1.000  C
  N185     1.0000 0.89440  0.07080  0.89450  Biso   1.000  N
  N186     1.0000 0.89070  0.09360  0.82660  Biso   1.000  N
  N187     1.0000 0.86890  0.05470  0.03040  Biso   1.000  N
  N188     1.0000 0.88380  0.04360  0.09790  Biso   1.000  N
  O39      1.0000 0.84710  0.01320  0.93280  Biso   1.000  O
  Ag40     1.0000 0.38048  0.56206  0.46123  Biso   1.000  Ag
  C883     1.0000 0.34350  0.65250  0.21130  Biso   1.000  C
  C884     1.0000 0.38780  0.64660  0.21740  Biso   1.000  C
  H625     1.0000 0.40740  0.65540  0.19590  Biso   1.000  H
  C885     1.0000 0.40340  0.62740  0.25550  Biso   1.000  C
  H626     1.0000 0.43340  0.62420  0.25980  Biso   1.000  H
  C886     1.0000 0.37480  0.61350  0.28640  Biso   1.000  C
  C887     1.0000 0.32970  0.61770  0.28040  Biso   1.000  C
  H627     1.0000 0.31020  0.60730  0.30130  Biso   1.000  H
  C888     1.0000 0.31480  0.63770  0.24280  Biso   1.000  C
  H628     1.0000 0.28490  0.64120  0.23860  Biso   1.000  H
  C889     1.0000 0.43020  0.57300  0.33130  Biso   1.000  C
  H629     1.0000 0.45140  0.56860  0.30990  Biso   1.000  H
  C890     1.0000 0.43170  0.56020  0.37410  Biso   1.000  C
  H630     1.0000 0.45530  0.54610  0.38720  Biso   1.000  H
  C891     1.0000 0.37090  0.59250  0.36490  Biso   1.000  C
  H631     1.0000 0.34380  0.60520  0.37060  Biso   1.000  H
  C892     1.0000 0.40030  0.54610  0.55870  Biso   1.000  C
  H632     1.0000 0.42960  0.54230  0.55180  Biso   1.000  H
  C893     1.0000 0.33020  0.55650  0.55280  Biso   1.000  C
  H633     1.0000 0.30250  0.56120  0.54100  Biso   1.000  H
  C894     1.0000 0.34030  0.55010  0.59630  Biso   1.000  C
  H634     1.0000 0.32100  0.55020  0.61970  Biso   1.000  H
  C895     1.0000 0.40830  0.53360  0.63730  Biso   1.000  C
  C896     1.0000 0.44230  0.50290  0.63500  Biso   1.000  C
  H635     1.0000 0.44940  0.49010  0.60830  Biso   1.000  H
  C897     1.0000 0.46520  0.49180  0.67210  Biso   1.000  C
  H636     1.0000 0.48740  0.47100  0.67080  Biso   1.000  H
  C898     1.0000 0.45480  0.51190  0.71190  Biso   1.000  C
  C899     1.0000 0.42050  0.54220  0.71300  Biso   1.000  C
  H637     1.0000 0.41330  0.55560  0.73930  Biso   1.000  H
  C900     1.0000 0.39750  0.55260  0.67630  Biso   1.000  C
  H638     1.0000 0.37460  0.57250  0.67780  Biso   1.000  H
  C901     1.0000 0.54670  0.53780  0.73920  Biso   1.000  C
  H639     1.0000 0.53170  0.56330  0.73190  Biso   1.000  H
  C902     1.0000 0.59230  0.53670  0.73940  Biso   1.000  C
  H640     1.0000 0.60780  0.56180  0.73210  Biso   1.000  H
  C903     1.0000 0.68770  0.47450  0.77480  Biso   1.000  C
  C904     1.0000 0.72920  0.48430  0.76400  Biso   1.000  C
  N189     1.0000 0.39440  0.57080  0.39450  Biso   1.000  N
  N190     1.0000 0.39070  0.59360  0.32660  Biso   1.000  N
  N191     1.0000 0.36890  0.55470  0.53040  Biso   1.000  N
  N192     1.0000 0.38380  0.54360  0.59790  Biso   1.000  N
  O40      1.0000 0.34710  0.51320  0.43280  Biso   1.000  O
  Ag41     1.0000 0.43794  0.03877  0.38048  Biso   1.000  Ag
  C905     1.0000 0.34750  0.28870  0.34350  Biso   1.000  C
  C906     1.0000 0.35340  0.28260  0.38780  Biso   1.000  C
  H641     1.0000 0.34460  0.30410  0.40740  Biso   1.000  H
  C907     1.0000 0.37260  0.24450  0.40340  Biso   1.000  C
  H642     1.0000 0.37580  0.24020  0.43340  Biso   1.000  H
  C908     1.0000 0.38650  0.21360  0.37480  Biso   1.000  C
  C909     1.0000 0.38230  0.21960  0.32970  Biso   1.000  C
  H643     1.0000 0.39270  0.19870  0.31020  Biso   1.000  H
  C910     1.0000 0.36230  0.25720  0.31480  Biso   1.000  C
  H644     1.0000 0.35880  0.26140  0.28490  Biso   1.000  H
  C911     1.0000 0.42700  0.16870  0.43020  Biso   1.000  C
  H645     1.0000 0.43140  0.19010  0.45140  Biso   1.000  H
  C912     1.0000 0.43980  0.12590  0.43170  Biso   1.000  C
  H646     1.0000 0.45390  0.11280  0.45530  Biso   1.000  H
  C913     1.0000 0.40750  0.13510  0.37090  Biso   1.000  C
  H647     1.0000 0.39480  0.12940  0.34380  Biso   1.000  H
  C914     1.0000 0.45390  0.94130  0.40030  Biso   1.000  C
  H648     1.0000 0.45770  0.94820  0.42960  Biso   1.000  H
  C915     1.0000 0.44350  0.94720  0.33020  Biso   1.000  C
  H649     1.0000 0.43880  0.95900  0.30250  Biso   1.000  H
  C916     1.0000 0.44990  0.90370  0.34030  Biso   1.000  C
  H650     1.0000 0.44980  0.88030  0.32100  Biso   1.000  H
  C917     1.0000 0.46640  0.86270  0.40830  Biso   1.000  C
  C918     1.0000 0.49710  0.86500  0.44230  Biso   1.000  C
  H651     1.0000 0.50990  0.89170  0.44940  Biso   1.000  H
  C919     1.0000 0.50820  0.82790  0.46520  Biso   1.000  C
  H652     1.0000 0.52900  0.82920  0.48740  Biso   1.000  H
  C920     1.0000 0.48810  0.78810  0.45480  Biso   1.000  C
  C921     1.0000 0.45780  0.78700  0.42050  Biso   1.000  C
  H653     1.0000 0.44440  0.76070  0.41330  Biso   1.000  H
  C922     1.0000 0.44740  0.82370  0.39750  Biso   1.000  C
  H654     1.0000 0.42750  0.82220  0.37460  Biso   1.000  H
  C923     1.0000 0.46220  0.76080  0.54670  Biso   1.000  C
  H655     1.0000 0.43670  0.76810  0.53170  Biso   1.000  H
  C924     1.0000 0.46330  0.76060  0.59230  Biso   1.000  C
  H656     1.0000 0.43820  0.76790  0.60780  Biso   1.000  H
  C925     1.0000 0.52550  0.72520  0.68770  Biso   1.000  C
  C926     1.0000 0.51570  0.73600  0.72920  Biso   1.000  C
  N193     1.0000 0.42920  0.10550  0.39440  Biso   1.000  N
  N194     1.0000 0.40640  0.17340  0.39070  Biso   1.000  N
  N195     1.0000 0.44530  0.96960  0.36890  Biso   1.000  N
  N196     1.0000 0.45640  0.90210  0.38380  Biso   1.000  N
  O41      1.0000 0.48680  0.06720  0.34710  Biso   1.000  O
  Ag42     1.0000 0.93794  0.53877  0.88048  Biso   1.000  Ag
  C927     1.0000 0.84750  0.78870  0.84350  Biso   1.000  C
  C928     1.0000 0.85340  0.78260  0.88780  Biso   1.000  C
  H657     1.0000 0.84460  0.80410  0.90740  Biso   1.000  H
  C929     1.0000 0.87260  0.74450  0.90340  Biso   1.000  C
  H658     1.0000 0.87580  0.74020  0.93340  Biso   1.000  H
  C930     1.0000 0.88650  0.71360  0.87480  Biso   1.000  C
  C931     1.0000 0.88230  0.71960  0.82970  Biso   1.000  C
  H659     1.0000 0.89270  0.69870  0.81020  Biso   1.000  H
  C932     1.0000 0.86230  0.75720  0.81480  Biso   1.000  C
  H660     1.0000 0.85880  0.76140  0.78490  Biso   1.000  H
  C933     1.0000 0.92700  0.66870  0.93020  Biso   1.000  C
  H661     1.0000 0.93140  0.69010  0.95140  Biso   1.000  H
  C934     1.0000 0.93980  0.62590  0.93170  Biso   1.000  C
  H662     1.0000 0.95390  0.61280  0.95530  Biso   1.000  H
  C935     1.0000 0.90750  0.63510  0.87090  Biso   1.000  C
  H663     1.0000 0.89480  0.62940  0.84380  Biso   1.000  H
  C936     1.0000 0.95390  0.44130  0.90030  Biso   1.000  C
  H664     1.0000 0.95770  0.44820  0.92960  Biso   1.000  H
  C937     1.0000 0.94350  0.44720  0.83020  Biso   1.000  C
  H665     1.0000 0.93880  0.45900  0.80250  Biso   1.000  H
  C938     1.0000 0.94990  0.40370  0.84030  Biso   1.000  C
  H666     1.0000 0.94980  0.38030  0.82100  Biso   1.000  H
  C939     1.0000 0.96640  0.36270  0.90830  Biso   1.000  C
  C940     1.0000 0.99710  0.36500  0.94230  Biso   1.000  C
  H667     1.0000 0.00990  0.39170  0.94940  Biso   1.000  H
  C941     1.0000 0.00820  0.32790  0.96520  Biso   1.000  C
  H668     1.0000 0.02900  0.32920  0.98740  Biso   1.000  H
  C942     1.0000 0.98810  0.28810  0.95480  Biso   1.000  C
  C943     1.0000 0.95780  0.28700  0.92050  Biso   1.000  C
  H669     1.0000 0.94440  0.26070  0.91330  Biso   1.000  H
  C944     1.0000 0.94740  0.32370  0.89750  Biso   1.000  C
  H670     1.0000 0.92750  0.32220  0.87460  Biso   1.000  H
  C945     1.0000 0.96220  0.26080  0.04670  Biso   1.000  C
  H671     1.0000 0.93670  0.26810  0.03170  Biso   1.000  H
  C946     1.0000 0.96330  0.26060  0.09230  Biso   1.000  C
  H672     1.0000 0.93820  0.26790  0.10780  Biso   1.000  H
  C947     1.0000 0.02550  0.22520  0.18770  Biso   1.000  C
  C948     1.0000 0.01570  0.23600  0.22920  Biso   1.000  C
  N197     1.0000 0.92920  0.60550  0.89440  Biso   1.000  N
  N198     1.0000 0.90640  0.67340  0.89070  Biso   1.000  N
  N199     1.0000 0.94530  0.46960  0.86890  Biso   1.000  N
  N200     1.0000 0.95640  0.40210  0.88380  Biso   1.000  N
  O42      1.0000 0.98680  0.56720  0.84710  Biso   1.000  O
  Ag43     1.0000 0.93794  0.46123  0.61952  Biso   1.000  Ag
  C949     1.0000 0.84750  0.21130  0.65650  Biso   1.000  C
  C950     1.0000 0.85340  0.21740  0.61220  Biso   1.000  C
  H673     1.0000 0.84460  0.19590  0.59260  Biso   1.000  H
  C951     1.0000 0.87260  0.25550  0.59660  Biso   1.000  C
  H674     1.0000 0.87580  0.25980  0.56660  Biso   1.000  H
  C952     1.0000 0.88650  0.28640  0.62520  Biso   1.000  C
  C953     1.0000 0.88230  0.28040  0.67030  Biso   1.000  C
  H675     1.0000 0.89270  0.30130  0.68980  Biso   1.000  H
  C954     1.0000 0.86230  0.24280  0.68520  Biso   1.000  C
  H676     1.0000 0.85880  0.23860  0.71510  Biso   1.000  H
  C955     1.0000 0.92700  0.33130  0.56980  Biso   1.000  C
  H677     1.0000 0.93140  0.30990  0.54860  Biso   1.000  H
  C956     1.0000 0.93980  0.37410  0.56830  Biso   1.000  C
  H678     1.0000 0.95390  0.38720  0.54470  Biso   1.000  H
  C957     1.0000 0.90750  0.36490  0.62910  Biso   1.000  C
  H679     1.0000 0.89480  0.37060  0.65620  Biso   1.000  H
  C958     1.0000 0.95390  0.55870  0.59970  Biso   1.000  C
  H680     1.0000 0.95770  0.55180  0.57040  Biso   1.000  H
  C959     1.0000 0.94350  0.55280  0.66980  Biso   1.000  C
  H681     1.0000 0.93880  0.54100  0.69750  Biso   1.000  H
  C960     1.0000 0.94990  0.59630  0.65970  Biso   1.000  C
  H682     1.0000 0.94980  0.61970  0.67900  Biso   1.000  H
  C961     1.0000 0.96640  0.63730  0.59170  Biso   1.000  C
  C962     1.0000 0.99710  0.63500  0.55770  Biso   1.000  C
  H683     1.0000 0.00990  0.60830  0.55060  Biso   1.000  H
  C963     1.0000 0.00820  0.67210  0.53480  Biso   1.000  C
  H684     1.0000 0.02900  0.67080  0.51260  Biso   1.000  H
  C964     1.0000 0.98810  0.71190  0.54520  Biso   1.000  C
  C965     1.0000 0.95780  0.71300  0.57950  Biso   1.000  C
  H685     1.0000 0.94440  0.73930  0.58670  Biso   1.000  H
  C966     1.0000 0.94740  0.67630  0.60250  Biso   1.000  C
  H686     1.0000 0.92750  0.67780  0.62540  Biso   1.000  H
  C967     1.0000 0.96220  0.73920  0.45330  Biso   1.000  C
  H687     1.0000 0.93670  0.73190  0.46830  Biso   1.000  H
  C968     1.0000 0.96330  0.73940  0.40770  Biso   1.000  C
  H688     1.0000 0.93820  0.73210  0.39220  Biso   1.000  H
  C969     1.0000 0.02550  0.77480  0.31230  Biso   1.000  C
  C970     1.0000 0.01570  0.76400  0.27080  Biso   1.000  C
  N201     1.0000 0.92920  0.39450  0.60560  Biso   1.000  N
  N202     1.0000 0.90640  0.32660  0.60930  Biso   1.000  N
  N203     1.0000 0.94530  0.53040  0.63110  Biso   1.000  N
  N204     1.0000 0.95640  0.59790  0.61620  Biso   1.000  N
  O43      1.0000 0.98680  0.43280  0.65290  Biso   1.000  O
  Ag44     1.0000 0.43794  0.96123  0.11952  Biso   1.000  Ag
  C971     1.0000 0.34750  0.71130  0.15650  Biso   1.000  C
  C972     1.0000 0.35340  0.71740  0.11220  Biso   1.000  C
  H689     1.0000 0.34460  0.69590  0.09260  Biso   1.000  H
  C973     1.0000 0.37260  0.75550  0.09660  Biso   1.000  C
  H690     1.0000 0.37580  0.75980  0.06660  Biso   1.000  H
  C974     1.0000 0.38650  0.78640  0.12520  Biso   1.000  C
  C975     1.0000 0.38230  0.78040  0.17030  Biso   1.000  C
  H691     1.0000 0.39270  0.80130  0.18980  Biso   1.000  H
  C976     1.0000 0.36230  0.74280  0.18520  Biso   1.000  C
  H692     1.0000 0.35880  0.73860  0.21510  Biso   1.000  H
  C977     1.0000 0.42700  0.83130  0.06980  Biso   1.000  C
  H693     1.0000 0.43140  0.80990  0.04860  Biso   1.000  H
  C978     1.0000 0.43980  0.87410  0.06830  Biso   1.000  C
  H694     1.0000 0.45390  0.88720  0.04470  Biso   1.000  H
  C979     1.0000 0.40750  0.86490  0.12910  Biso   1.000  C
  H695     1.0000 0.39480  0.87060  0.15620  Biso   1.000  H
  C980     1.0000 0.45390  0.05870  0.09970  Biso   1.000  C
  H696     1.0000 0.45770  0.05180  0.07040  Biso   1.000  H
  C981     1.0000 0.44350  0.05280  0.16980  Biso   1.000  C
  H697     1.0000 0.43880  0.04100  0.19750  Biso   1.000  H
  C982     1.0000 0.44990  0.09630  0.15970  Biso   1.000  C
  H698     1.0000 0.44980  0.11970  0.17900  Biso   1.000  H
  C983     1.0000 0.46640  0.13730  0.09170  Biso   1.000  C
  C984     1.0000 0.49710  0.13500  0.05770  Biso   1.000  C
  H699     1.0000 0.50990  0.10830  0.05060  Biso   1.000  H
  C985     1.0000 0.50820  0.17210  0.03480  Biso   1.000  C
  H700     1.0000 0.52900  0.17080  0.01260  Biso   1.000  H
  C986     1.0000 0.48810  0.21190  0.04520  Biso   1.000  C
  C987     1.0000 0.45780  0.21300  0.07950  Biso   1.000  C
  H701     1.0000 0.44440  0.23930  0.08670  Biso   1.000  H
  C988     1.0000 0.44740  0.17630  0.10250  Biso   1.000  C
  H702     1.0000 0.42750  0.17780  0.12540  Biso   1.000  H
  C989     1.0000 0.46220  0.23920  0.95330  Biso   1.000  C
  H703     1.0000 0.43670  0.23190  0.96830  Biso   1.000  H
  C990     1.0000 0.46330  0.23940  0.90770  Biso   1.000  C
  H704     1.0000 0.43820  0.23210  0.89220  Biso   1.000  H
  C991     1.0000 0.52550  0.27480  0.81230  Biso   1.000  C
  C992     1.0000 0.51570  0.26400  0.77080  Biso   1.000  C
  N205     1.0000 0.42920  0.89450  0.10560  Biso   1.000  N
  N206     1.0000 0.40640  0.82660  0.10930  Biso   1.000  N
  N207     1.0000 0.44530  0.03040  0.13110  Biso   1.000  N
  N208     1.0000 0.45640  0.09790  0.11620  Biso   1.000  N
  O44      1.0000 0.48680  0.93280  0.15290  Biso   1.000  O
  Ag45     1.0000 0.56206  0.53877  0.11952  Biso   1.000  Ag
  C993     1.0000 0.65250  0.78870  0.15650  Biso   1.000  C
  C994     1.0000 0.64660  0.78260  0.11220  Biso   1.000  C
  H705     1.0000 0.65540  0.80410  0.09260  Biso   1.000  H
  C995     1.0000 0.62740  0.74450  0.09660  Biso   1.000  C
  H706     1.0000 0.62420  0.74020  0.06660  Biso   1.000  H
  C996     1.0000 0.61350  0.71360  0.12520  Biso   1.000  C
  C997     1.0000 0.61770  0.71960  0.17030  Biso   1.000  C
  H707     1.0000 0.60730  0.69870  0.18980  Biso   1.000  H
  C998     1.0000 0.63770  0.75720  0.18520  Biso   1.000  C
  H708     1.0000 0.64120  0.76140  0.21510  Biso   1.000  H
  C999     1.0000 0.57300  0.66870  0.06980  Biso   1.000  C
  H709     1.0000 0.56860  0.69010  0.04860  Biso   1.000  H
  C1000    1.0000 0.56020  0.62590  0.06830  Biso   1.000  C
  H710     1.0000 0.54610  0.61280  0.04470  Biso   1.000  H
  C1001    1.0000 0.59250  0.63510  0.12910  Biso   1.000  C
  H711     1.0000 0.60520  0.62940  0.15620  Biso   1.000  H
  C1002    1.0000 0.54610  0.44130  0.09970  Biso   1.000  C
  H712     1.0000 0.54230  0.44820  0.07040  Biso   1.000  H
  C1003    1.0000 0.55650  0.44720  0.16980  Biso   1.000  C
  H713     1.0000 0.56120  0.45900  0.19750  Biso   1.000  H
  C1004    1.0000 0.55010  0.40370  0.15970  Biso   1.000  C
  H714     1.0000 0.55020  0.38030  0.17900  Biso   1.000  H
  C1005    1.0000 0.53360  0.36270  0.09170  Biso   1.000  C
  C1006    1.0000 0.50290  0.36500  0.05770  Biso   1.000  C
  H715     1.0000 0.49010  0.39170  0.05060  Biso   1.000  H
  C1007    1.0000 0.49180  0.32790  0.03480  Biso   1.000  C
  H716     1.0000 0.47100  0.32920  0.01260  Biso   1.000  H
  C1008    1.0000 0.51190  0.28810  0.04520  Biso   1.000  C
  C1009    1.0000 0.54220  0.28700  0.07950  Biso   1.000  C
  H717     1.0000 0.55560  0.26070  0.08670  Biso   1.000  H
  C1010    1.0000 0.55260  0.32370  0.10250  Biso   1.000  C
  H718     1.0000 0.57250  0.32220  0.12540  Biso   1.000  H
  C1011    1.0000 0.53780  0.26080  0.95330  Biso   1.000  C
  H719     1.0000 0.56330  0.26810  0.96830  Biso   1.000  H
  C1012    1.0000 0.53670  0.26060  0.90770  Biso   1.000  C
  H720     1.0000 0.56180  0.26790  0.89220  Biso   1.000  H
  C1013    1.0000 0.47450  0.22520  0.81230  Biso   1.000  C
  C1014    1.0000 0.48430  0.23600  0.77080  Biso   1.000  C
  N209     1.0000 0.57080  0.60550  0.10560  Biso   1.000  N
  N210     1.0000 0.59360  0.67340  0.10930  Biso   1.000  N
  N211     1.0000 0.55470  0.46960  0.13110  Biso   1.000  N
  N212     1.0000 0.54360  0.40210  0.11620  Biso   1.000  N
  O45      1.0000 0.51320  0.56720  0.15290  Biso   1.000  O
  Ag46     1.0000 0.06206  0.03877  0.61952  Biso   1.000  Ag
  C1015    1.0000 0.15250  0.28870  0.65650  Biso   1.000  C
  C1016    1.0000 0.14660  0.28260  0.61220  Biso   1.000  C
  H721     1.0000 0.15540  0.30410  0.59260  Biso   1.000  H
  C1017    1.0000 0.12740  0.24450  0.59660  Biso   1.000  C
  H722     1.0000 0.12420  0.24020  0.56660  Biso   1.000  H
  C1018    1.0000 0.11350  0.21360  0.62520  Biso   1.000  C
  C1019    1.0000 0.11770  0.21960  0.67030  Biso   1.000  C
  H723     1.0000 0.10730  0.19870  0.68980  Biso   1.000  H
  C1020    1.0000 0.13770  0.25720  0.68520  Biso   1.000  C
  H724     1.0000 0.14120  0.26140  0.71510  Biso   1.000  H
  C1021    1.0000 0.07300  0.16870  0.56980  Biso   1.000  C
  H725     1.0000 0.06860  0.19010  0.54860  Biso   1.000  H
  C1022    1.0000 0.06020  0.12590  0.56830  Biso   1.000  C
  H726     1.0000 0.04610  0.11280  0.54470  Biso   1.000  H
  C1023    1.0000 0.09250  0.13510  0.62910  Biso   1.000  C
  H727     1.0000 0.10520  0.12940  0.65620  Biso   1.000  H
  C1024    1.0000 0.04610  0.94130  0.59970  Biso   1.000  C
  H728     1.0000 0.04230  0.94820  0.57040  Biso   1.000  H
  C1025    1.0000 0.05650  0.94720  0.66980  Biso   1.000  C
  H729     1.0000 0.06120  0.95900  0.69750  Biso   1.000  H
  C1026    1.0000 0.05010  0.90370  0.65970  Biso   1.000  C
  H730     1.0000 0.05020  0.88030  0.67900  Biso   1.000  H
  C1027    1.0000 0.03360  0.86270  0.59170  Biso   1.000  C
  C1028    1.0000 0.00290  0.86500  0.55770  Biso   1.000  C
  H731     1.0000 0.99010  0.89170  0.55060  Biso   1.000  H
  C1029    1.0000 0.99180  0.82790  0.53480  Biso   1.000  C
  H732     1.0000 0.97100  0.82920  0.51260  Biso   1.000  H
  C1030    1.0000 0.01190  0.78810  0.54520  Biso   1.000  C
  C1031    1.0000 0.04220  0.78700  0.57950  Biso   1.000  C
  H733     1.0000 0.05560  0.76070  0.58670  Biso   1.000  H
  C1032    1.0000 0.05260  0.82370  0.60250  Biso   1.000  C
  H734     1.0000 0.07250  0.82220  0.62540  Biso   1.000  H
  C1033    1.0000 0.03780  0.76080  0.45330  Biso   1.000  C
  H735     1.0000 0.06330  0.76810  0.46830  Biso   1.000  H
  C1034    1.0000 0.03670  0.76060  0.40770  Biso   1.000  C
  H736     1.0000 0.06180  0.76790  0.39220  Biso   1.000  H
  C1035    1.0000 0.97450  0.72520  0.31230  Biso   1.000  C
  C1036    1.0000 0.98430  0.73600  0.27080  Biso   1.000  C
  N213     1.0000 0.07080  0.10550  0.60560  Biso   1.000  N
  N214     1.0000 0.09360  0.17340  0.60930  Biso   1.000  N
  N215     1.0000 0.05470  0.96960  0.63110  Biso   1.000  N
  N216     1.0000 0.04360  0.90210  0.61620  Biso   1.000  N
  O46      1.0000 0.01320  0.06720  0.65290  Biso   1.000  O
  Ag47     1.0000 0.06206  0.96123  0.88048  Biso   1.000  Ag
  C1037    1.0000 0.15250  0.71130  0.84350  Biso   1.000  C
  C1038    1.0000 0.14660  0.71740  0.88780  Biso   1.000  C
  H737     1.0000 0.15540  0.69590  0.90740  Biso   1.000  H
  C1039    1.0000 0.12740  0.75550  0.90340  Biso   1.000  C
  H738     1.0000 0.12420  0.75980  0.93340  Biso   1.000  H
  C1040    1.0000 0.11350  0.78640  0.87480  Biso   1.000  C
  C1041    1.0000 0.11770  0.78040  0.82970  Biso   1.000  C
  H739     1.0000 0.10730  0.80130  0.81020  Biso   1.000  H
  C1042    1.0000 0.13770  0.74280  0.81480  Biso   1.000  C
  H740     1.0000 0.14120  0.73860  0.78490  Biso   1.000  H
  C1043    1.0000 0.07300  0.83130  0.93020  Biso   1.000  C
  H741     1.0000 0.06860  0.80990  0.95140  Biso   1.000  H
  C1044    1.0000 0.06020  0.87410  0.93170  Biso   1.000  C
  H742     1.0000 0.04610  0.88720  0.95530  Biso   1.000  H
  C1045    1.0000 0.09250  0.86490  0.87090  Biso   1.000  C
  H743     1.0000 0.10520  0.87060  0.84380  Biso   1.000  H
  C1046    1.0000 0.04610  0.05870  0.90030  Biso   1.000  C
  H744     1.0000 0.04230  0.05180  0.92960  Biso   1.000  H
  C1047    1.0000 0.05650  0.05280  0.83020  Biso   1.000  C
  H745     1.0000 0.06120  0.04100  0.80250  Biso   1.000  H
  C1048    1.0000 0.05010  0.09630  0.84030  Biso   1.000  C
  H746     1.0000 0.05020  0.11970  0.82100  Biso   1.000  H
  C1049    1.0000 0.03360  0.13730  0.90830  Biso   1.000  C
  C1050    1.0000 0.00290  0.13500  0.94230  Biso   1.000  C
  H747     1.0000 0.99010  0.10830  0.94940  Biso   1.000  H
  C1051    1.0000 0.99180  0.17210  0.96520  Biso   1.000  C
  H748     1.0000 0.97100  0.17080  0.98740  Biso   1.000  H
  C1052    1.0000 0.01190  0.21190  0.95480  Biso   1.000  C
  C1053    1.0000 0.04220  0.21300  0.92050  Biso   1.000  C
  H749     1.0000 0.05560  0.23930  0.91330  Biso   1.000  H
  C1054    1.0000 0.05260  0.17630  0.89750  Biso   1.000  C
  H750     1.0000 0.07250  0.17780  0.87460  Biso   1.000  H
  C1055    1.0000 0.03780  0.23920  0.04670  Biso   1.000  C
  H751     1.0000 0.06330  0.23190  0.03170  Biso   1.000  H
  C1056    1.0000 0.03670  0.23940  0.09230  Biso   1.000  C
  H752     1.0000 0.06180  0.23210  0.10780  Biso   1.000  H
  C1057    1.0000 0.97450  0.27480  0.18770  Biso   1.000  C
  C1058    1.0000 0.98430  0.26400  0.22920  Biso   1.000  C
  N217     1.0000 0.07080  0.89450  0.89440  Biso   1.000  N
  N218     1.0000 0.09360  0.82660  0.89070  Biso   1.000  N
  N219     1.0000 0.05470  0.03040  0.86890  Biso   1.000  N
  N220     1.0000 0.04360  0.09790  0.88380  Biso   1.000  N
  O47      1.0000 0.01320  0.93280  0.84710  Biso   1.000  O
  Ag48     1.0000 0.56206  0.46123  0.38048  Biso   1.000  Ag
  C1059    1.0000 0.65250  0.21130  0.34350  Biso   1.000  C
  C1060    1.0000 0.64660  0.21740  0.38780  Biso   1.000  C
  H753     1.0000 0.65540  0.19590  0.40740  Biso   1.000  H
  C1061    1.0000 0.62740  0.25550  0.40340  Biso   1.000  C
  H754     1.0000 0.62420  0.25980  0.43340  Biso   1.000  H
  C1062    1.0000 0.61350  0.28640  0.37480  Biso   1.000  C
  C1063    1.0000 0.61770  0.28040  0.32970  Biso   1.000  C
  H755     1.0000 0.60730  0.30130  0.31020  Biso   1.000  H
  C1064    1.0000 0.63770  0.24280  0.31480  Biso   1.000  C
  H756     1.0000 0.64120  0.23860  0.28490  Biso   1.000  H
  C1065    1.0000 0.57300  0.33130  0.43020  Biso   1.000  C
  H757     1.0000 0.56860  0.30990  0.45140  Biso   1.000  H
  C1066    1.0000 0.56020  0.37410  0.43170  Biso   1.000  C
  H758     1.0000 0.54610  0.38720  0.45530  Biso   1.000  H
  C1067    1.0000 0.59250  0.36490  0.37090  Biso   1.000  C
  H759     1.0000 0.60520  0.37060  0.34380  Biso   1.000  H
  C1068    1.0000 0.54610  0.55870  0.40030  Biso   1.000  C
  H760     1.0000 0.54230  0.55180  0.42960  Biso   1.000  H
  C1069    1.0000 0.55650  0.55280  0.33020  Biso   1.000  C
  H761     1.0000 0.56120  0.54100  0.30250  Biso   1.000  H
  C1070    1.0000 0.55010  0.59630  0.34030  Biso   1.000  C
  H762     1.0000 0.55020  0.61970  0.32100  Biso   1.000  H
  C1071    1.0000 0.53360  0.63730  0.40830  Biso   1.000  C
  C1072    1.0000 0.50290  0.63500  0.44230  Biso   1.000  C
  H763     1.0000 0.49010  0.60830  0.44940  Biso   1.000  H
  C1073    1.0000 0.49180  0.67210  0.46520  Biso   1.000  C
  H764     1.0000 0.47100  0.67080  0.48740  Biso   1.000  H
  C1074    1.0000 0.51190  0.71190  0.45480  Biso   1.000  C
  C1075    1.0000 0.54220  0.71300  0.42050  Biso   1.000  C
  H765     1.0000 0.55560  0.73930  0.41330  Biso   1.000  H
  C1076    1.0000 0.55260  0.67630  0.39750  Biso   1.000  C
  H766     1.0000 0.57250  0.67780  0.37460  Biso   1.000  H
  C1077    1.0000 0.53780  0.73920  0.54670  Biso   1.000  C
  H767     1.0000 0.56330  0.73190  0.53170  Biso   1.000  H
  C1078    1.0000 0.53670  0.73940  0.59230  Biso   1.000  C
  H768     1.0000 0.56180  0.73210  0.60780  Biso   1.000  H
  C1079    1.0000 0.47450  0.77480  0.68770  Biso   1.000  C
  C1080    1.0000 0.48430  0.76400  0.72920  Biso   1.000  C
  N221     1.0000 0.57080  0.39450  0.39440  Biso   1.000  N
  N222     1.0000 0.59360  0.32660  0.39070  Biso   1.000  N
  N223     1.0000 0.55470  0.53040  0.36890  Biso   1.000  N
  N224     1.0000 0.54360  0.59790  0.38380  Biso   1.000  N
  O48      1.0000 0.51320  0.43280  0.34710  Biso   1.000  O
  C1081    1.0000 0.75000  0.52450  0.50000  Biso   1.000  C
  C1082    1.0000 0.75000  0.61450  0.50000  Biso   1.000  C
  N225     1.0000 0.75000  0.66190  0.50000  Biso   1.000  N
  N226     1.0000 0.75000  0.47750  0.50000  Biso   1.000  N
  C1083    1.0000 0.75000  0.47550  0.00000  Biso   1.000  C
  C1084    1.0000 0.75000  0.38550  0.00000  Biso   1.000  C
  N227     1.0000 0.75000  0.33810  0.00000  Biso   1.000  N
  N228     1.0000 0.75000  0.52250  0.00000  Biso   1.000  N
  C1085    1.0000 0.25000  0.97550  0.50000  Biso   1.000  C
  C1086    1.0000 0.25000  0.88550  0.50000  Biso   1.000  C
  N229     1.0000 0.25000  0.83810  0.50000  Biso   1.000  N
  N230     1.0000 0.25000  0.02250  0.50000  Biso   1.000  N
  C1087    1.0000 0.25000  0.02450  0.00000  Biso   1.000  C
  C1088    1.0000 0.25000  0.11450  0.00000  Biso   1.000  C
  N231     1.0000 0.25000  0.16190  0.00000  Biso   1.000  N
  N232     1.0000 0.25000  0.97750  0.00000  Biso   1.000  N
  C1089    1.0000 0.52450  0.50000  0.75000  Biso   1.000  C
  C1090    1.0000 0.61450  0.50000  0.75000  Biso   1.000  C
  N233     1.0000 0.66190  0.50000  0.75000  Biso   1.000  N
  N234     1.0000 0.47750  0.50000  0.75000  Biso   1.000  N
  C1091    1.0000 0.47550  0.00000  0.75000  Biso   1.000  C
  C1092    1.0000 0.38550  0.00000  0.75000  Biso   1.000  C
  N235     1.0000 0.33810  0.00000  0.75000  Biso   1.000  N
  N236     1.0000 0.52250  0.00000  0.75000  Biso   1.000  N
  C1093    1.0000 0.97550  0.50000  0.25000  Biso   1.000  C
  C1094    1.0000 0.88550  0.50000  0.25000  Biso   1.000  C
  N237     1.0000 0.83810  0.50000  0.25000  Biso   1.000  N
  N238     1.0000 0.02250  0.50000  0.25000  Biso   1.000  N
  C1095    1.0000 0.02450  0.00000  0.25000  Biso   1.000  C
  C1096    1.0000 0.11450  0.00000  0.25000  Biso   1.000  C
  N239     1.0000 0.16190  0.00000  0.25000  Biso   1.000  N
  N240     1.0000 0.97750  0.00000  0.25000  Biso   1.000  N
  C1097    1.0000 0.50000  0.75000  0.52450  Biso   1.000  C
  C1098    1.0000 0.50000  0.75000  0.61450  Biso   1.000  C
  N241     1.0000 0.50000  0.75000  0.66190  Biso   1.000  N
  N242     1.0000 0.50000  0.75000  0.47750  Biso   1.000  N
  C1099    1.0000 0.00000  0.75000  0.47550  Biso   1.000  C
  C1100    1.0000 0.00000  0.75000  0.38550  Biso   1.000  C
  N243     1.0000 0.00000  0.75000  0.33810  Biso   1.000  N
  N244     1.0000 0.00000  0.75000  0.52250  Biso   1.000  N
  C1101    1.0000 0.50000  0.25000  0.97550  Biso   1.000  C
  C1102    1.0000 0.50000  0.25000  0.88550  Biso   1.000  C
  N245     1.0000 0.50000  0.25000  0.83810  Biso   1.000  N
  N246     1.0000 0.50000  0.25000  0.02250  Biso   1.000  N
  C1103    1.0000 0.00000  0.25000  0.02450  Biso   1.000  C
  C1104    1.0000 0.00000  0.25000  0.11450  Biso   1.000  C
  N247     1.0000 0.00000  0.25000  0.16190  Biso   1.000  N
  N248     1.0000 0.00000  0.25000  0.97750  Biso   1.000  N
  N249     1.0000 0.32740  0.32740  0.32740  Biso   1.000  N
  N250     1.0000 0.82740  0.82740  0.82740  Biso   1.000  N
  N251     1.0000 0.17260  0.67260  0.82740  Biso   1.000  N
  N252     1.0000 0.67260  0.17260  0.32740  Biso   1.000  N
  N253     1.0000 0.82740  0.17260  0.67260  Biso   1.000  N
  N254     1.0000 0.32740  0.67260  0.17260  Biso   1.000  N
  N255     1.0000 0.67260  0.82740  0.17260  Biso   1.000  N
  N256     1.0000 0.17260  0.32740  0.67260  Biso   1.000  N
