data_ja500330a_si_009_auto
_audit_creation_date              2018-09-04
_audit_creation_method            'Materials Studio'
_symmetry_space_group_name_H-M    'P1'
_symmetry_Int_Tables_number       1
_symmetry_cell_setting            triclinic
loop_
_symmetry_equiv_pos_as_xyz
  x,y,z
_cell_length_a                    25.9146
_cell_length_b                    22.8097
_cell_length_c                    19.7065
_cell_angle_alpha                 90.0000
_cell_angle_beta                  90.0000
_cell_angle_gamma                 90.0000
loop_
_atom_site_label
_atom_site_type_symbol
_atom_site_fract_x
_atom_site_fract_y
_atom_site_fract_z
_atom_site_U_iso_or_equiv
_atom_site_adp_type
_atom_site_occupancy
C1     C     0.22135   0.20638   0.20841   0.00000  Uiso   1.00
C2     C     0.17837   0.22751   0.17187   0.00000  Uiso   1.00
C3     C     0.14613   0.18989   0.13595   0.00000  Uiso   1.00
X4     C     0.15619   0.12958   0.13274   0.00000  Uiso   1.00
C5     C     0.20100   0.10796   0.16415   0.00000  Uiso   1.00
C6     C     0.23350   0.14603   0.20133   0.00000  Uiso   1.00
C7     C     0.25463   0.25181   0.24825   0.00000  Uiso   1.00
C8     C     0.27900   0.28870   0.19151   0.00000  Uiso   1.00
C9     C     0.29648   0.22520   0.29507   0.00000  Uiso   1.00
C10    C     0.22178   0.28953   0.29698   0.00000  Uiso   1.00
C11    C     0.26330   0.34659   0.17605   0.00000  Uiso   1.00
C12    C     0.29482   0.38255   0.13678   0.00000  Uiso   1.00
X13    C     0.34071   0.35997   0.11047   0.00000  Uiso   1.00
C14    C     0.35045   0.29965   0.11375   0.00000  Uiso   1.00
C15    C     0.31884   0.26385   0.15248   0.00000  Uiso   1.00
C16    C     0.34748   0.24812   0.29951   0.00000  Uiso   1.00
C17    C     0.38501   0.22120   0.34014   0.00000  Uiso   1.00
X18    C     0.37160   0.17305   0.38000   0.00000  Uiso   1.00
C19    C     0.31951   0.15590   0.38359   0.00000  Uiso   1.00
C20    C     0.28249   0.18174   0.34205   0.00000  Uiso   1.00
C21    C     0.17257   0.27128   0.31797   0.00000  Uiso   1.00
C22    C     0.14063   0.30923   0.35325   0.00000  Uiso   1.00
X23    C     0.15719   0.36604   0.37039   0.00000  Uiso   1.00
C24    C     0.20879   0.38133   0.35959   0.00000  Uiso   1.00
C25    C     0.24131   0.34253   0.32467   0.00000  Uiso   1.00
H26    H     0.16877   0.27370   0.17279   0.00000  Uiso   1.00
H27    H     0.11243   0.20810   0.11112   0.00000  Uiso   1.00
H28    H     0.20999   0.06164   0.16172   0.00000  Uiso   1.00
H29    H     0.26790   0.12792   0.22414   0.00000  Uiso   1.00
H30    H     0.22863   0.36547   0.19730   0.00000  Uiso   1.00
H31    H     0.28545   0.42862   0.13149   0.00000  Uiso   1.00
H32    H     0.38451   0.28098   0.09026   0.00000  Uiso   1.00
H33    H     0.32899   0.21804   0.15815   0.00000  Uiso   1.00
H34    H     0.35922   0.28608   0.27057   0.00000  Uiso   1.00
H35    H     0.42473   0.23578   0.33738   0.00000  Uiso   1.00
H36    H     0.30804   0.11945   0.41550   0.00000  Uiso   1.00
H37    H     0.24308   0.16613   0.34471   0.00000  Uiso   1.00
H38    H     0.15766   0.22834   0.30542   0.00000  Uiso   1.00
H39    H     0.10200   0.29444   0.36537   0.00000  Uiso   1.00
H40    H     0.22317   0.42385   0.37508   0.00000  Uiso   1.00
H41    H     0.28070   0.35582   0.31475   0.00000  Uiso   1.00
C42    C     0.72007   0.70475   0.19274   0.00000  Uiso   1.00
C43    C     0.68092   0.72734   0.15075   0.00000  Uiso   1.00
C44    C     0.64886   0.68942   0.11566   0.00000  Uiso   1.00
X45    C     0.65751   0.62893   0.11874   0.00000  Uiso   1.00
C46    C     0.70265   0.60726   0.14807   0.00000  Uiso   1.00
C47    C     0.73466   0.64544   0.18386   0.00000  Uiso   1.00
C48    C     0.74354   0.74545   0.24662   0.00000  Uiso   1.00
C49    C     0.77553   0.79007   0.20369   0.00000  Uiso   1.00
C50    C     0.77766   0.71188   0.29789   0.00000  Uiso   1.00
C51    C     0.70056   0.77272   0.29126   0.00000  Uiso   1.00
C52    C     0.76301   0.85015   0.19506   0.00000  Uiso   1.00
C53    C     0.79515   0.88767   0.15667   0.00000  Uiso   1.00
X54    C     0.83996   0.86580   0.12545   0.00000  Uiso   1.00
C55    C     0.85017   0.80556   0.12977   0.00000  Uiso   1.00
C56    C     0.81828   0.76843   0.16702   0.00000  Uiso   1.00
C57    C     0.82700   0.73218   0.31594   0.00000  Uiso   1.00
C58    C     0.85994   0.69719   0.35378   0.00000  Uiso   1.00
X59    C     0.84431   0.64144   0.37625   0.00000  Uiso   1.00
C60    C     0.79266   0.62491   0.36821   0.00000  Uiso   1.00
C61    C     0.75916   0.66083   0.33097   0.00000  Uiso   1.00
C62    C     0.64975   0.74901   0.29555   0.00000  Uiso   1.00
C63    C     0.61126   0.77648   0.33410   0.00000  Uiso   1.00
X64    C     0.62351   0.82600   0.37221   0.00000  Uiso   1.00
C65    C     0.67525   0.84442   0.37595   0.00000  Uiso   1.00
C66    C     0.71320   0.81807   0.33640   0.00000  Uiso   1.00
H67    H     0.67142   0.77358   0.15166   0.00000  Uiso   1.00
H68    H     0.61543   0.70695   0.08958   0.00000  Uiso   1.00
H69    H     0.71119   0.56078   0.14724   0.00000  Uiso   1.00
H70    H     0.76884   0.62748   0.20738   0.00000  Uiso   1.00
H71    H     0.72876   0.86860   0.21786   0.00000  Uiso   1.00
H72    H     0.78608   0.93394   0.15356   0.00000  Uiso   1.00
H73    H     0.88393   0.78714   0.10529   0.00000  Uiso   1.00
H74    H     0.82818   0.72235   0.16935   0.00000  Uiso   1.00
H75    H     0.84127   0.77431   0.29921   0.00000  Uiso   1.00
H76    H     0.89865   0.71316   0.36320   0.00000  Uiso   1.00
H77    H     0.77895   0.58329   0.38754   0.00000  Uiso   1.00
H78    H     0.71978   0.64637   0.32336   0.00000  Uiso   1.00
H79    H     0.63889   0.70979   0.26837   0.00000  Uiso   1.00
H80    H     0.57184   0.76088   0.33147   0.00000  Uiso   1.00
H81    H     0.68581   0.88190   0.40678   0.00000  Uiso   1.00
H82    H     0.75233   0.83458   0.33923   0.00000  Uiso   1.00
C83    C     0.70327   0.22654   0.69687   0.00000  Uiso   1.00
C84    C     0.65247   0.24982   0.69078   0.00000  Uiso   1.00
C85    C     0.61507   0.22217   0.65065   0.00000  Uiso   1.00
X86    C     0.62841   0.17275   0.61294   0.00000  Uiso   1.00
C87    C     0.68040   0.15493   0.61086   0.00000  Uiso   1.00
C88    C     0.71727   0.18153   0.65193   0.00000  Uiso   1.00
C89    C     0.74500   0.25426   0.74304   0.00000  Uiso   1.00
C90    C     0.77897   0.28930   0.69306   0.00000  Uiso   1.00
C91    C     0.77715   0.20998   0.78614   0.00000  Uiso   1.00
C92    C     0.72017   0.29368   0.79705   0.00000  Uiso   1.00
C93    C     0.76001   0.34066   0.66104   0.00000  Uiso   1.00
C94    C     0.79312   0.37737   0.62427   0.00000  Uiso   1.00
X95    C     0.84482   0.36138   0.61568   0.00000  Uiso   1.00
C96    C     0.86097   0.30554   0.63727   0.00000  Uiso   1.00
C97    C     0.82845   0.26978   0.67473   0.00000  Uiso   1.00
C98    C     0.81931   0.23208   0.82360   0.00000  Uiso   1.00
C99    C     0.85061   0.19545   0.86232   0.00000  Uiso   1.00
X100   C     0.84047   0.13521   0.86715   0.00000  Uiso   1.00
C101   C     0.79632   0.11287   0.83478   0.00000  Uiso   1.00
C102   C     0.76470   0.14992   0.79507   0.00000  Uiso   1.00
C103   C     0.68052   0.26993   0.83729   0.00000  Uiso   1.00
C104   C     0.64842   0.30675   0.87379   0.00000  Uiso   1.00
X105   C     0.65738   0.36723   0.87373   0.00000  Uiso   1.00
C106   C     0.70267   0.38971   0.84570   0.00000  Uiso   1.00
C107   C     0.73476   0.35266   0.80852   0.00000  Uiso   1.00
H108   H     0.64075   0.28876   0.71793   0.00000  Uiso   1.00
H109   H     0.57548   0.23733   0.65211   0.00000  Uiso   1.00
H110   H     0.69189   0.11755   0.58043   0.00000  Uiso   1.00
H111   H     0.75657   0.16545   0.65048   0.00000  Uiso   1.00
H112   H     0.72052   0.35457   0.66894   0.00000  Uiso   1.00
H113   H     0.77906   0.41909   0.60568   0.00000  Uiso   1.00
H114   H     0.89977   0.29005   0.62742   0.00000  Uiso   1.00
H115   H     0.84307   0.22762   0.69085   0.00000  Uiso   1.00
H116   H     0.82906   0.27820   0.82111   0.00000  Uiso   1.00
H117   H     0.88391   0.21423   0.88749   0.00000  Uiso   1.00
H118   H     0.78738   0.06657   0.83805   0.00000  Uiso   1.00
H119   H     0.73084   0.13118   0.77158   0.00000  Uiso   1.00
H120   H     0.67100   0.22375   0.83439   0.00000  Uiso   1.00
H121   H     0.61480   0.28847   0.89873   0.00000  Uiso   1.00
H122   H     0.71134   0.43610   0.84866   0.00000  Uiso   1.00
H123   H     0.76914   0.37124   0.78618   0.00000  Uiso   1.00
C124   C     0.22303   0.71056   0.69889   0.00000  Uiso   1.00
C125   C     0.17398   0.72984   0.67831   0.00000  Uiso   1.00
C126   C     0.14160   0.69296   0.64219   0.00000  Uiso   1.00
X127   C     0.15759   0.63630   0.62364   0.00000  Uiso   1.00
C128   C     0.20909   0.62020   0.63395   0.00000  Uiso   1.00
C129   C     0.24203   0.65791   0.66980   0.00000  Uiso   1.00
C130   C     0.25616   0.74678   0.74889   0.00000  Uiso   1.00
C131   C     0.29906   0.77317   0.70348   0.00000  Uiso   1.00
C132   C     0.27941   0.70863   0.80537   0.00000  Uiso   1.00
C133   C     0.22310   0.79234   0.78885   0.00000  Uiso   1.00
C134   C     0.28613   0.81681   0.65621   0.00000  Uiso   1.00
C135   C     0.32399   0.84254   0.61597   0.00000  Uiso   1.00
X136   C     0.37593   0.82517   0.62113   0.00000  Uiso   1.00
C137   C     0.38854   0.77710   0.66151   0.00000  Uiso   1.00
C138   C     0.35015   0.75018   0.70077   0.00000  Uiso   1.00
C139   C     0.31854   0.73269   0.84631   0.00000  Uiso   1.00
C140   C     0.34995   0.69603   0.88426   0.00000  Uiso   1.00
X141   C     0.34059   0.63558   0.88491   0.00000  Uiso   1.00
C142   C     0.29514   0.61342   0.85688   0.00000  Uiso   1.00
C143   C     0.26384   0.65025   0.81835   0.00000  Uiso   1.00
C144   C     0.17987   0.77135   0.82501   0.00000  Uiso   1.00
C145   C     0.14716   0.80917   0.85988   0.00000  Uiso   1.00
X146   C     0.15700   0.86954   0.86241   0.00000  Uiso   1.00
C147   C     0.20213   0.89102   0.83166   0.00000  Uiso   1.00
C148   C     0.23508   0.85276   0.79548   0.00000  Uiso   1.00
H149   H     0.15947   0.77274   0.69179   0.00000  Uiso   1.00
H150   H     0.10309   0.70843   0.63052   0.00000  Uiso   1.00
H151   H     0.22305   0.57781   0.61738   0.00000  Uiso   1.00
H152   H     0.28129   0.64394   0.67938   0.00000  Uiso   1.00
H153   H     0.24683   0.83259   0.65230   0.00000  Uiso   1.00
H154   H     0.31321   0.87896   0.58361   0.00000  Uiso   1.00
H155   H     0.42817   0.76238   0.66542   0.00000  Uiso   1.00
H156   H     0.36129   0.71208   0.72985   0.00000  Uiso   1.00
H157   H     0.32855   0.77868   0.84246   0.00000  Uiso   1.00
H158   H     0.38364   0.71423   0.90911   0.00000  Uiso   1.00
H159   H     0.28602   0.56715   0.86024   0.00000  Uiso   1.00
H160   H     0.22954   0.63172   0.79574   0.00000  Uiso   1.00
H161   H     0.17032   0.72514   0.82427   0.00000  Uiso   1.00
H162   H     0.11326   0.79106   0.88435   0.00000  Uiso   1.00
H163   H     0.21099   0.93738   0.83372   0.00000  Uiso   1.00
H164   H     0.26961   0.87082   0.77297   0.00000  Uiso   1.00
C165   C     0.22152   0.20699   0.78513   0.00000  Uiso   1.00
C166   C     0.23360   0.14661   0.79204   0.00000  Uiso   1.00
C167   C     0.20120   0.10858   0.82939   0.00000  Uiso   1.00
X168   C     0.15657   0.13029   0.86117   0.00000  Uiso   1.00
C169   C     0.14662   0.19063   0.85818   0.00000  Uiso   1.00
C170   C     0.17875   0.22819   0.82203   0.00000  Uiso   1.00
C171   C     0.25468   0.25237   0.74509   0.00000  Uiso   1.00
C172   C     0.27919   0.28927   0.80170   0.00000  Uiso   1.00
C173   C     0.22171   0.29004   0.69648   0.00000  Uiso   1.00
C174   C     0.29639   0.22568   0.69813   0.00000  Uiso   1.00
C175   C     0.31893   0.26428   0.84080   0.00000  Uiso   1.00
C176   C     0.35045   0.29992   0.87984   0.00000  Uiso   1.00
X177   C     0.34074   0.36024   0.88332   0.00000  Uiso   1.00
C178   C     0.29501   0.38299   0.85676   0.00000  Uiso   1.00
C179   C     0.26357   0.34718   0.81719   0.00000  Uiso   1.00
C180   C     0.24121   0.34294   0.66852   0.00000  Uiso   1.00
C181   C     0.20867   0.38162   0.63347   0.00000  Uiso   1.00
X182   C     0.15705   0.36631   0.62286   0.00000  Uiso   1.00
C183   C     0.14046   0.30961   0.64040   0.00000  Uiso   1.00
C184   C     0.17243   0.27177   0.67580   0.00000  Uiso   1.00
C185   C     0.28220   0.18233   0.65112   0.00000  Uiso   1.00
C186   C     0.31908   0.15637   0.60949   0.00000  Uiso   1.00
X187   C     0.37123   0.17328   0.61302   0.00000  Uiso   1.00
C188   C     0.38483   0.22136   0.65289   0.00000  Uiso   1.00
C189   C     0.34745   0.24839   0.69364   0.00000  Uiso   1.00
H190   H     0.26787   0.12844   0.76895   0.00000  Uiso   1.00
H191   H     0.21007   0.06223   0.83159   0.00000  Uiso   1.00
H192   H     0.11305   0.20889   0.88327   0.00000  Uiso   1.00
H193   H     0.16921   0.27441   0.82120   0.00000  Uiso   1.00
H194   H     0.32903   0.21846   0.83506   0.00000  Uiso   1.00
H195   H     0.38441   0.28114   0.90345   0.00000  Uiso   1.00
H196   H     0.28569   0.42906   0.86213   0.00000  Uiso   1.00
H197   H     0.22899   0.36618   0.79584   0.00000  Uiso   1.00
H198   H     0.28063   0.35622   0.67826   0.00000  Uiso   1.00
H199   H     0.22305   0.42406   0.61770   0.00000  Uiso   1.00
H200   H     0.10181   0.29479   0.62846   0.00000  Uiso   1.00
H201   H     0.15750   0.22890   0.68860   0.00000  Uiso   1.00
H202   H     0.24274   0.16688   0.64854   0.00000  Uiso   1.00
H203   H     0.30745   0.11998   0.57757   0.00000  Uiso   1.00
H204   H     0.42461   0.23575   0.65560   0.00000  Uiso   1.00
H205   H     0.35936   0.28626   0.72263   0.00000  Uiso   1.00
C206   C     0.71998   0.70406   0.80051   0.00000  Uiso   1.00
C207   C     0.73444   0.64471   0.80935   0.00000  Uiso   1.00
C208   C     0.70248   0.60669   0.84545   0.00000  Uiso   1.00
X209   C     0.65753   0.62856   0.87507   0.00000  Uiso   1.00
C210   C     0.64901   0.68906   0.87806   0.00000  Uiso   1.00
C211   C     0.68100   0.72681   0.84266   0.00000  Uiso   1.00
C212   C     0.74351   0.74473   0.74668   0.00000  Uiso   1.00
C213   C     0.77561   0.78914   0.78972   0.00000  Uiso   1.00
C214   C     0.70054   0.77215   0.70214   0.00000  Uiso   1.00
C215   C     0.77757   0.71121   0.69531   0.00000  Uiso   1.00
C216   C     0.81830   0.76727   0.82635   0.00000  Uiso   1.00
C217   C     0.85020   0.80415   0.86390   0.00000  Uiso   1.00
X218   C     0.84011   0.86441   0.86849   0.00000  Uiso   1.00
C219   C     0.79539   0.88650   0.83722   0.00000  Uiso   1.00
C220   C     0.76322   0.84922   0.79858   0.00000  Uiso   1.00
C221   C     0.71322   0.81752   0.65703   0.00000  Uiso   1.00
C222   C     0.67530   0.84388   0.61743   0.00000  Uiso   1.00
X223   C     0.62353   0.82553   0.62115   0.00000  Uiso   1.00
C224   C     0.61124   0.77603   0.65928   0.00000  Uiso   1.00
C225   C     0.64970   0.74852   0.69784   0.00000  Uiso   1.00
C226   C     0.75907   0.66018   0.66218   0.00000  Uiso   1.00
C227   C     0.79254   0.62443   0.62468   0.00000  Uiso   1.00
X228   C     0.84413   0.64112   0.61643   0.00000  Uiso   1.00
C229   C     0.85972   0.69685   0.63898   0.00000  Uiso   1.00
C230   C     0.82683   0.73167   0.67709   0.00000  Uiso   1.00
H231   H     0.76849   0.62661   0.78566   0.00000  Uiso   1.00
H232   H     0.71090   0.56018   0.84630   0.00000  Uiso   1.00
H233   H     0.61571   0.70673   0.90432   0.00000  Uiso   1.00
H234   H     0.67160   0.77309   0.84174   0.00000  Uiso   1.00
H235   H     0.82811   0.72116   0.82381   0.00000  Uiso   1.00
H236   H     0.88387   0.78553   0.88837   0.00000  Uiso   1.00
H237   H     0.78641   0.93279   0.84049   0.00000  Uiso   1.00
H238   H     0.72905   0.86784   0.77576   0.00000  Uiso   1.00
H239   H     0.75236   0.83398   0.65423   0.00000  Uiso   1.00
H240   H     0.68592   0.88133   0.58660   0.00000  Uiso   1.00
H241   H     0.57180   0.76048   0.66192   0.00000  Uiso   1.00
H242   H     0.63879   0.70931   0.72503   0.00000  Uiso   1.00
H243   H     0.71973   0.64565   0.66989   0.00000  Uiso   1.00
H244   H     0.77886   0.58281   0.60531   0.00000  Uiso   1.00
H245   H     0.89838   0.71293   0.62943   0.00000  Uiso   1.00
H246   H     0.84107   0.77379   0.69389   0.00000  Uiso   1.00
C247   C     0.70313   0.22611   0.29641   0.00000  Uiso   1.00
C248   C     0.71695   0.18116   0.34152   0.00000  Uiso   1.00
C249   C     0.67993   0.15473   0.38252   0.00000  Uiso   1.00
X250   C     0.62800   0.17271   0.38023   0.00000  Uiso   1.00
C251   C     0.61483   0.22209   0.34237   0.00000  Uiso   1.00
C252   C     0.65237   0.24957   0.30231   0.00000  Uiso   1.00
C253   C     0.74499   0.25358   0.25024   0.00000  Uiso   1.00
C254   C     0.77901   0.28862   0.30016   0.00000  Uiso   1.00
C255   C     0.72032   0.29304   0.19612   0.00000  Uiso   1.00
C256   C     0.77703   0.20904   0.20732   0.00000  Uiso   1.00
C257   C     0.82858   0.26925   0.31833   0.00000  Uiso   1.00
C258   C     0.86115   0.30517   0.35552   0.00000  Uiso   1.00
X259   C     0.84497   0.36102   0.37704   0.00000  Uiso   1.00
C260   C     0.79321   0.37686   0.36867   0.00000  Uiso   1.00
C261   C     0.76006   0.34001   0.33215   0.00000  Uiso   1.00
C262   C     0.73499   0.35201   0.18473   0.00000  Uiso   1.00
C263   C     0.70283   0.38923   0.14790   0.00000  Uiso   1.00
X264   C     0.65739   0.36693   0.12009   0.00000  Uiso   1.00
C265   C     0.64838   0.30645   0.11978   0.00000  Uiso   1.00
C266   C     0.68057   0.26946   0.15592   0.00000  Uiso   1.00
C267   C     0.76446   0.14897   0.19866   0.00000  Uiso   1.00
C268   C     0.79604   0.11166   0.15919   0.00000  Uiso   1.00
X269   C     0.84026   0.13377   0.12678   0.00000  Uiso   1.00
C270   C     0.85054   0.19399   0.13135   0.00000  Uiso   1.00
C271   C     0.81926   0.23087   0.16980   0.00000  Uiso   1.00
H272   H     0.75621   0.16496   0.34313   0.00000  Uiso   1.00
H273   H     0.69125   0.11735   0.41305   0.00000  Uiso   1.00
H274   H     0.57527   0.23735   0.34075   0.00000  Uiso   1.00
H275   H     0.64079   0.28852   0.27507   0.00000  Uiso   1.00
H276   H     0.84322   0.22709   0.30226   0.00000  Uiso   1.00
H277   H     0.90001   0.28979   0.36521   0.00000  Uiso   1.00
H278   H     0.77912   0.41858   0.38724   0.00000  Uiso   1.00
H279   H     0.72054   0.35385   0.32437   0.00000  Uiso   1.00
H280   H     0.76946   0.37047   0.20699   0.00000  Uiso   1.00
H281   H     0.71156   0.43562   0.14506   0.00000  Uiso   1.00
H282   H     0.61466   0.28831   0.09494   0.00000  Uiso   1.00
H283   H     0.67098   0.22329   0.15872   0.00000  Uiso   1.00
H284   H     0.73054   0.13041   0.22220   0.00000  Uiso   1.00
H285   H     0.78701   0.06538   0.15610   0.00000  Uiso   1.00
H286   H     0.88392   0.21257   0.10615   0.00000  Uiso   1.00
H287   H     0.82912   0.27697   0.17206   0.00000  Uiso   1.00
C288   C     0.22311   0.71107   0.29458   0.00000  Uiso   1.00
C289   C     0.24215   0.65834   0.32345   0.00000  Uiso   1.00
C290   C     0.20922   0.62048   0.35912   0.00000  Uiso   1.00
X291   C     0.15772   0.63651   0.36949   0.00000  Uiso   1.00
C292   C     0.14172   0.69324   0.35128   0.00000  Uiso   1.00
C293   C     0.17408   0.73028   0.31534   0.00000  Uiso   1.00
C294   C     0.25613   0.74735   0.24451   0.00000  Uiso   1.00
C295   C     0.29914   0.77368   0.28983   0.00000  Uiso   1.00
C296   C     0.22298   0.79295   0.20468   0.00000  Uiso   1.00
C297   C     0.27929   0.70920   0.18793   0.00000  Uiso   1.00
C298   C     0.35016   0.75050   0.29255   0.00000  Uiso   1.00
C299   C     0.38866   0.77728   0.33178   0.00000  Uiso   1.00
X300   C     0.37620   0.82538   0.37219   0.00000  Uiso   1.00
C301   C     0.32431   0.84297   0.37733   0.00000  Uiso   1.00
C302   C     0.28636   0.81739   0.33708   0.00000  Uiso   1.00
C303   C     0.23497   0.85336   0.19795   0.00000  Uiso   1.00
C304   C     0.20194   0.89163   0.16186   0.00000  Uiso   1.00
X305   C     0.15670   0.87018   0.13134   0.00000  Uiso   1.00
C306   C     0.14682   0.80983   0.13403   0.00000  Uiso   1.00
C307   C     0.17962   0.77199   0.16876   0.00000  Uiso   1.00
C308   C     0.26363   0.65085   0.17494   0.00000  Uiso   1.00
C309   C     0.29498   0.61388   0.13667   0.00000  Uiso   1.00
X310   C     0.34058   0.63588   0.10888   0.00000  Uiso   1.00
C311   C     0.35001   0.69633   0.10940   0.00000  Uiso   1.00
C312   C     0.31853   0.73313   0.14708   0.00000  Uiso   1.00
H313   H     0.28140   0.64440   0.31376   0.00000  Uiso   1.00
H314   H     0.22320   0.57802   0.37546   0.00000  Uiso   1.00
H315   H     0.10321   0.70865   0.36304   0.00000  Uiso   1.00
H316   H     0.15956   0.77322   0.30205   0.00000  Uiso   1.00
H317   H     0.36118   0.71233   0.26350   0.00000  Uiso   1.00
H318   H     0.42823   0.76239   0.32787   0.00000  Uiso   1.00
H319   H     0.31365   0.87943   0.40969   0.00000  Uiso   1.00
H320   H     0.24711   0.83332   0.34102   0.00000  Uiso   1.00
H321   H     0.26957   0.87140   0.22028   0.00000  Uiso   1.00
H322   H     0.21087   0.93797   0.15964   0.00000  Uiso   1.00
H323   H     0.11285   0.79173   0.10972   0.00000  Uiso   1.00
H324   H     0.17004   0.72578   0.16956   0.00000  Uiso   1.00
H325   H     0.22923   0.63244   0.19745   0.00000  Uiso   1.00
H326   H     0.28579   0.56763   0.13337   0.00000  Uiso   1.00
H327   H     0.38380   0.71442   0.08467   0.00000  Uiso   1.00
H328   H     0.32861   0.77910   0.15088   0.00000  Uiso   1.00
O329   O     0.06915   0.10446   0.11862   0.00000  Uiso   1.00
O330   O     0.12841   0.05174   0.05680   0.00000  Uiso   1.00
X331   C     0.11612   0.09160   0.10156   0.00000  Uiso   1.00
O332   O     0.92720   0.89076   0.11167   0.00000  Uiso   1.00
O333   O     0.86795   0.94618   0.05317   0.00000  Uiso   1.00
X334   C     0.88022   0.90404   0.09499   0.00000  Uiso   1.00
O335   O     0.06945   0.89526   0.11799   0.00000  Uiso   1.00
O336   O     0.12858   0.94848   0.05653   0.00000  Uiso   1.00
X337   C     0.11641   0.90832   0.10091   0.00000  Uiso   1.00
O338   O     0.92730   0.10896   0.11215   0.00000  Uiso   1.00
O339   O     0.86799   0.05383   0.05342   0.00000  Uiso   1.00
X340   C     0.88034   0.09575   0.09556   0.00000  Uiso   1.00
Zr341  Zr    0.99833   0.07276   0.08163   0.00000  Uiso   1.00
O342   O     0.99633   0.06339   0.18828   0.00000  Uiso   1.00
O343   O     0.00212   0.16530   0.08801   0.00000  Uiso   1.00
Zr344  Zr    0.99832   0.92716   0.08167   0.00000  Uiso   1.00
O345   O     0.99341   0.93276   0.18879   0.00000  Uiso   1.00
O346   O     0.00261   0.83459   0.08664   0.00000  Uiso   1.00
O347   O     0.04558   0.00002   0.09484   0.00000  Uiso   1.00
O348   O     0.95209   0.00000   0.09398   0.00000  Uiso   1.00
O349   O     0.92766   0.11162   0.88365   0.00000  Uiso   1.00
O350   O     0.86815   0.05411   0.93883   0.00000  Uiso   1.00
X351   C     0.88059   0.09726   0.89844   0.00000  Uiso   1.00
O352   O     0.06971   0.89416   0.87613   0.00000  Uiso   1.00
O353   O     0.12881   0.94853   0.93616   0.00000  Uiso   1.00
X354   C     0.11667   0.90772   0.89260   0.00000  Uiso   1.00
O355   O     0.92750   0.88819   0.88416   0.00000  Uiso   1.00
O356   O     0.86804   0.94591   0.93916   0.00000  Uiso   1.00
X357   C     0.88041   0.90258   0.89904   0.00000  Uiso   1.00
O358   O     0.06948   0.10577   0.87579   0.00000  Uiso   1.00
O359   O     0.12869   0.05169   0.93595   0.00000  Uiso   1.00
X360   C     0.11644   0.09229   0.89214   0.00000  Uiso   1.00
Zr361  Zr    0.99828   0.07259   0.91025   0.00000  Uiso   1.00
O362   O     0.99271   0.06307   0.80353   0.00000  Uiso   1.00
O363   O     0.00053   0.16453   0.89720   0.00000  Uiso   1.00
Zr364  Zr    0.99829   0.92737   0.91022   0.00000  Uiso   1.00
O365   O     0.99272   0.93700   0.80352   0.00000  Uiso   1.00
O366   O     0.00054   0.83549   0.89667   0.00000  Uiso   1.00
Zr367  Zr    0.07720   0.00003   0.99612   0.00000  Uiso   1.00
Zr368  Zr    0.91968   0.00000   0.99608   0.00000  Uiso   1.00
O369   O     0.95180   0.99997   0.89796   0.00000  Uiso   1.00
O370   O     0.04577   0.99999   0.89700   0.00000  Uiso   1.00
O371   O     0.95252   0.08468   0.99602   0.00000  Uiso   1.00
O372   O     0.04314   0.91609   0.99604   0.00000  Uiso   1.00
O373   O     0.04317   0.08392   0.99606   0.00000  Uiso   1.00
O374   O     0.95255   0.91529   0.99602   0.00000  Uiso   1.00
H375   H     0.92832   0.99996   0.13338   0.00000  Uiso   1.00
H376   H     0.06517   0.88061   0.99647   0.00000  Uiso   1.00
H377   H     0.92743   0.99993   0.85917   0.00000  Uiso   1.00
H378   H     0.06521   0.11938   0.99656   0.00000  Uiso   1.00
H379   H     0.97976   0.81886   0.05078   0.00000  Uiso   1.00
H380   H     0.00599   0.81806   0.94198   0.00000  Uiso   1.00
H381   H     0.02750   0.94663   0.78603   0.00000  Uiso   1.00
H382   H     0.02735   0.05275   0.78608   0.00000  Uiso   1.00
H383   H     0.00551   0.18180   0.94268   0.00000  Uiso   1.00
H384   H     0.97993   0.18123   0.05155   0.00000  Uiso   1.00
H385   H     0.99542   0.10370   0.20698   0.00000  Uiso   1.00
H386   H     0.02466   0.95335   0.20514   0.00000  Uiso   1.00
O387   O     0.07168   0.60735   0.61527   0.00000  Uiso   1.00
O388   O     0.13091   0.55504   0.55329   0.00000  Uiso   1.00
X389   C     0.11842   0.59589   0.59641   0.00000  Uiso   1.00
O390   O     0.93097   0.38914   0.60546   0.00000  Uiso   1.00
O391   O     0.87120   0.44638   0.55093   0.00000  Uiso   1.00
X392   C     0.88405   0.40210   0.58911   0.00000  Uiso   1.00
O393   O     0.07154   0.39642   0.61548   0.00000  Uiso   1.00
O394   O     0.13084   0.44833   0.55321   0.00000  Uiso   1.00
X395   C     0.11824   0.40749   0.59633   0.00000  Uiso   1.00
O396   O     0.93065   0.61444   0.60538   0.00000  Uiso   1.00
O397   O     0.87106   0.55682   0.55100   0.00000  Uiso   1.00
X398   C     0.88373   0.60111   0.58924   0.00000  Uiso   1.00
Zr399  Zr    0.00075   0.57385   0.58242   0.00000  Uiso   1.00
O400   O     0.99446   0.56389   0.68897   0.00000  Uiso   1.00
O401   O     0.00428   0.66549   0.59741   0.00000  Uiso   1.00
Zr402  Zr    0.00080   0.43002   0.58255   0.00000  Uiso   1.00
O403   O     0.99450   0.44036   0.68905   0.00000  Uiso   1.00
O404   O     0.00425   0.33843   0.59796   0.00000  Uiso   1.00
O405   O     0.04869   0.50194   0.59581   0.00000  Uiso   1.00
O406   O     0.95378   0.50190   0.59470   0.00000  Uiso   1.00
O407   O     0.93083   0.61468   0.38736   0.00000  Uiso   1.00
O408   O     0.87114   0.55688   0.44130   0.00000  Uiso   1.00
X409   C     0.88387   0.60129   0.40329   0.00000  Uiso   1.00
O410   O     0.07169   0.39626   0.37738   0.00000  Uiso   1.00
O411   O     0.13091   0.44826   0.43968   0.00000  Uiso   1.00
X412   C     0.11837   0.40734   0.39664   0.00000  Uiso   1.00
O413   O     0.93111   0.38888   0.38726   0.00000  Uiso   1.00
O414   O     0.87127   0.44627   0.44145   0.00000  Uiso   1.00
X415   C     0.88417   0.40188   0.40347   0.00000  Uiso   1.00
O416   O     0.07182   0.60739   0.37747   0.00000  Uiso   1.00
O417   O     0.13099   0.55505   0.43952   0.00000  Uiso   1.00
X418   C     0.11854   0.59595   0.39644   0.00000  Uiso   1.00
Zr419  Zr    0.00085   0.57377   0.41001   0.00000  Uiso   1.00
O420   O     0.99465   0.56344   0.30350   0.00000  Uiso   1.00
O421   O     0.00427   0.66529   0.39412   0.00000  Uiso   1.00
Zr422  Zr    0.00089   0.42995   0.41004   0.00000  Uiso   1.00
O423   O     0.99470   0.44031   0.30353   0.00000  Uiso   1.00
O424   O     0.00432   0.33840   0.39438   0.00000  Uiso   1.00
Zr425  Zr    0.07933   0.50182   0.49635   0.00000  Uiso   1.00
Zr426  Zr    0.92248   0.50177   0.49618   0.00000  Uiso   1.00
O427   O     0.95386   0.50182   0.39771   0.00000  Uiso   1.00
O428   O     0.04882   0.50186   0.39680   0.00000  Uiso   1.00
O429   O     0.95596   0.58607   0.49618   0.00000  Uiso   1.00
O430   O     0.04471   0.41816   0.49635   0.00000  Uiso   1.00
O431   O     0.04474   0.58556   0.49626   0.00000  Uiso   1.00
O432   O     0.95610   0.41761   0.49626   0.00000  Uiso   1.00
H433   H     0.92888   0.50187   0.63290   0.00000  Uiso   1.00
H434   H     0.06518   0.38150   0.49642   0.00000  Uiso   1.00
H435   H     0.92895   0.50177   0.35951   0.00000  Uiso   1.00
H436   H     0.06531   0.62215   0.49632   0.00000  Uiso   1.00
H437   H     0.99875   0.32006   0.55312   0.00000  Uiso   1.00
H438   H     0.99957   0.31996   0.43933   0.00000  Uiso   1.00
H439   H     0.02979   0.44768   0.28560   0.00000  Uiso   1.00
H440   H     0.02976   0.55625   0.28556   0.00000  Uiso   1.00
H441   H     0.99970   0.68380   0.43906   0.00000  Uiso   1.00
H442   H     0.99783   0.68372   0.55272   0.00000  Uiso   1.00
H443   H     0.02948   0.55613   0.70693   0.00000  Uiso   1.00
H444   H     0.02953   0.44793   0.70703   0.00000  Uiso   1.00
O445   O     0.40664   0.91990   0.37691   0.00000  Uiso   1.00
O446   O     0.45115   0.85165   0.43983   0.00000  Uiso   1.00
X447   C     0.41532   0.86689   0.39663   0.00000  Uiso   1.00
O448   O     0.59905   0.07761   0.38680   0.00000  Uiso   1.00
O449   O     0.55004   0.14659   0.44225   0.00000  Uiso   1.00
X450   C     0.58898   0.13085   0.40421   0.00000  Uiso   1.00
O451   O     0.59242   0.92024   0.37619   0.00000  Uiso   1.00
O452   O     0.54849   0.85197   0.43987   0.00000  Uiso   1.00
X453   C     0.58414   0.86730   0.39640   0.00000  Uiso   1.00
O454   O     0.39976   0.07763   0.38787   0.00000  Uiso   1.00
O455   O     0.44960   0.14670   0.44182   0.00000  Uiso   1.00
X456   C     0.41036   0.13099   0.40432   0.00000  Uiso   1.00
Zr457  Zr    0.43696   0.99936   0.41055   0.00000  Uiso   1.00
O458   O     0.44651   0.00646   0.30410   0.00000  Uiso   1.00
O459   O     0.35634   0.99540   0.39490   0.00000  Uiso   1.00
Zr460  Zr    0.56264   0.99928   0.41118   0.00000  Uiso   1.00
O461   O     0.55228   0.00287   0.30495   0.00000  Uiso   1.00
O462   O     0.64361   0.99575   0.39839   0.00000  Uiso   1.00
O463   O     0.49984   0.94441   0.39773   0.00000  Uiso   1.00
O464   O     0.49988   0.05331   0.39858   0.00000  Uiso   1.00
O465   O     0.39892   0.07769   0.60462   0.00000  Uiso   1.00
O466   O     0.44943   0.14677   0.55176   0.00000  Uiso   1.00
X467   C     0.40985   0.13109   0.58866   0.00000  Uiso   1.00
O468   O     0.59285   0.91992   0.61663   0.00000  Uiso   1.00
O469   O     0.54816   0.85159   0.55413   0.00000  Uiso   1.00
X470   C     0.58419   0.86690   0.59701   0.00000  Uiso   1.00
O471   O     0.60020   0.07738   0.60485   0.00000  Uiso   1.00
O472   O     0.54992   0.14662   0.55195   0.00000  Uiso   1.00
X473   C     0.58948   0.13080   0.58884   0.00000  Uiso   1.00
O474   O     0.40596   0.91986   0.61607   0.00000  Uiso   1.00
O475   O     0.45106   0.85155   0.55397   0.00000  Uiso   1.00
X476   C     0.41493   0.86681   0.59670   0.00000  Uiso   1.00
Zr477  Zr    0.43654   0.99942   0.58302   0.00000  Uiso   1.00
O478   O     0.44578   0.00701   0.68946   0.00000  Uiso   1.00
O479   O     0.35595   0.99548   0.59900   0.00000  Uiso   1.00
Zr480  Zr    0.56221   0.99937   0.58358   0.00000  Uiso   1.00
O481   O     0.55187   0.00698   0.68983   0.00000  Uiso   1.00
O482   O     0.64255   0.99567   0.60158   0.00000  Uiso   1.00
Zr483  Zr    0.49961   0.90938   0.49709   0.00000  Uiso   1.00
Zr484  Zr    0.49963   0.08912   0.49700   0.00000  Uiso   1.00
O485   O     0.49937   0.05342   0.59551   0.00000  Uiso   1.00
O486   O     0.49935   0.94442   0.59658   0.00000  Uiso   1.00
O487   O     0.42588   0.05013   0.49670   0.00000  Uiso   1.00
O488   O     0.57289   0.94945   0.49736   0.00000  Uiso   1.00
O489   O     0.42631   0.94954   0.49675   0.00000  Uiso   1.00
O490   O     0.57330   0.05007   0.49732   0.00000  Uiso   1.00
H491   H     0.50001   0.08146   0.36022   0.00000  Uiso   1.00
H492   H     0.60540   0.92666   0.49707   0.00000  Uiso   1.00
H493   H     0.49932   0.08192   0.63352   0.00000  Uiso   1.00
H494   H     0.39381   0.92674   0.49659   0.00000  Uiso   1.00
H495   H     0.65902   0.00386   0.44331   0.00000  Uiso   1.00
H496   H     0.65950   0.99609   0.55665   0.00000  Uiso   1.00
H497   H     0.54726   0.96695   0.70827   0.00000  Uiso   1.00
H498   H     0.45128   0.96710   0.70781   0.00000  Uiso   1.00
H499   H     0.33960   0.99873   0.55383   0.00000  Uiso   1.00
H500   H     0.34006   0.00025   0.43991   0.00000  Uiso   1.00
H501   H     0.45497   0.96695   0.28652   0.00000  Uiso   1.00
H502   H     0.58736   0.00513   0.28518   0.00000  Uiso   1.00
O503   O     0.57049   0.60392   0.11452   0.00000  Uiso   1.00
O504   O     0.62828   0.54848   0.05395   0.00000  Uiso   1.00
X505   C     0.61680   0.59021   0.09561   0.00000  Uiso   1.00
O506   O     0.42813   0.38344   0.10283   0.00000  Uiso   1.00
O507   O     0.36963   0.44433   0.05139   0.00000  Uiso   1.00
X508   C     0.38152   0.39874   0.08717   0.00000  Uiso   1.00
O509   O     0.57038   0.39154   0.11477   0.00000  Uiso   1.00
O510   O     0.62824   0.44677   0.05406   0.00000  Uiso   1.00
X511   C     0.61670   0.40522   0.09596   0.00000  Uiso   1.00
O512   O     0.42803   0.61203   0.10235   0.00000  Uiso   1.00
O513   O     0.36954   0.55090   0.05122   0.00000  Uiso   1.00
X514   C     0.38142   0.59669   0.08664   0.00000  Uiso   1.00
Zr515  Zr    0.49876   0.57017   0.08346   0.00000  Uiso   1.00
O516   O     0.49222   0.56004   0.18990   0.00000  Uiso   1.00
O517   O     0.50238   0.66152   0.10057   0.00000  Uiso   1.00
Zr518  Zr    0.49875   0.42518   0.08346   0.00000  Uiso   1.00
O519   O     0.49221   0.43534   0.18991   0.00000  Uiso   1.00
O520   O     0.50240   0.33381   0.10047   0.00000  Uiso   1.00
O521   O     0.54620   0.49767   0.09679   0.00000  Uiso   1.00
O522   O     0.45218   0.49768   0.09594   0.00000  Uiso   1.00
O523   O     0.42803   0.61188   0.89169   0.00000  Uiso   1.00
O524   O     0.36955   0.55083   0.94296   0.00000  Uiso   1.00
X525   C     0.38143   0.59653   0.90741   0.00000  Uiso   1.00
O526   O     0.57037   0.39166   0.87939   0.00000  Uiso   1.00
O527   O     0.62825   0.44681   0.94018   0.00000  Uiso   1.00
X528   C     0.61669   0.40535   0.89817   0.00000  Uiso   1.00
O529   O     0.42814   0.38355   0.89124   0.00000  Uiso   1.00
O530   O     0.36964   0.44437   0.94281   0.00000  Uiso   1.00
X531   C     0.38154   0.39887   0.90690   0.00000  Uiso   1.00
O532   O     0.57050   0.60376   0.87960   0.00000  Uiso   1.00
O533   O     0.62829   0.54837   0.94025   0.00000  Uiso   1.00
X534   C     0.61680   0.59001   0.89848   0.00000  Uiso   1.00
Zr535  Zr    0.49877   0.57015   0.91081   0.00000  Uiso   1.00
O536   O     0.49222   0.56010   0.80435   0.00000  Uiso   1.00
O537   O     0.50243   0.66153   0.89394   0.00000  Uiso   1.00
Zr538  Zr    0.49875   0.42517   0.91084   0.00000  Uiso   1.00
O539   O     0.49221   0.43520   0.80437   0.00000  Uiso   1.00
O540   O     0.50245   0.33376   0.89417   0.00000  Uiso   1.00
Zr541  Zr    0.57640   0.49762   0.99714   0.00000  Uiso   1.00
Zr542  Zr    0.42137   0.49762   0.99714   0.00000  Uiso   1.00
O543   O     0.45220   0.49766   0.89835   0.00000  Uiso   1.00
O544   O     0.54619   0.49765   0.89749   0.00000  Uiso   1.00
O545   O     0.45433   0.58215   0.99712   0.00000  Uiso   1.00
O546   O     0.54261   0.41355   0.99714   0.00000  Uiso   1.00
O547   O     0.54262   0.58172   0.99712   0.00000  Uiso   1.00
O548   O     0.45428   0.41311   0.99714   0.00000  Uiso   1.00
H549   H     0.42702   0.49771   0.13385   0.00000  Uiso   1.00
H550   H     0.56342   0.37712   0.99710   0.00000  Uiso   1.00
H551   H     0.42707   0.49769   0.86040   0.00000  Uiso   1.00
H552   H     0.56336   0.61819   0.99707   0.00000  Uiso   1.00
H553   H     0.49957   0.31506   0.05537   0.00000  Uiso   1.00
H554   H     0.49917   0.31511   0.93927   0.00000  Uiso   1.00
H555   H     0.52732   0.44253   0.78650   0.00000  Uiso   1.00
H556   H     0.52738   0.55317   0.78645   0.00000  Uiso   1.00
H557   H     0.49942   0.68023   0.93905   0.00000  Uiso   1.00
H558   H     0.49977   0.68030   0.05546   0.00000  Uiso   1.00
H559   H     0.52742   0.55335   0.20780   0.00000  Uiso   1.00
H560   H     0.52737   0.44240   0.20779   0.00000  Uiso   1.00
loop_
_geom_bond_atom_site_label_1
_geom_bond_atom_site_label_2
_geom_bond_distance
_geom_bond_site_symmetry_2
_ccdc_geom_bond_type
C1     C2      1.411   .     A
C1     C6      1.419   .     A
C1     C7      1.560   .     S
C2     C3      1.391   .     A
C2     H26     1.083   .     S
C3     X4      1.402   .     A
C3     H27     1.084   .     S
X4     C5      1.405   .     A
X4     X331    1.485   .     A
C5     C6      1.414   .     A
C5     H28     1.083   .     S
C6     H29     1.080   .     S
C7     C8      1.535   .     S
C7     C9      1.548   .     S
C7     C10     1.545   .     S
C8     C11     1.415   .     A
C8     C15     1.407   .     A
C9     C16     1.424   .     A
C9     C20     1.404   .     A
C10    C21     1.404   .     A
C10    C25     1.420   .     A
C11    C12     1.392   .     A
C11    H30     1.081   .     S
C12    X13     1.396   .     A
C12    H31     1.084   .     S
X13    C14     1.400   .     A
X13    X508    1.453   .     S
C14    C15     1.386   .     A
C14    H32     1.084   .     S
C15    H33     1.083   .     S
C16    C17     1.401   .     A
C16    H34     1.081   .     S
C17    X18     1.394   .     A
C17    H35     1.083   .     S
X18    C19     1.407   .     A
X18    X456    1.469   .     S
C19    C20     1.392   .     A
C19    H36     1.084   .     S
C20    H37     1.083   .     S
C21    C22     1.385   .     A
C21    H38     1.082   .     S
C22    X23     1.406   .     A
C22    H39     1.083   .     S
X23    C24     1.398   .     A
X23    X412    1.472   .     A
C24    C25     1.403   .     A
C24    H40     1.083   .     S
C25    H41     1.083   .     S
C42    C43     1.407   .     A
C42    C47     1.416   .     A
C42    C48     1.536   .     S
C43    C44     1.384   .     A
C43    H67     1.083   .     S
C44    X45     1.399   .     A
C44    H68     1.084   .     S
X45    C46     1.395   .     A
X45    X505    1.449   .     S
C46    C47     1.394   .     A
C46    H69     1.083   .     S
C47    H70     1.080   .     S
C48    C49     1.562   .     S
C48    C50     1.546   .     S
C48    C51     1.550   .     S
C49    C52     1.419   .     A
C49    C56     1.412   .     A
C50    C57     1.406   .     A
C50    C61     1.418   .     A
C51    C62     1.426   .     A
C51    C66     1.403   .     A
C52    C53     1.414   .     A
C52    H71     1.080   .     S
C53    X54     1.406   .     A
C53    H72     1.083   .     S
X54    C55     1.402   .     A
X54    X334    1.486   .     S
C55    C56     1.393   .     A
C55    H73     1.084   .     S
C56    H74     1.083   .     S
C57    C58     1.386   .     A
C57    H75     1.081   .     S
C58    X59     1.406   .     A
C58    H76     1.083   .     S
X59    C60     1.400   .     A
X59    X409    1.474   .     S
C60    C61     1.401   .     A
C60    H77     1.083   .     S
C61    H78     1.083   .     S
C62    C63     1.402   .     A
C62    H79     1.080   .     S
C63    X64     1.393   .     A
C63    H80     1.083   .     S
X64    C65     1.407   .     A
X64    X453    1.468   .     A
C65    C66     1.391   .     A
C65    H81     1.084   .     S
C66    H82     1.083   .     S
C83    C84     1.425   .     A
C83    C88     1.404   .     A
C83    C89     1.548   .     S
C84    C85     1.401   .     A
C84    H108    1.080   .     S
C85    X86     1.394   .     A
C85    H109    1.083   .     S
X86    C87     1.408   .     A
X86    X473    1.469   .     S
C87    C88     1.391   .     A
C87    H110    1.084   .     S
C88    H111    1.083   .     S
C89    C90     1.544   .     S
C89    C91     1.561   .     S
C89    C92     1.535   .     S
C90    C93     1.418   .     A
C90    C97     1.405   .     A
C91    C98     1.412   .     A
C91    C102    1.418   .     A
C92    C103    1.406   .     A
C92    C107    1.416   .     A
C93    C94     1.401   .     A
C93    H112    1.083   .     S
C94    X95     1.399   .     A
C94    H113    1.083   .     S
X95    C96     1.407   .     A
X95    X392    1.473   .     S
C96    C97     1.386   .     A
C96    H114    1.083   .     S
C97    H115    1.081   .     S
C98    C99     1.392   .     A
C98    H116    1.083   .     S
C99    X100    1.402   .     A
C99    H117    1.084   .     S
X100   C101    1.406   .     A
X100   X351    1.487   .     S
C101   C102    1.414   .     A
C101   H118    1.083   .     S
C102   H119    1.080   .     S
C103   C104    1.384   .     A
C103   H120    1.083   .     S
C104   X105    1.399   .     A
C104   H121    1.084   .     S
X105   C106    1.395   .     A
X105   X528    1.449   .     A
C106   C107    1.394   .     A
C106   H122    1.083   .     S
C107   H123    1.080   .     S
C124   C125    1.405   .     A
C124   C129    1.419   .     A
C124   C130    1.546   .     S
C125   C126    1.385   .     A
C125   H149    1.081   .     S
C126   X127    1.406   .     A
C126   H150    1.083   .     S
X127   C128    1.399   .     A
X127   X389    1.472   .     S
C128   C129    1.403   .     A
C128   H151    1.083   .     S
C129   H152    1.083   .     S
C130   C131    1.549   .     S
C130   C132    1.536   .     S
C130   C133    1.560   .     S
C131   C134    1.404   .     A
C131   C138    1.425   .     A
C132   C139    1.407   .     A
C132   C143    1.415   .     A
C133   C144    1.411   .     A
C133   C148    1.419   .     A
C134   C135    1.391   .     A
C134   H153    1.083   .     S
C135   X136    1.407   .     A
C135   H154    1.084   .     S
X136   C137    1.394   .     A
X136   X476    1.468   .     A
C137   C138    1.402   .     A
C137   H155    1.083   .     S
C138   H156    1.080   .     S
C139   C140    1.386   .     A
C139   H157    1.083   .     S
C140   X141    1.400   .     A
C140   H158    1.084   .     S
X141   C142    1.396   .     A
X141   X525    1.453   .     A
C142   C143    1.393   .     A
C142   H159    1.084   .     S
C143   H160    1.080   .     S
C144   C145    1.391   .     A
C144   H161    1.083   .     S
C145   X146    1.401   .     A
C145   H162    1.084   .     S
X146   C147    1.405   .     A
X146   X354    1.485   .     S
C147   C148    1.414   .     A
C147   H163    1.083   .     S
C148   H164    1.080   .     S
C165   C166    1.419   .     A
C165   C170    1.411   .     A
C165   C171    1.560   .     S
C166   C167    1.414   .     A
C166   H190    1.081   .     S
C167   X168    1.405   .     A
C167   H191    1.083   .     S
X168   C169    1.402   .     A
X168   X360    1.485   .     S
C169   C170    1.391   .     A
C169   H192    1.084   .     S
C170   H193    1.083   .     S
C171   C172    1.535   .     S
C171   C173    1.545   .     S
C171   C174    1.548   .     S
C172   C175    1.407   .     A
C172   C179    1.415   .     A
C173   C180    1.419   .     A
C173   C184    1.404   .     A
C174   C185    1.404   .     A
C174   C189    1.424   .     A
C175   C176    1.386   .     A
C175   H194    1.083   .     S
C176   X177    1.400   .     A
C176   H195    1.084   .     S
X177   C178    1.396   .     A
X177   X531    1.453   .     S
C178   C179    1.393   .     A
C178   H196    1.083   .     S
C179   H197    1.081   .     S
C180   C181    1.402   .     A
C180   H198    1.083   .     S
C181   X182    1.398   .     A
C181   H199    1.083   .     S
X182   C183    1.406   .     A
X182   X395    1.472   .     S
C183   C184    1.385   .     A
C183   H200    1.083   .     S
C184   H201    1.081   .     S
C185   C186    1.392   .     A
C185   H202    1.083   .     S
C186   X187    1.407   .     A
C186   H203    1.084   .     S
X187   C188    1.394   .     A
X187   X467    1.469   .     S
C188   C189    1.401   .     A
C188   H204    1.083   .     S
C189   H205    1.081   .     S
C206   C207    1.415   .     A
C206   C211    1.407   .     A
C206   C212    1.535   .     S
C207   C208    1.394   .     A
C207   H231    1.080   .     S
C208   X209    1.395   .     A
C208   H232    1.083   .     S
X209   C210    1.399   .     A
X209   X534    1.449   .     S
C210   C211    1.384   .     A
C210   H233    1.084   .     S
C211   H234    1.084   .     S
C212   C213    1.561   .     S
C212   C214    1.550   .     S
C212   C215    1.545   .     S
C213   C216    1.412   .     A
C213   C220    1.418   .     A
C214   C221    1.403   .     A
C214   C225    1.426   .     A
C215   C226    1.418   .     A
C215   C230    1.406   .     A
C216   C217    1.392   .     A
C216   H235    1.083   .     S
C217   X218    1.402   .     A
C217   H236    1.084   .     S
X218   C219    1.406   .     A
X218   X357    1.487   .     A
C219   C220    1.413   .     A
C219   H237    1.083   .     S
C220   H238    1.080   .     S
C221   C222    1.391   .     A
C221   H239    1.083   .     S
C222   X223    1.407   .     A
C222   H240    1.084   .     S
X223   C224    1.393   .     A
X223   X470    1.468   .     A
C224   C225    1.402   .     A
C224   H241    1.083   .     S
C225   H242    1.080   .     S
C226   C227    1.401   .     A
C226   H243    1.083   .     S
C227   X228    1.400   .     A
C227   H244    1.083   .     S
X228   C229    1.406   .     A
X228   X398    1.474   .     S
C229   C230    1.386   .     A
C229   H245    1.083   .     S
C230   H246    1.081   .     S
C247   C248    1.403   .     A
C247   C252    1.425   .     A
C247   C253    1.548   .     S
C248   C249    1.392   .     A
C248   H272    1.083   .     S
C249   X250    1.408   .     A
C249   H273    1.084   .     S
X250   C251    1.393   .     A
X250   X450    1.469   .     S
C251   C252    1.401   .     A
C251   H274    1.083   .     S
C252   H275    1.081   .     S
C253   C254    1.544   .     S
C253   C255    1.535   .     S
C253   C256    1.561   .     S
C254   C257    1.405   .     A
C254   C261    1.419   .     A
C255   C262    1.416   .     A
C255   C266    1.406   .     A
C256   C267    1.419   .     A
C256   C271    1.411   .     A
C257   C258    1.386   .     A
C257   H276    1.081   .     S
C258   X259    1.407   .     A
C258   H277    1.083   .     S
X259   C260    1.399   .     A
X259   X415    1.474   .     S
C260   C261    1.401   .     A
C260   H278    1.083   .     S
C261   H279    1.083   .     S
C262   C263    1.394   .     A
C262   H280    1.081   .     S
C263   X264    1.395   .     A
C263   H281    1.084   .     S
X264   C265    1.399   .     A
X264   X511    1.449   .     S
C265   C266    1.384   .     A
C265   H282    1.084   .     S
C266   H283    1.083   .     S
C267   C268    1.414   .     A
C267   H284    1.080   .     S
C268   X269    1.406   .     A
C268   H285    1.083   .     S
X269   C270    1.402   .     A
X269   X340    1.486   .     S
C270   C271    1.392   .     A
C270   H286    1.084   .     S
C271   H287    1.083   .     S
C288   C289    1.419   .     A
C288   C293    1.405   .     A
C288   C294    1.546   .     S
C289   C290    1.403   .     A
C289   H313    1.083   .     S
C290   X291    1.399   .     A
C290   H314    1.083   .     S
X291   C292    1.405   .     A
X291   X418    1.473   .     A
C292   C293    1.385   .     A
C292   H315    1.083   .     S
C293   H316    1.081   .     S
C294   C295    1.549   .     S
C294   C296    1.561   .     S
C294   C297    1.536   .     S
C295   C298    1.425   .     A
C295   C302    1.404   .     A
C296   C303    1.419   .     A
C296   C307    1.411   .     A
C297   C308    1.415   .     A
C297   C312    1.407   .     A
C298   C299    1.402   .     A
C298   H317    1.080   .     S
C299   X300    1.394   .     A
C299   H318    1.083   .     S
X300   C301    1.407   .     A
X300   X447    1.468   .     A
C301   C302    1.392   .     A
C301   H319    1.084   .     S
C302   H320    1.083   .     S
C303   C304    1.414   .     A
C303   H321    1.080   .     S
C304   X305    1.406   .     A
C304   H322    1.083   .     S
X305   C306    1.401   .     A
X305   X337    1.485   .     A
C306   C307    1.391   .     A
C306   H323    1.084   .     S
C307   H324    1.083   .     S
C308   C309    1.393   .     A
C308   H325    1.081   .     S
C309   X310    1.396   .     A
C309   H326    1.083   .     S
X310   C311    1.400   .     A
X310   X514    1.453   .     S
C311   C312    1.386   .     A
C311   H327    1.084   .     S
C312   H328    1.083   .     S
O329   X331    1.296   .     A
O329   Zr341   2.103   1_455 A
O330   X331    1.306   .     A
O330   Zr367   2.141   1_554 A
O332   Zr344   2.106   .     S
O332   X334    1.297   .     A
O333   X334    1.305   .     A
O333   Zr368   2.138   1_564 S
O335   X337    1.297   .     A
O335   Zr344   2.107   1_455 A
O336   X337    1.305   .     A
O336   Zr367   2.138   1_564 S
O338   Zr341   2.105   .     S
O338   X340    1.296   .     A
O339   X340    1.306   .     A
O339   Zr368   2.140   1_554 A
Zr341  O342    2.113   .     S
Zr341  O348    2.061   .     S
Zr341  O329    2.103   1_655 A
Zr341  Zr367   3.126   1_654 A
Zr341  Zr368   3.123   1_554 A
Zr341  O343    2.117   1_655 A
Zr341  O347    2.078   1_655 S
Zr341  O371    2.081   1_554 S
Zr341  O373    2.064   1_654 S
O342   H385    0.991   .     S
O343   Zr341   2.117   1_455 A
O343   H384    0.989   1_455 S
Zr344  O345    2.119   .     S
Zr344  O335    2.107   1_655 A
Zr344  Zr368   3.124   1_564 A
Zr344  Zr367   3.128   1_664 A
Zr344  O346    2.117   1_655 A
Zr344  O348    2.063   1_565 A
Zr344  O347    2.081   1_665 A
Zr344  O372    2.064   1_654 A
Zr344  O374    2.081   1_554 S
O345   H386    0.990   1_655 A
O346   Zr344   2.117   1_455 A
O346   H379    0.989   1_455 A
O347   Zr341   2.078   1_455 S
O347   Zr344   2.081   1_445 A
O347   Zr367   2.111   1_554 S
O348   Zr344   2.063   1_545 A
O348   Zr368   2.104   1_554 A
O348   H375    0.991   1_545 S
O349   Zr361   2.102   .     S
O349   X351    1.296   .     A
O350   Zr368   2.140   .     S
O350   X351    1.306   .     A
O352   X354    1.297   .     A
O352   Zr364   2.110   1_455 A
O353   X354    1.305   .     A
O353   Zr367   2.137   1_565 S
O355   Zr364   2.104   .     S
O355   X357    1.297   .     A
O356   X357    1.306   .     A
O356   Zr368   2.138   1_565 A
O358   X360    1.296   .     A
O358   Zr361   2.107   1_455 S
O359   Zr367   2.139   .     S
O359   X360    1.305   .     A
Zr361  Zr368   3.123   .     S
Zr361  O362    2.119   .     S
Zr361  O371    2.083   .     S
Zr361  O358    2.107   1_655 S
Zr361  Zr367   3.128   1_655 S
Zr361  O363    2.114   1_655 S
Zr361  O369    2.062   1_545 A
Zr361  O370    2.080   1_645 S
Zr361  O373    2.069   1_655 A
O362   H382    0.990   1_655 S
O363   H383    0.987   .     S
O363   Zr361   2.114   1_455 S
Zr364  O365    2.119   .     S
Zr364  O369    2.062   .     S
Zr364  O374    2.083   .     S
Zr364  O352    2.110   1_655 A
Zr364  Zr367   3.130   1_665 A
Zr364  Zr368   3.124   1_565 S
Zr364  O366    2.114   1_655 S
Zr364  O370    2.080   1_655 A
Zr364  O372    2.068   1_655 A
O365   H381    0.990   1_655 S
O366   H380    0.988   .     S
O366   Zr364   2.114   1_455 S
Zr367  O370    2.116   1_545 S
Zr367  O373    2.107   .     S
Zr367  O330    2.141   1_556 A
Zr367  O336    2.138   1_546 S
Zr367  Zr341   3.126   1_456 A
Zr367  Zr344   3.128   1_446 A
Zr367  O347    2.111   1_556 S
Zr367  O353    2.137   1_545 S
Zr367  Zr361   3.128   1_455 S
Zr367  Zr364   3.130   1_445 A
Zr367  O372    2.108   1_545 S
Zr368  O371    2.111   .     S
Zr368  O333    2.138   1_546 S
Zr368  O339    2.140   1_556 A
Zr368  Zr341   3.123   1_556 A
Zr368  Zr344   3.124   1_546 A
Zr368  O348    2.104   1_556 A
Zr368  O356    2.138   1_545 A
Zr368  Zr364   3.124   1_545 S
Zr368  O369    2.105   1_545 A
Zr368  O374    2.112   1_545 A
O369   H377    0.992   .     S
O369   Zr361   2.062   1_565 A
O369   Zr368   2.105   1_565 A
O370   Zr367   2.116   1_565 S
O370   Zr361   2.080   1_465 S
O370   Zr364   2.080   1_455 A
O371   Zr341   2.081   1_556 S
O372   H376    0.990   .     S
O372   Zr344   2.064   1_456 A
O372   Zr364   2.068   1_455 A
O372   Zr367   2.108   1_565 S
O373   H378    0.990   .     S
O373   Zr341   2.064   1_456 S
O373   Zr361   2.069   1_455 A
O374   Zr344   2.081   1_556 S
O374   Zr368   2.112   1_565 A
H375   O348    0.991   1_565 S
H379   O346    0.989   1_655 A
H381   O365    0.990   1_455 S
H382   O362    0.990   1_455 S
H384   O343    0.989   1_655 S
H386   O345    0.990   1_455 A
O387   Zr399   2.093   .     S
O387   X389    1.294   .     A
O388   Zr425   2.126   .     S
O388   X389    1.302   .     A
O390   X392    1.292   .     A
O390   Zr402   2.085   1_655 S
O391   Zr426   2.128   .     S
O391   X392    1.303   .     A
O393   Zr402   2.090   .     S
O393   X395    1.293   .     A
O394   Zr425   2.127   .     S
O394   X395    1.302   .     A
O396   X398    1.293   .     A
O396   Zr399   2.089   1_655 A
O397   Zr426   2.126   .     S
O397   X398    1.302   .     A
Zr399  Zr425   3.118   .     S
Zr399  O401    2.113   .     S
Zr399  O405    2.074   .     S
Zr399  O431    2.062   .     S
Zr399  O396    2.089   1_455 A
Zr399  Zr426   3.115   1_455 A
Zr399  O400    2.118   1_455 A
Zr399  O406    2.058   1_455 A
Zr399  O429    2.077   1_455 S
O400   Zr399   2.118   1_655 A
O400   H443    0.990   1_655 A
O401   H442    0.988   1_455 A
Zr402  Zr425   3.116   .     S
Zr402  O404    2.113   .     S
Zr402  O405    2.074   .     S
Zr402  O430    2.062   .     S
Zr402  O390    2.085   1_455 S
Zr402  Zr426   3.114   1_455 A
Zr402  O403    2.118   1_455 S
Zr402  O406    2.057   1_455 A
Zr402  O432    2.077   1_455 S
O403   Zr402   2.118   1_655 S
O403   H444    0.990   1_655 S
O404   H437    0.988   1_455 A
O405   Zr425   2.115   .     S
O406   Zr426   2.104   .     S
O406   H433    0.991   .     S
O406   Zr399   2.058   1_655 A
O406   Zr402   2.057   1_655 A
O407   X409    1.293   .     A
O407   Zr419   2.089   1_655 S
O408   Zr426   2.126   .     S
O408   X409    1.302   .     A
O410   Zr422   2.091   .     S
O410   X412    1.293   .     A
O411   Zr425   2.128   .     S
O411   X412    1.302   .     A
O413   X415    1.292   .     A
O413   Zr422   2.085   1_655 S
O414   Zr426   2.128   .     S
O414   X415    1.303   .     A
O416   Zr419   2.093   .     S
O416   X418    1.294   .     A
O417   Zr425   2.126   .     S
O417   X418    1.302   .     A
Zr419  Zr425   3.118   .     S
Zr419  O421    2.113   .     S
Zr419  O428    2.074   .     S
Zr419  O431    2.063   .     S
Zr419  O407    2.089   1_455 S
Zr419  Zr426   3.115   1_455 A
Zr419  O420    2.118   1_455 A
Zr419  O427    2.058   1_455 A
Zr419  O429    2.077   1_455 A
O420   Zr419   2.118   1_655 A
O420   H440    0.990   1_655 A
O421   H441    0.988   1_455 A
Zr422  Zr425   3.116   .     S
Zr422  O424    2.113   .     S
Zr422  O428    2.074   .     S
Zr422  O430    2.063   .     S
Zr422  O413    2.085   1_455 S
Zr422  Zr426   3.114   1_455 A
Zr422  O423    2.118   1_455 S
Zr422  O427    2.057   1_455 A
Zr422  O432    2.077   1_455 S
O423   Zr422   2.118   1_655 S
O423   H439    0.990   1_655 S
O424   H438    0.988   1_455 S
Zr425  O428    2.115   .     S
Zr425  O430    2.109   .     S
Zr425  O431    2.110   .     S
Zr426  O427    2.104   .     S
Zr426  O429    2.110   .     S
Zr426  O432    2.108   .     S
Zr426  Zr399   3.115   1_655 A
Zr426  Zr402   3.114   1_655 A
Zr426  Zr419   3.115   1_655 A
Zr426  Zr422   3.114   1_655 A
O427   H435    0.992   .     S
O427   Zr419   2.058   1_655 A
O427   Zr422   2.057   1_655 A
O429   Zr399   2.077   1_655 S
O429   Zr419   2.077   1_655 A
O430   H434    0.990   .     S
O431   H436    0.990   .     S
O432   Zr402   2.077   1_655 S
O432   Zr422   2.077   1_655 S
H437   O404    0.988   1_655 A
H438   O424    0.988   1_655 S
H439   O423    0.990   1_455 S
H440   O420    0.990   1_455 A
H441   O421    0.988   1_655 A
H442   O401    0.988   1_655 A
H443   O400    0.990   1_455 A
H444   O403    0.990   1_455 S
O445   Zr457   2.084   .     S
O445   X447    1.290   .     A
O446   Zr483   2.141   .     S
O446   X447    1.307   .     A
O448   X450    1.289   .     A
O448   Zr460   2.077   1_545 A
O449   Zr484   2.142   .     S
O449   X450    1.307   .     A
O451   Zr460   2.079   .     S
O451   X453    1.290   .     A
O452   Zr483   2.143   .     S
O452   X453    1.308   .     A
O454   X456    1.289   .     A
O454   Zr457   2.078   1_545 A
O455   Zr484   2.142   .     S
O455   X456    1.307   .     A
Zr457  Zr483   3.124   .     S
Zr457  O459    2.114   .     S
Zr457  O463    2.071   .     S
Zr457  O489    2.062   .     S
Zr457  O454    2.078   1_565 A
Zr457  Zr484   3.120   1_565 A
Zr457  O458    2.119   1_565 S
Zr457  O464    2.056   1_565 A
Zr457  O487    2.075   1_565 S
O458   Zr457   2.119   1_545 S
O458   H501    0.990   1_545 S
O459   H500    0.988   1_565 A
Zr460  Zr483   3.121   .     S
Zr460  O462    2.115   .     S
Zr460  O463    2.070   .     S
Zr460  O488    2.061   .     S
Zr460  O448    2.077   1_565 A
Zr460  Zr484   3.119   1_565 S
Zr460  O461    2.112   1_565 S
Zr460  O464    2.056   1_565 S
Zr460  O490    2.074   1_565 S
O461   H502    0.990   .     S
O461   Zr460   2.112   1_545 S
O462   H495    0.989   1_565 A
O463   Zr483   2.115   .     S
O464   Zr484   2.105   .     S
O464   H491    0.992   .     S
O464   Zr457   2.056   1_545 A
O464   Zr460   2.056   1_545 S
O465   X467    1.289   .     A
O465   Zr477   2.078   1_545 A
O466   Zr484   2.142   .     S
O466   X467    1.307   .     A
O468   Zr480   2.083   .     S
O468   X470    1.289   .     A
O469   Zr483   2.141   .     S
O469   X470    1.307   .     A
O471   X473    1.289   .     A
O471   Zr480   2.076   1_545 A
O472   Zr484   2.143   .     S
O472   X473    1.308   .     A
O474   Zr477   2.085   .     S
O474   X476    1.290   .     A
O475   Zr483   2.140   .     S
O475   X476    1.306   .     A
Zr477  Zr483   3.124   .     S
Zr477  O479    2.114   .     S
Zr477  O486    2.072   .     S
Zr477  O489    2.063   .     S
Zr477  O465    2.078   1_565 A
Zr477  Zr484   3.120   1_565 S
Zr477  O478    2.118   1_565 A
Zr477  O485    2.056   1_565 S
Zr477  O487    2.076   1_565 A
O478   Zr477   2.118   1_545 A
O478   H498    0.990   1_545 A
O479   H499    0.989   .     S
Zr480  Zr483   3.123   .     S
Zr480  O482    2.114   .     S
Zr480  O486    2.071   .     S
Zr480  O488    2.064   .     S
Zr480  O471    2.076   1_565 A
Zr480  Zr484   3.120   1_565 S
Zr480  O481    2.118   1_565 A
Zr480  O485    2.056   1_565 S
Zr480  O490    2.076   1_565 A
O481   Zr480   2.118   1_545 A
O481   H497    0.990   1_545 A
O482   H496    0.988   .     S
Zr483  O486    2.117   .     S
Zr483  O488    2.108   .     S
Zr483  O489    2.109   .     S
Zr484  O485    2.105   .     S
Zr484  O487    2.108   .     S
Zr484  O490    2.107   .     S
Zr484  Zr457   3.120   1_545 A
Zr484  Zr460   3.119   1_545 S
Zr484  Zr477   3.120   1_545 S
Zr484  Zr480   3.120   1_545 S
O485   H493    0.992   .     S
O485   Zr477   2.056   1_545 S
O485   Zr480   2.056   1_545 S
O487   Zr457   2.075   1_545 S
O487   Zr477   2.076   1_545 A
O488   H492    0.990   .     S
O489   H494    0.990   .     S
O490   Zr460   2.074   1_545 S
O490   Zr480   2.076   1_545 A
H495   O462    0.989   1_545 A
H497   O481    0.990   1_565 A
H498   O478    0.990   1_565 A
H500   O459    0.988   1_545 A
H501   O458    0.990   1_565 S
O503   Zr515   2.103   .     S
O503   X505    1.295   .     A
O504   X505    1.292   .     A
O504   Zr541   2.099   1_554 S
O506   Zr518   2.098   .     S
O506   X508    1.295   .     A
O507   X508    1.294   .     A
O507   Zr542   2.102   1_554 A
O509   Zr518   2.101   .     S
O509   X511    1.294   .     A
O510   X511    1.292   .     A
O510   Zr541   2.100   1_554 S
O512   Zr515   2.100   .     S
O512   X514    1.295   .     A
O513   X514    1.293   .     A
O513   Zr542   2.102   1_554 A
Zr515  O516    2.117   .     S
Zr515  O517    2.113   .     S
Zr515  O521    2.077   .     S
Zr515  O522    2.062   .     S
Zr515  Zr541   3.111   1_554 S
Zr515  Zr542   3.107   1_554 A
Zr515  O545    2.073   1_554 S
Zr515  O547    2.063   1_554 A
O516   H559    0.990   .     S
O517   H558    0.989   .     S
Zr518  O519    2.117   .     S
Zr518  O520    2.113   .     S
Zr518  O522    2.062   .     S
Zr518  O521    2.077   .     S
Zr518  Zr542   3.106   1_554 S
Zr518  Zr541   3.110   1_554 S
Zr518  O546    2.063   1_554 S
Zr518  O548    2.073   1_554 S
O519   H560    0.990   .     S
O520   H553    0.989   .     S
O521   Zr541   2.114   1_554 S
O522   H549    0.992   .     S
O522   Zr542   2.104   1_554 A
O523   Zr535   2.100   .     S
O523   X525    1.295   .     A
O524   Zr542   2.102   .     S
O524   X525    1.293   .     A
O526   Zr538   2.101   .     S
O526   X528    1.294   .     A
O527   Zr541   2.100   .     S
O527   X528    1.292   .     A
O529   Zr538   2.097   .     S
O529   X531    1.294   .     A
O530   Zr542   2.102   .     S
O530   X531    1.293   .     A
O532   Zr535   2.103   .     S
O532   X534    1.295   .     A
O533   Zr541   2.099   .     S
O533   X534    1.292   .     A
Zr535  Zr542   3.107   .     S
Zr535  Zr541   3.111   .     S
Zr535  O536    2.117   .     S
Zr535  O537    2.113   .     S
Zr535  O543    2.062   .     S
Zr535  O544    2.077   .     S
Zr535  O547    2.062   .     S
Zr535  O545    2.072   .     S
O536   H556    0.990   .     S
O537   H557    0.989   .     S
Zr538  Zr541   3.110   .     S
Zr538  Zr542   3.106   .     S
Zr538  O539    2.117   .     S
Zr538  O540    2.113   .     S
Zr538  O544    2.077   .     S
Zr538  O543    2.061   .     S
Zr538  O548    2.073   .     S
Zr538  O546    2.063   .     S
O539   H555    0.990   .     S
O540   H554    0.989   .     S
Zr541  O544    2.114   .     S
Zr541  O546    2.108   .     S
Zr541  O547    2.109   .     S
Zr541  O504    2.099   1_556 S
Zr541  O510    2.100   1_556 S
Zr541  Zr515   3.111   1_556 S
Zr541  Zr518   3.110   1_556 S
Zr541  O521    2.114   1_556 S
Zr542  O543    2.104   .     S
Zr542  O545    2.109   .     S
Zr542  O548    2.108   .     S
Zr542  O507    2.102   1_556 A
Zr542  O513    2.102   1_556 A
Zr542  Zr515   3.107   1_556 A
Zr542  Zr518   3.106   1_556 S
Zr542  O522    2.104   1_556 A
O543   H551    0.992   .     S
O545   Zr515   2.073   1_556 S
O546   H550    0.991   .     S
O546   Zr518   2.063   1_556 S
O547   H552    0.990   .     S
O547   Zr515   2.063   1_556 A
O548   Zr518   2.073   1_556 S
