data_ja512973b_si_002_auto
_audit_creation_date              2018-09-04
_audit_creation_method            'Materials Studio'
_symmetry_space_group_name_H-M    'P1'
_symmetry_Int_Tables_number       1
_symmetry_cell_setting            triclinic
loop_
_symmetry_equiv_pos_as_xyz
  x,y,z
_cell_length_a                    24.3050
_cell_length_b                    24.3050
_cell_length_c                    24.3050
_cell_angle_alpha                 90.0000
_cell_angle_beta                  90.0000
_cell_angle_gamma                 90.0000
loop_
_atom_site_label
_atom_site_type_symbol
_atom_site_fract_x
_atom_site_fract_y
_atom_site_fract_z
_atom_site_U_iso_or_equiv
_atom_site_adp_type
_atom_site_occupancy
X1     C     0.38476   0.98896   0.44475   0.00000  Uiso   1.00
C2     C     0.35648   0.98832   0.49492   0.00000  Uiso   1.00
X3     C     0.38462   0.98914   0.54513   0.00000  Uiso   1.00
C4     C     0.44282   0.99051   0.54555   0.00000  Uiso   1.00
C5     C     0.47201   0.99100   0.49500   0.00000  Uiso   1.00
C6     C     0.44292   0.99022   0.44442   0.00000  Uiso   1.00
C7     C     0.47272   0.99009   0.39484   0.00000  Uiso   1.00
C8     C     0.52996   0.99124   0.39488   0.00000  Uiso   1.00
C9     C     0.55963   0.99200   0.44451   0.00000  Uiso   1.00
C10    C     0.53044   0.99197   0.49504   0.00000  Uiso   1.00
C11    C     0.47252   0.99121   0.59517   0.00000  Uiso   1.00
C12    C     0.52976   0.99292   0.59521   0.00000  Uiso   1.00
C13    C     0.55954   0.99305   0.54562   0.00000  Uiso   1.00
X14    C     0.61769   0.99473   0.54526   0.00000  Uiso   1.00
C15    C     0.64597   0.99459   0.49509   0.00000  Uiso   1.00
X16    C     0.61782   0.99287   0.44491   0.00000  Uiso   1.00
H17    H     0.45206   0.98895   0.35541   0.00000  Uiso   1.00
H18    H     0.55075   0.99145   0.35550   0.00000  Uiso   1.00
H19    H     0.45176   0.99065   0.63455   0.00000  Uiso   1.00
H20    H     0.55045   0.99405   0.63462   0.00000  Uiso   1.00
H21    H     0.31186   0.98722   0.49487   0.00000  Uiso   1.00
H22    H     0.69059   0.99565   0.49513   0.00000  Uiso   1.00
X23    C     0.38538   0.44073   0.99271   0.00000  Uiso   1.00
C24    C     0.35695   0.49080   0.99434   0.00000  Uiso   1.00
X25    C     0.38493   0.54109   0.99586   0.00000  Uiso   1.00
C26    C     0.44312   0.54167   0.99709   0.00000  Uiso   1.00
C27    C     0.47249   0.49127   0.99524   0.00000  Uiso   1.00
C28    C     0.44358   0.44062   0.99273   0.00000  Uiso   1.00
C29    C     0.47358   0.39126   0.98956   0.00000  Uiso   1.00
C30    C     0.53085   0.39153   0.98964   0.00000  Uiso   1.00
C31    C     0.56035   0.44116   0.99301   0.00000  Uiso   1.00
C32    C     0.53094   0.49152   0.99558   0.00000  Uiso   1.00
C33    C     0.47262   0.59133   0.00016   0.00000  Uiso   1.00
C34    C     0.52989   0.59156   0.00075   0.00000  Uiso   1.00
C35    C     0.55984   0.54215   0.99816   0.00000  Uiso   1.00
X36    C     0.61803   0.54204   0.99808   0.00000  Uiso   1.00
C37    C     0.64651   0.49207   0.99593   0.00000  Uiso   1.00
X38    C     0.61854   0.44182   0.99318   0.00000  Uiso   1.00
H39    H     0.45303   0.35187   0.98663   0.00000  Uiso   1.00
H40    H     0.55181   0.35234   0.98685   0.00000  Uiso   1.00
H41    H     0.45163   0.63056   0.00222   0.00000  Uiso   1.00
H42    H     0.55051   0.63096   0.00317   0.00000  Uiso   1.00
H43    H     0.31231   0.49061   0.99390   0.00000  Uiso   1.00
H44    H     0.69114   0.49230   0.99586   0.00000  Uiso   1.00
X45    C     0.99992   0.44242   0.37749   0.00000  Uiso   1.00
C46    C     0.99906   0.49295   0.34986   0.00000  Uiso   1.00
X47    C     0.99870   0.54284   0.37863   0.00000  Uiso   1.00
C48    C     0.99892   0.54256   0.43685   0.00000  Uiso   1.00
C49    C     0.99937   0.49167   0.46544   0.00000  Uiso   1.00
C50    C     0.99939   0.44143   0.43571   0.00000  Uiso   1.00
C51    C     0.99830   0.39151   0.46491   0.00000  Uiso   1.00
C52    C     0.99778   0.39088   0.52217   0.00000  Uiso   1.00
C53    C     0.99864   0.44014   0.55249   0.00000  Uiso   1.00
C54    C     0.99932   0.49103   0.52391   0.00000  Uiso   1.00
C55    C     0.99810   0.59182   0.46716   0.00000  Uiso   1.00
C56    C     0.99847   0.59120   0.52443   0.00000  Uiso   1.00
C57    C     0.99939   0.54128   0.55363   0.00000  Uiso   1.00
X58    C     0.99982   0.54029   0.61186   0.00000  Uiso   1.00
C59    C     0.99875   0.48976   0.63947   0.00000  Uiso   1.00
X60    C     0.99792   0.43987   0.61068   0.00000  Uiso   1.00
H61    H     0.99751   0.35237   0.44369   0.00000  Uiso   1.00
H62    H     0.99655   0.35127   0.54247   0.00000  Uiso   1.00
H63    H     0.99713   0.63143   0.44685   0.00000  Uiso   1.00
H64    H     0.99774   0.63035   0.54563   0.00000  Uiso   1.00
H65    H     0.99901   0.49347   0.30523   0.00000  Uiso   1.00
H66    H     0.99847   0.48922   0.68410   0.00000  Uiso   1.00
O67    O     0.85925   0.99286   0.91977   0.00000  Uiso   1.00
O68    O     0.14345   0.98795   0.91973   0.00000  Uiso   1.00
O69    O     0.99990   0.06459   0.85237   0.00000  Uiso   1.00
O70    O     0.00250   0.91464   0.85407   0.00000  Uiso   1.00
O71    O     0.00234   0.84939   0.92273   0.00000  Uiso   1.00
O72    O     0.99959   0.13137   0.91957   0.00000  Uiso   1.00
O73    O     0.07548   0.98680   0.85344   0.00000  Uiso   1.00
O74    O     0.92719   0.99230   0.85346   0.00000  Uiso   1.00
Zr75   Zr    0.00134   0.99011   0.89805   0.00000  Uiso   1.00
O76    O     0.05142   0.94088   0.94552   0.00000  Uiso   1.00
O77    O     0.95134   0.04040   0.94447   0.00000  Uiso   1.00
X78    C     0.87610   0.99361   0.86893   0.00000  Uiso   1.00
X79    C     0.12657   0.98591   0.86893   0.00000  Uiso   1.00
X80    C     0.99866   0.11558   0.86865   0.00000  Uiso   1.00
X81    C     0.00300   0.86401   0.87143   0.00000  Uiso   1.00
H82    H     0.07491   0.06312   0.92074   0.00000  Uiso   1.00
O83    O     0.05157   0.03984   0.94457   0.00000  Uiso   1.00
H84    H     0.92757   0.91767   0.92263   0.00000  Uiso   1.00
O85    O     0.95106   0.94152   0.94575   0.00000  Uiso   1.00
O86    O     0.14348   0.99327   0.07017   0.00000  Uiso   1.00
O87    O     0.85931   0.99100   0.07037   0.00000  Uiso   1.00
O88    O     0.07568   0.13201   0.99489   0.00000  Uiso   1.00
O89    O     0.07459   0.84997   0.99484   0.00000  Uiso   1.00
O90    O     0.92707   0.85061   0.99888   0.00000  Uiso   1.00
O91    O     0.92806   0.13252   0.99109   0.00000  Uiso   1.00
O92    O     0.00343   0.06793   0.13562   0.00000  Uiso   1.00
O93    O     0.99897   0.91798   0.13732   0.00000  Uiso   1.00
O94    O     0.00350   0.13318   0.06697   0.00000  Uiso   1.00
O95    O     0.99829   0.85117   0.07014   0.00000  Uiso   1.00
O96    O     0.14372   0.06599   0.99579   0.00000  Uiso   1.00
O97    O     0.85958   0.06693   0.99237   0.00000  Uiso   1.00
O98    O     0.85900   0.91660   0.99795   0.00000  Uiso   1.00
O99    O     0.14315   0.91546   0.99411   0.00000  Uiso   1.00
O100   O     0.07547   0.99414   0.13637   0.00000  Uiso   1.00
O101   O     0.92743   0.99167   0.13647   0.00000  Uiso   1.00
Zr102  Zr    0.09913   0.99091   0.99492   0.00000  Uiso   1.00
Zr103  Zr    0.90359   0.99161   0.99500   0.00000  Uiso   1.00
Zr104  Zr    0.00173   0.08706   0.99378   0.00000  Uiso   1.00
Zr105  Zr    0.00097   0.89550   0.99595   0.00000  Uiso   1.00
Zr106  Zr    0.00143   0.99244   0.09170   0.00000  Uiso   1.00
O107   O     0.95100   0.94248   0.04542   0.00000  Uiso   1.00
O108   O     0.05189   0.04136   0.04430   0.00000  Uiso   1.00
X109   C     0.12658   0.99440   0.12100   0.00000  Uiso   1.00
X110   C     0.87629   0.99098   0.12120   0.00000  Uiso   1.00
X111   C     0.12682   0.11680   0.99586   0.00000  Uiso   1.00
X112   C     0.12586   0.86478   0.99400   0.00000  Uiso   1.00
X113   C     0.87596   0.86586   0.99986   0.00000  Uiso   1.00
X114   C     0.87682   0.11758   0.99056   0.00000  Uiso   1.00
X115   C     0.00414   0.11857   0.11826   0.00000  Uiso   1.00
X116   C     0.99722   0.86702   0.12104   0.00000  Uiso   1.00
H117   H     0.92838   0.06550   0.06715   0.00000  Uiso   1.00
O118   O     0.95157   0.04140   0.04401   0.00000  Uiso   1.00
H119   H     0.07420   0.91868   0.06894   0.00000  Uiso   1.00
O120   O     0.05116   0.94229   0.04514   0.00000  Uiso   1.00
C121   C     0.28537   0.99251   0.29836   0.00000  Uiso   1.00
C122   C     0.29088   0.94342   0.32820   0.00000  Uiso   1.00
C123   C     0.32413   0.94058   0.37523   0.00000  Uiso   1.00
X124   C     0.35194   0.98836   0.39330   0.00000  Uiso   1.00
C125   C     0.34696   0.03735   0.36314   0.00000  Uiso   1.00
C126   C     0.31400   0.03999   0.31574   0.00000  Uiso   1.00
C127   C     0.24570   0.99402   0.25223   0.00000  Uiso   1.00
C128   C     0.18954   0.98831   0.26345   0.00000  Uiso   1.00
C129   C     0.15121   0.98889   0.22082   0.00000  Uiso   1.00
X130   C     0.16821   0.99479   0.16572   0.00000  Uiso   1.00
C131   C     0.22477   0.00031   0.15450   0.00000  Uiso   1.00
C132   C     0.26324   0.99994   0.19751   0.00000  Uiso   1.00
C133   C     0.32858   0.88608   0.40451   0.00000  Uiso   1.00
H134   H     0.36827   0.07385   0.37738   0.00000  Uiso   1.00
H135   H     0.10814   0.98425   0.23124   0.00000  Uiso   1.00
H136   H     0.23929   0.00483   0.11263   0.00000  Uiso   1.00
C137   C     0.30800   0.09391   0.28576   0.00000  Uiso   1.00
H138   H     0.17536   0.98352   0.30545   0.00000  Uiso   1.00
H139   H     0.26864   0.90709   0.31489   0.00000  Uiso   1.00
H140   H     0.30663   0.00376   0.18814   0.00000  Uiso   1.00
H141   H     0.34266   0.85409   0.37508   0.00000  Uiso   1.00
H142   H     0.28759   0.87415   0.42078   0.00000  Uiso   1.00
H143   H     0.35817   0.88675   0.43919   0.00000  Uiso   1.00
H144   H     0.33118   0.12743   0.30645   0.00000  Uiso   1.00
H145   H     0.26397   0.10598   0.28424   0.00000  Uiso   1.00
H146   H     0.32407   0.08991   0.24323   0.00000  Uiso   1.00
C147   C     0.71796   0.99556   0.29899   0.00000  Uiso   1.00
C148   C     0.69216   0.94651   0.31495   0.00000  Uiso   1.00
C149   C     0.65897   0.94427   0.36216   0.00000  Uiso   1.00
X150   C     0.65081   0.99262   0.39356   0.00000  Uiso   1.00
C151   C     0.67544   0.04198   0.37671   0.00000  Uiso   1.00
C152   C     0.70896   0.04406   0.32975   0.00000  Uiso   1.00
C153   C     0.75753   0.99421   0.25280   0.00000  Uiso   1.00
C154   C     0.73973   0.98788   0.19823   0.00000  Uiso   1.00
C155   C     0.77805   0.98677   0.15507   0.00000  Uiso   1.00
X156   C     0.83475   0.99139   0.16606   0.00000  Uiso   1.00
C157   C     0.85203   0.99690   0.22112   0.00000  Uiso   1.00
C158   C     0.81387   0.99821   0.26389   0.00000  Uiso   1.00
C159   C     0.63446   0.88953   0.37793   0.00000  Uiso   1.00
H160   H     0.66873   0.07893   0.40080   0.00000  Uiso   1.00
H161   H     0.76332   0.98225   0.11327   0.00000  Uiso   1.00
H162   H     0.89522   0.00050   0.23145   0.00000  Uiso   1.00
C163   C     0.73437   0.09802   0.31284   0.00000  Uiso   1.00
H164   H     0.69626   0.98428   0.18912   0.00000  Uiso   1.00
H165   H     0.69941   0.90930   0.29141   0.00000  Uiso   1.00
H166   H     0.82830   0.00232   0.30586   0.00000  Uiso   1.00
H167   H     0.66787   0.85883   0.38326   0.00000  Uiso   1.00
H168   H     0.60647   0.87530   0.34475   0.00000  Uiso   1.00
H169   H     0.61074   0.89109   0.41683   0.00000  Uiso   1.00
H170   H     0.72036   0.13239   0.33950   0.00000  Uiso   1.00
H171   H     0.72259   0.10779   0.26979   0.00000  Uiso   1.00
H172   H     0.77984   0.09557   0.31585   0.00000  Uiso   1.00
C173   C     0.71728   0.99569   0.69157   0.00000  Uiso   1.00
C174   C     0.70954   0.04447   0.66171   0.00000  Uiso   1.00
C175   C     0.67620   0.04577   0.61465   0.00000  Uiso   1.00
X176   C     0.65052   0.99679   0.59664   0.00000  Uiso   1.00
C177   C     0.65775   0.94809   0.62677   0.00000  Uiso   1.00
C178   C     0.69087   0.94693   0.67411   0.00000  Uiso   1.00
C179   C     0.75687   0.99596   0.73783   0.00000  Uiso   1.00
C180   C     0.73962   0.98757   0.79232   0.00000  Uiso   1.00
C181   C     0.77806   0.98732   0.83532   0.00000  Uiso   1.00
X182   C     0.83436   0.99541   0.82438   0.00000  Uiso   1.00
C183   C     0.85103   0.00464   0.76965   0.00000  Uiso   1.00
C184   C     0.81269   0.00506   0.72698   0.00000  Uiso   1.00
C185   C     0.66946   0.09994   0.58520   0.00000  Uiso   1.00
H186   H     0.63809   0.91067   0.61253   0.00000  Uiso   1.00
H187   H     0.76379   0.98026   0.87694   0.00000  Uiso   1.00
H188   H     0.89389   0.01151   0.75956   0.00000  Uiso   1.00
C189   C     0.69948   0.89322   0.70385   0.00000  Uiso   1.00
H190   H     0.69647   0.98128   0.80149   0.00000  Uiso   1.00
H191   H     0.73009   0.08178   0.67500   0.00000  Uiso   1.00
H192   H     0.82667   0.01191   0.68520   0.00000  Uiso   1.00
H193   H     0.71000   0.11379   0.56933   0.00000  Uiso   1.00
H194   H     0.65355   0.13126   0.61441   0.00000  Uiso   1.00
H195   H     0.64035   0.09777   0.55017   0.00000  Uiso   1.00
H196   H     0.68291   0.89610   0.74628   0.00000  Uiso   1.00
H197   H     0.74408   0.88345   0.70563   0.00000  Uiso   1.00
H198   H     0.67826   0.85865   0.68282   0.00000  Uiso   1.00
C199   C     0.28549   0.97996   0.69167   0.00000  Uiso   1.00
C200   C     0.31019   0.03003   0.67688   0.00000  Uiso   1.00
C201   C     0.34290   0.03444   0.62949   0.00000  Uiso   1.00
X202   C     0.35165   0.98734   0.59646   0.00000  Uiso   1.00
C203   C     0.32802   0.93705   0.61188   0.00000  Uiso   1.00
C204   C     0.29546   0.93258   0.65929   0.00000  Uiso   1.00
C205   C     0.24586   0.97972   0.73798   0.00000  Uiso   1.00
C206   C     0.19035   0.96798   0.72783   0.00000  Uiso   1.00
C207   C     0.15204   0.96947   0.77052   0.00000  Uiso   1.00
X208   C     0.16832   0.98295   0.82446   0.00000  Uiso   1.00
C209   C     0.22414   0.99452   0.83463   0.00000  Uiso   1.00
C210   C     0.26254   0.99331   0.79159   0.00000  Uiso   1.00
C211   C     0.36628   0.09010   0.61529   0.00000  Uiso   1.00
H212   H     0.33521   0.90091   0.58671   0.00000  Uiso   1.00
H213   H     0.10950   0.96012   0.76109   0.00000  Uiso   1.00
H214   H     0.23799   0.00532   0.87558   0.00000  Uiso   1.00
C215   C     0.27302   0.87662   0.67386   0.00000  Uiso   1.00
H216   H     0.17663   0.95805   0.68660   0.00000  Uiso   1.00
H217   H     0.30234   0.06643   0.70147   0.00000  Uiso   1.00
H218   H     0.30522   0.00294   0.80003   0.00000  Uiso   1.00
H219   H     0.39429   0.10377   0.64869   0.00000  Uiso   1.00
H220   H     0.33227   0.12033   0.61122   0.00000  Uiso   1.00
H221   H     0.38969   0.09021   0.57618   0.00000  Uiso   1.00
H222   H     0.24237   0.86383   0.64250   0.00000  Uiso   1.00
H223   H     0.25332   0.87553   0.71497   0.00000  Uiso   1.00
H224   H     0.30709   0.84617   0.67447   0.00000  Uiso   1.00
C225   C     0.28577   0.29431   0.99428   0.00000  Uiso   1.00
C226   C     0.28979   0.32588   0.94612   0.00000  Uiso   1.00
C227   C     0.32316   0.37288   0.94382   0.00000  Uiso   1.00
X228   C     0.35266   0.38918   0.99123   0.00000  Uiso   1.00
C229   C     0.34920   0.35727   0.03924   0.00000  Uiso   1.00
C230   C     0.31610   0.30993   0.04135   0.00000  Uiso   1.00
C231   C     0.24604   0.24814   0.99546   0.00000  Uiso   1.00
C232   C     0.26362   0.19328   0.99985   0.00000  Uiso   1.00
C233   C     0.22513   0.15028   0.00019   0.00000  Uiso   1.00
X234   C     0.16846   0.16157   0.99607   0.00000  Uiso   1.00
C235   C     0.15139   0.21680   0.99159   0.00000  Uiso   1.00
C236   C     0.18975   0.25945   0.99111   0.00000  Uiso   1.00
C237   C     0.32590   0.40407   0.89027   0.00000  Uiso   1.00
H238   H     0.37175   0.37016   0.07550   0.00000  Uiso   1.00
H239   H     0.23975   0.10833   0.00355   0.00000  Uiso   1.00
H240   H     0.10824   0.22731   0.98816   0.00000  Uiso   1.00
C241   C     0.31171   0.27821   0.09442   0.00000  Uiso   1.00
H242   H     0.30707   0.18379   0.00253   0.00000  Uiso   1.00
H243   H     0.26631   0.31393   0.91010   0.00000  Uiso   1.00
H244   H     0.17548   0.30153   0.98751   0.00000  Uiso   1.00
H245   H     0.28464   0.42101   0.88039   0.00000  Uiso   1.00
H246   H     0.33863   0.37572   0.85678   0.00000  Uiso   1.00
H247   H     0.35577   0.43851   0.89113   0.00000  Uiso   1.00
H248   H     0.32767   0.23585   0.08859   0.00000  Uiso   1.00
H249   H     0.26805   0.27626   0.10775   0.00000  Uiso   1.00
H250   H     0.33586   0.29783   0.12789   0.00000  Uiso   1.00
C251   C     0.28361   0.68629   0.99856   0.00000  Uiso   1.00
C252   C     0.31160   0.67190   0.95022   0.00000  Uiso   1.00
C253   C     0.34527   0.62501   0.94807   0.00000  Uiso   1.00
X254   C     0.35172   0.59233   0.99583   0.00000  Uiso   1.00
C255   C     0.32488   0.60759   0.04455   0.00000  Uiso   1.00
C256   C     0.29087   0.65423   0.04652   0.00000  Uiso   1.00
C257   C     0.24408   0.73256   0.99696   0.00000  Uiso   1.00
C258   C     0.18759   0.72158   0.99891   0.00000  Uiso   1.00
C259   C     0.14957   0.76452   0.99758   0.00000  Uiso   1.00
X260   C     0.16716   0.81966   0.99409   0.00000  Uiso   1.00
C261   C     0.22401   0.83053   0.99133   0.00000  Uiso   1.00
C262   C     0.26217   0.78722   0.99250   0.00000  Uiso   1.00
C263   C     0.37209   0.61091   0.89395   0.00000  Uiso   1.00
H264   H     0.33023   0.58252   0.08106   0.00000  Uiso   1.00
H265   H     0.10626   0.75429   0.99957   0.00000  Uiso   1.00
H266   H     0.23901   0.87237   0.98840   0.00000  Uiso   1.00
C267   C     0.26315   0.66945   0.09985   0.00000  Uiso   1.00
H268   H     0.17293   0.67957   0.00149   0.00000  Uiso   1.00
H269   H     0.30576   0.69644   0.91342   0.00000  Uiso   1.00
H270   H     0.30574   0.79629   0.99046   0.00000  Uiso   1.00
H271   H     0.40039   0.64464   0.88179   0.00000  Uiso   1.00
H272   H     0.33998   0.60623   0.86179   0.00000  Uiso   1.00
H273   H     0.39600   0.57212   0.89537   0.00000  Uiso   1.00
H274   H     0.21785   0.66612   0.09548   0.00000  Uiso   1.00
H275   H     0.27412   0.71231   0.11124   0.00000  Uiso   1.00
H276   H     0.27603   0.64198   0.13403   0.00000  Uiso   1.00
C277   C     0.71797   0.68785   0.00611   0.00000  Uiso   1.00
C278   C     0.69325   0.67283   0.95618   0.00000  Uiso   1.00
C279   C     0.65999   0.62580   0.95230   0.00000  Uiso   1.00
X280   C     0.65073   0.59351   0.99981   0.00000  Uiso   1.00
C281   C     0.67410   0.60942   0.05008   0.00000  Uiso   1.00
C282   C     0.70762   0.65631   0.05386   0.00000  Uiso   1.00
C283   C     0.75737   0.73427   0.00640   0.00000  Uiso   1.00
C284   C     0.73979   0.78840   0.99659   0.00000  Uiso   1.00
C285   C     0.77799   0.83163   0.99515   0.00000  Uiso   1.00
X286   C     0.83443   0.82114   0.00281   0.00000  Uiso   1.00
C287   C     0.85155   0.76662   0.01251   0.00000  Uiso   1.00
C288   C     0.81347   0.72376   0.01409   0.00000  Uiso   1.00
C289   C     0.63653   0.61118   0.89678   0.00000  Uiso   1.00
H290   H     0.66644   0.58467   0.08639   0.00000  Uiso   1.00
H291   H     0.76344   0.87301   0.98735   0.00000  Uiso   1.00
H292   H     0.89457   0.75679   0.01864   0.00000  Uiso   1.00
C293   C     0.73130   0.67240   0.10886   0.00000  Uiso   1.00
H294   H     0.69658   0.79708   0.99001   0.00000  Uiso   1.00
H295   H     0.70137   0.69702   0.91957   0.00000  Uiso   1.00
H296   H     0.82789   0.68209   0.02066   0.00000  Uiso   1.00
H297   H     0.67058   0.60578   0.86680   0.00000  Uiso   1.00
H298   H     0.60938   0.64497   0.88239   0.00000  Uiso   1.00
H299   H     0.61215   0.57266   0.89721   0.00000  Uiso   1.00
H300   H     0.71970   0.71549   0.11865   0.00000  Uiso   1.00
H301   H     0.77677   0.66880   0.10810   0.00000  Uiso   1.00
H302   H     0.71571   0.64561   0.14244   0.00000  Uiso   1.00
C303   C     0.71895   0.29600   0.98987   0.00000  Uiso   1.00
C304   C     0.71223   0.32744   0.94192   0.00000  Uiso   1.00
C305   C     0.67873   0.37441   0.94136   0.00000  Uiso   1.00
X306   C     0.65172   0.39068   0.99024   0.00000  Uiso   1.00
C307   C     0.65798   0.35904   0.03810   0.00000  Uiso   1.00
C308   C     0.69136   0.31185   0.03856   0.00000  Uiso   1.00
C309   C     0.75837   0.24952   0.98892   0.00000  Uiso   1.00
C310   C     0.81435   0.26017   0.98044   0.00000  Uiso   1.00
C311   C     0.85245   0.21724   0.98047   0.00000  Uiso   1.00
X312   C     0.83538   0.16247   0.98871   0.00000  Uiso   1.00
C313   C     0.77894   0.15176   0.99605   0.00000  Uiso   1.00
C314   C     0.74075   0.19498   0.99612   0.00000  Uiso   1.00
C315   C     0.67320   0.40564   0.88805   0.00000  Uiso   1.00
H316   H     0.63737   0.37199   0.07548   0.00000  Uiso   1.00
H317   H     0.89544   0.22719   0.97423   0.00000  Uiso   1.00
H318   H     0.76433   0.11014   0.00229   0.00000  Uiso   1.00
C319   C     0.69899   0.28061   0.09156   0.00000  Uiso   1.00
H320   H     0.82863   0.30197   0.97447   0.00000  Uiso   1.00
H321   H     0.73367   0.31541   0.90468   0.00000  Uiso   1.00
H322   H     0.69749   0.18592   0.00178   0.00000  Uiso   1.00
H323   H     0.65808   0.37747   0.85542   0.00000  Uiso   1.00
H324   H     0.71402   0.42201   0.87569   0.00000  Uiso   1.00
H325   H     0.64399   0.44056   0.89070   0.00000  Uiso   1.00
H326   H     0.67721   0.30073   0.12634   0.00000  Uiso   1.00
H327   H     0.74340   0.27847   0.10206   0.00000  Uiso   1.00
H328   H     0.68237   0.23833   0.08727   0.00000  Uiso   1.00
C329   C     0.99933   0.29743   0.27564   0.00000  Uiso   1.00
C330   C     0.04743   0.31235   0.30376   0.00000  Uiso   1.00
C331   C     0.04898   0.35924   0.33748   0.00000  Uiso   1.00
X332   C     0.00082   0.39138   0.34389   0.00000  Uiso   1.00
C333   C     0.95238   0.37564   0.31677   0.00000  Uiso   1.00
C334   C     0.95104   0.32903   0.28269   0.00000  Uiso   1.00
C335   C     0.00144   0.25108   0.23620   0.00000  Uiso   1.00
C336   C     0.00512   0.19642   0.25444   0.00000  Uiso   1.00
C337   C     0.00633   0.15302   0.21638   0.00000  Uiso   1.00
X338   C     0.00439   0.16379   0.15947   0.00000  Uiso   1.00
C339   C     0.00176   0.21894   0.14174   0.00000  Uiso   1.00
C340   C     0.00036   0.26197   0.17967   0.00000  Uiso   1.00
C341   C     0.10287   0.37391   0.36443   0.00000  Uiso   1.00
H342   H     0.91557   0.40028   0.32204   0.00000  Uiso   1.00
H343   H     0.00856   0.11117   0.23149   0.00000  Uiso   1.00
H344   H     0.00038   0.22909   0.09838   0.00000  Uiso   1.00
C345   C     0.89803   0.31334   0.25464   0.00000  Uiso   1.00
H346   H     0.00641   0.18741   0.29806   0.00000  Uiso   1.00
H347   H     0.08450   0.28819   0.29803   0.00000  Uiso   1.00
H348   H     0.99826   0.30398   0.16491   0.00000  Uiso   1.00
H349   H     0.13511   0.37873   0.33242   0.00000  Uiso   1.00
H350   H     0.11522   0.34041   0.39292   0.00000  Uiso   1.00
H351   H     0.10103   0.41280   0.38815   0.00000  Uiso   1.00
H352   H     0.88685   0.27044   0.26566   0.00000  Uiso   1.00
H353   H     0.90272   0.31655   0.20935   0.00000  Uiso   1.00
H354   H     0.86356   0.34062   0.26716   0.00000  Uiso   1.00
C355   C     0.99649   0.29262   0.70916   0.00000  Uiso   1.00
C356   C     0.94797   0.32309   0.70213   0.00000  Uiso   1.00
C357   C     0.94682   0.37042   0.66915   0.00000  Uiso   1.00
X358   C     0.99569   0.38811   0.64302   0.00000  Uiso   1.00
C359   C     0.04410   0.35732   0.64942   0.00000  Uiso   1.00
C360   C     0.04513   0.30972   0.68224   0.00000  Uiso   1.00
C361   C     0.99622   0.24633   0.74883   0.00000  Uiso   1.00
C362   C     0.00435   0.19173   0.73172   0.00000  Uiso   1.00
C363   C     0.00459   0.14879   0.77031   0.00000  Uiso   1.00
X364   C     0.99674   0.15992   0.82661   0.00000  Uiso   1.00
C365   C     0.98769   0.21475   0.84311   0.00000  Uiso   1.00
C366   C     0.98730   0.25731   0.80465   0.00000  Uiso   1.00
C367   C     0.89291   0.40053   0.66331   0.00000  Uiso   1.00
H368   H     0.08145   0.37128   0.62943   0.00000  Uiso   1.00
H369   H     0.01144   0.10710   0.75617   0.00000  Uiso   1.00
H370   H     0.98098   0.22502   0.88594   0.00000  Uiso   1.00
C371   C     0.09861   0.27937   0.69005   0.00000  Uiso   1.00
H372   H     0.01043   0.18240   0.68859   0.00000  Uiso   1.00
H373   H     0.91076   0.31012   0.72307   0.00000  Uiso   1.00
H374   H     0.98062   0.29914   0.81856   0.00000  Uiso   1.00
H375   H     0.87977   0.41629   0.70412   0.00000  Uiso   1.00
H376   H     0.86105   0.37178   0.64762   0.00000  Uiso   1.00
H377   H     0.89510   0.43571   0.63439   0.00000  Uiso   1.00
H378   H     0.09512   0.23710   0.67321   0.00000  Uiso   1.00
H379   H     0.10886   0.27719   0.73452   0.00000  Uiso   1.00
H380   H     0.13316   0.30019   0.66858   0.00000  Uiso   1.00
C381   C     0.99850   0.68516   0.71393   0.00000  Uiso   1.00
C382   C     0.04668   0.67053   0.68577   0.00000  Uiso   1.00
C383   C     0.04847   0.62371   0.65196   0.00000  Uiso   1.00
X384   C     0.00049   0.59132   0.64549   0.00000  Uiso   1.00
C385   C     0.95196   0.60679   0.67260   0.00000  Uiso   1.00
C386   C     0.95036   0.65335   0.70674   0.00000  Uiso   1.00
C387   C     0.00037   0.73150   0.75343   0.00000  Uiso   1.00
C388   C     0.00518   0.78612   0.73528   0.00000  Uiso   1.00
C389   C     0.00630   0.82951   0.77336   0.00000  Uiso   1.00
X390   C     0.00312   0.81878   0.83022   0.00000  Uiso   1.00
C391   C     0.99938   0.76369   0.84789   0.00000  Uiso   1.00
C392   C     0.99811   0.72067   0.80994   0.00000  Uiso   1.00
C393   C     0.10244   0.60938   0.62497   0.00000  Uiso   1.00
H394   H     0.91528   0.58198   0.66726   0.00000  Uiso   1.00
H395   H     0.00950   0.87131   0.75829   0.00000  Uiso   1.00
H396   H     0.99707   0.75357   0.89122   0.00000  Uiso   1.00
C397   C     0.89716   0.66880   0.73460   0.00000  Uiso   1.00
H398   H     0.00747   0.79511   0.69169   0.00000  Uiso   1.00
H399   H     0.08363   0.69487   0.69155   0.00000  Uiso   1.00
H400   H     0.99526   0.67870   0.82468   0.00000  Uiso   1.00
H401   H     0.13471   0.60468   0.65696   0.00000  Uiso   1.00
H402   H     0.11460   0.64302   0.59655   0.00000  Uiso   1.00
H403   H     0.10080   0.57054   0.60117   0.00000  Uiso   1.00
H404   H     0.86280   0.64158   0.72169   0.00000  Uiso   1.00
H405   H     0.88600   0.71177   0.72378   0.00000  Uiso   1.00
H406   H     0.90157   0.66529   0.77988   0.00000  Uiso   1.00
C407   C     0.99017   0.69030   0.28067   0.00000  Uiso   1.00
C408   C     0.03988   0.67567   0.30618   0.00000  Uiso   1.00
C409   C     0.04404   0.62806   0.33864   0.00000  Uiso   1.00
X410   C     0.99705   0.59459   0.34624   0.00000  Uiso   1.00
C411   C     0.94706   0.60992   0.32193   0.00000  Uiso   1.00
C412   C     0.94282   0.65757   0.28967   0.00000  Uiso   1.00
C413   C     0.99039   0.73656   0.24092   0.00000  Uiso   1.00
C414   C     0.97911   0.72622   0.18535   0.00000  Uiso   1.00
C415   C     0.98087   0.76876   0.14691   0.00000  Uiso   1.00
X416   C     0.99420   0.82278   0.16305   0.00000  Uiso   1.00
C417   C     0.00539   0.83318   0.21891   0.00000  Uiso   1.00
C418   C     0.00390   0.79025   0.25748   0.00000  Uiso   1.00
C419   C     0.09937   0.61406   0.36290   0.00000  Uiso   1.00
H420   H     0.91096   0.58446   0.32830   0.00000  Uiso   1.00
H421   H     0.97181   0.75912   0.10436   0.00000  Uiso   1.00
H422   H     0.01607   0.87420   0.23264   0.00000  Uiso   1.00
C423   C     0.88714   0.67197   0.26642   0.00000  Uiso   1.00
H424   H     0.96929   0.68494   0.17168   0.00000  Uiso   1.00
H425   H     0.07627   0.70051   0.29910   0.00000  Uiso   1.00
H426   H     0.01319   0.79886   0.30020   0.00000  Uiso   1.00
H427   H     0.11232   0.64735   0.39137   0.00000  Uiso   1.00
H428   H     0.13022   0.61041   0.32940   0.00000  Uiso   1.00
H429   H     0.09932   0.57479   0.38606   0.00000  Uiso   1.00
H430   H     0.87516   0.64091   0.23514   0.00000  Uiso   1.00
H431   H     0.88607   0.71333   0.24726   0.00000  Uiso   1.00
H432   H     0.85608   0.67190   0.29994   0.00000  Uiso   1.00
loop_
_geom_bond_atom_site_label_1
_geom_bond_atom_site_label_2
_geom_bond_distance
_geom_bond_site_symmetry_2
_ccdc_geom_bond_type
X1     C2      1.400   .     A
X1     C6      1.414   .     A
X1     X124    1.483   .     A
C2     X3      1.399   .     A
C2     H21     1.085   .     S
X3     C4      1.415   .     A
X3     X202    1.483   .     S
C4     C5      1.419   .     A
C4     C11     1.406   .     A
C5     C6      1.418   .     A
C5     C10     1.420   .     A
C6     C7      1.406   .     A
C7     C8      1.391   .     A
C7     H17     1.082   .     S
C8     C9      1.405   .     A
C8     H18     1.082   .     S
C9     C10     1.418   .     A
C9     X16     1.414   .     A
C10    C13     1.419   .     A
C11    C12     1.392   .     A
C11    H19     1.082   .     S
C12    C13     1.406   .     A
C12    H20     1.082   .     S
C13    X14     1.414   .     A
X14    C15     1.400   .     A
X14    X176    1.483   .     A
C15    X16     1.399   .     A
C15    H22     1.085   .     S
X16    X150    1.483   .     A
X23    C24     1.400   .     A
X23    C28     1.415   .     A
X23    X228    1.484   .     S
C24    X25     1.399   .     A
C24    H43     1.085   .     S
X25    C26     1.415   .     A
X25    X254    1.484   .     A
C26    C27     1.419   .     A
C26    C33     1.406   1_556 A
C27    C28     1.419   .     A
C27    C32     1.421   .     A
C28    C29     1.406   .     A
C29    C30     1.392   .     A
C29    H39     1.082   .     S
C30    C31     1.406   .     A
C30    H40     1.082   .     S
C31    C32     1.419   .     A
C31    X38     1.414   .     A
C32    C35     1.418   .     A
C33    C34     1.392   .     A
C33    H41     1.083   .     S
C33    C26     1.406   1_554 A
C34    H42     1.082   .     S
C34    C35     1.406   1_554 A
C35    X36     1.414   .     A
C35    C34     1.406   1_556 A
X36    C37     1.399   .     A
X36    X280    1.483   .     S
C37    X38     1.399   .     A
C37    H44     1.085   .     S
X38    X306    1.483   .     S
X45    C46     1.400   .     A
X45    C50     1.415   .     A
X45    X332    1.485   1_655 S
C46    X47     1.400   .     A
C46    H65     1.085   .     S
X47    C48     1.415   .     A
X47    X410    1.484   .     S
C48    C49     1.419   .     A
C48    C55     1.406   .     A
C49    C50     1.419   .     A
C49    C54     1.421   .     A
C50    C51     1.406   .     A
C51    C52     1.392   .     A
C51    H61     1.082   .     S
C52    C53     1.406   .     A
C52    H62     1.082   .     S
C53    C54     1.419   .     A
C53    X60     1.414   .     A
C54    C57     1.419   .     A
C55    C56     1.392   .     A
C55    H63     1.082   .     S
C56    C57     1.406   .     A
C56    H64     1.082   .     S
C57    X58     1.416   .     A
X58    C59     1.400   .     A
X58    X384    1.485   1_655 A
C59    X60     1.400   .     A
C59    H66     1.085   .     S
X60    X358    1.484   .     A
O67    Zr103   2.123   .     S
O67    X78     1.302   .     A
O68    Zr102   2.123   .     S
O68    X79     1.302   .     A
O69    X80     1.301   .     A
O69    Zr75    2.124   1_645 S
O70    Zr75    2.123   .     S
O70    X81     1.301   .     A
O71    Zr105   2.103   .     S
O71    X81     1.297   .     A
O72    X80     1.296   .     A
O72    Zr104   2.101   1_655 A
O73    Zr75    2.105   .     S
O73    X79     1.298   .     A
O74    X78     1.298   .     A
O74    Zr75    2.104   1_655 A
Zr75   O76     2.060   .     S
Zr75   O69     2.124   1_465 S
Zr75   O74     2.104   1_455 A
Zr75   O77     2.060   1_465 A
Zr75   O85     2.057   1_455 A
Zr75   O83     2.057   1_565 S
O76    Zr102   2.065   .     S
O76    Zr105   2.055   .     S
O77    Zr75    2.060   1_645 A
O77    Zr103   2.064   1_545 S
O77    Zr104   2.055   1_655 A
X78    X182    1.484   .     S
X79    X208    1.484   .     S
X80    X364    1.486   .     S
X81    X390    1.487   .     S
H82    O83     0.989   .     S
O83    Zr104   2.053   .     S
O83    Zr75    2.057   1_545 S
O83    Zr102   2.061   1_545 A
H84    O85     0.989   .     S
O85    Zr103   2.061   .     S
O85    Zr75    2.057   1_655 A
O85    Zr105   2.052   1_655 S
O86    X109    1.302   .     A
O86    Zr102   2.124   1_554 A
O87    X110    1.303   .     A
O87    Zr103   2.125   1_554 S
O88    Zr104   2.104   .     S
O88    X111    1.297   .     A
O89    Zr105   2.104   .     S
O89    X112    1.297   .     A
O90    X113    1.297   .     A
O90    Zr105   2.103   1_655 A
O91    X114    1.297   .     A
O91    Zr104   2.105   1_655 A
O92    X115    1.301   .     A
O92    Zr106   2.123   1_545 A
O93    X116    1.301   .     A
O93    Zr106   2.123   1_655 A
O94    X115    1.296   .     A
O94    Zr104   2.103   1_554 S
O95    X116    1.296   .     A
O95    Zr105   2.102   1_654 A
O96    X111    1.301   .     A
O96    Zr102   2.122   1_545 A
O97    X114    1.301   .     A
O97    Zr103   2.121   1_545 A
O98    Zr103   2.122   .     S
O98    X113    1.301   .     A
O99    Zr102   2.123   .     S
O99    X112    1.301   .     A
O100   Zr106   2.102   .     S
O100   X109    1.297   .     A
O101   X110    1.297   .     A
O101   Zr106   2.102   1_655 S
Zr102  O83     2.061   1_565 A
Zr102  O86     2.124   1_556 A
Zr102  O96     2.122   1_565 A
Zr102  O108    2.065   1_566 A
Zr102  O120    2.060   1_556 A
Zr103  O77     2.064   1_565 S
Zr103  O87     2.125   1_556 S
Zr103  O97     2.121   1_565 A
Zr103  O107    2.063   1_556 A
Zr103  O118    2.060   1_566 S
Zr104  O72     2.101   1_455 A
Zr104  O77     2.055   1_455 A
Zr104  O91     2.105   1_455 A
Zr104  O94     2.103   1_556 S
Zr104  O108    2.056   1_556 A
Zr104  O118    2.051   1_456 A
Zr105  O85     2.052   1_455 S
Zr105  O90     2.103   1_455 A
Zr105  O95     2.102   1_456 A
Zr105  O107    2.055   1_456 A
Zr105  O120    2.052   1_556 S
Zr106  O120    2.056   .     S
Zr106  O92     2.123   1_565 A
Zr106  O93     2.123   1_455 A
Zr106  O101    2.102   1_455 S
Zr106  O107    2.060   1_455 A
Zr106  O108    2.060   1_565 A
Zr106  O118    2.056   1_465 A
O107   Zr103   2.063   1_554 A
O107   Zr105   2.055   1_654 A
O107   Zr106   2.060   1_655 A
O108   Zr102   2.065   1_544 A
O108   Zr104   2.056   1_554 A
O108   Zr106   2.060   1_545 A
X109   X130    1.485   .     S
X110   X156    1.486   .     S
X111   X234    1.486   .     S
X112   X260    1.487   .     S
X113   X286    1.485   1_556 A
X114   X312    1.486   .     S
X115   X338    1.487   .     S
X116   X416    1.485   .     S
H117   O118    0.988   .     S
O118   Zr103   2.060   1_544 S
O118   Zr104   2.051   1_654 A
O118   Zr106   2.056   1_645 A
H119   O120    0.989   .     S
O120   Zr102   2.060   1_554 A
O120   Zr105   2.052   1_554 S
C121   C122    1.403   .     A
C121   C127    1.479   .     S
C121   C126    1.412   1_565 A
C122   C123    1.402   .     A
C122   H139    1.085   .     S
C123   X124    1.414   .     A
C123   C133    1.508   .     S
X124   C125    1.403   1_565 A
C125   C126    1.405   .     A
C125   H134    1.084   .     S
C125   X124    1.403   1_545 A
C126   C137    1.507   .     S
C126   C121    1.412   1_545 A
C127   C128    1.399   .     A
C127   C132    1.404   .     A
C128   C129    1.393   .     A
C128   H138    1.084   .     S
C129   X130    1.409   .     A
C129   H135    1.083   .     S
X130   C131    1.408   1_565 S
C131   H136    1.083   .     S
C131   X130    1.408   1_545 S
C131   C132    1.403   1_545 S
C132   C131    1.403   1_565 S
C132   H140    1.083   1_565 A
C133   H141    1.111   .     S
C133   H142    1.110   .     S
C133   H143    1.108   .     S
C137   H144    1.111   .     S
C137   H145    1.110   .     S
C137   H146    1.109   .     S
H140   C132    1.083   1_545 A
C147   C148    1.402   .     A
C147   C153    1.479   .     S
C147   C152    1.413   1_565 S
C148   C149    1.404   .     A
C148   H165    1.085   .     S
C149   X150    1.415   .     A
C149   C159    1.507   .     S
X150   C151    1.402   1_565 A
C151   C152    1.403   .     A
C151   H160    1.084   .     S
C151   X150    1.402   1_545 A
C152   C163    1.507   .     S
C152   C147    1.413   1_545 S
C153   C154    1.404   .     A
C153   C158    1.399   .     A
C154   C155    1.403   .     A
C154   H164    1.083   .     S
C155   X156    1.408   .     A
C155   H161    1.083   .     S
X156   C157    1.409   .     A
C157   C158    1.394   .     A
C157   H162    1.083   1_565 S
C158   H166    1.083   1_565 A
C159   H167    1.110   .     S
C159   H168    1.110   .     S
C159   H169    1.108   .     S
H162   C157    1.083   1_545 S
C163   H170    1.111   .     S
C163   H171    1.110   .     S
C163   H172    1.109   .     S
H166   C158    1.083   1_545 A
C173   C178    1.413   .     A
C173   C179    1.480   .     S
C173   C174    1.403   1_565 A
C174   C175    1.402   .     A
C174   H191    1.084   .     S
C174   C173    1.403   1_545 A
C175   C185    1.508   .     S
C175   X176    1.414   1_545 A
X176   C177    1.403   .     A
X176   C175    1.414   1_565 A
C177   C178    1.405   .     A
C177   H186    1.084   .     S
C178   C189    1.507   .     S
C179   C180    1.404   .     A
C179   C184    1.400   1_565 S
C180   C181    1.402   .     A
C180   H190    1.083   .     S
C181   X182    1.408   .     A
C181   H187    1.083   .     S
X182   C183    1.409   1_565 A
C183   C184    1.394   .     A
C183   H188    1.083   .     S
C183   X182    1.409   1_545 A
C184   H192    1.084   .     S
C184   C179    1.400   1_545 S
C185   H193    1.110   .     S
C185   H194    1.110   .     S
C185   H195    1.108   .     S
C189   H196    1.109   .     S
C189   H197    1.111   .     S
C189   H198    1.111   .     S
C199   C204    1.416   .     A
C199   C205    1.481   .     S
C199   C200    1.404   1_565 S
C200   C201    1.404   .     A
C200   H217    1.085   .     S
C200   C199    1.404   1_545 S
C201   C211    1.507   .     S
C201   X202    1.414   1_545 S
X202   C203    1.402   .     A
X202   C201    1.414   1_565 S
C203   C204    1.402   .     A
C203   H212    1.085   .     S
C204   C215    1.508   .     S
C205   C206    1.401   .     A
C205   C210    1.404   .     A
C206   C207    1.395   .     A
C206   H216    1.083   .     S
C207   X208    1.408   .     A
C207   H213    1.083   .     S
X208   C209    1.407   .     A
C209   C210    1.402   .     A
C209   H214    1.083   1_565 S
C210   H218    1.083   1_565 S
C211   H219    1.110   .     S
C211   H220    1.110   .     S
C211   H221    1.108   .     S
H214   C209    1.083   1_545 S
C215   H222    1.110   .     S
C215   H223    1.108   .     S
C215   H224    1.111   .     S
H218   C210    1.083   1_545 S
C225   C226    1.403   .     A
C225   C231    1.481   .     S
C225   C230    1.413   1_556 S
C226   C227    1.402   .     A
C226   H243    1.085   .     S
C227   X228    1.414   .     A
C227   C237    1.508   .     S
X228   C229    1.404   1_556 S
C229   C230    1.405   .     A
C229   H238    1.084   .     S
C229   X228    1.404   1_554 S
C230   C241    1.506   .     S
C230   C225    1.413   1_554 S
C231   C232    1.404   .     A
C231   C236    1.399   .     A
C232   C233    1.403   1_556 S
C232   H242    1.083   1_556 A
C233   H239    1.083   .     S
C233   C232    1.403   1_554 S
C233   X234    1.408   1_554 A
X234   C235    1.409   .     A
X234   C233    1.408   1_556 A
C235   C236    1.394   .     A
C235   H240    1.083   .     S
C236   H244    1.084   .     S
C237   H245    1.110   .     S
C237   H246    1.110   .     S
C237   H247    1.108   .     S
C241   H248    1.109   .     S
C241   H249    1.111   .     S
C241   H250    1.111   .     S
H242   C232    1.083   1_554 A
C251   C252    1.402   .     A
C251   C257    1.480   .     S
C251   C256    1.413   1_556 A
C252   C253    1.404   .     A
C252   H269    1.084   .     S
C253   X254    1.415   .     A
C253   C263    1.508   .     S
X254   C255    1.402   1_556 A
C255   C256    1.404   .     A
C255   H264    1.084   .     S
C255   X254    1.402   1_554 A
C256   C267    1.507   .     S
C256   C251    1.413   1_554 A
C257   C258    1.399   .     A
C257   C262    1.404   .     A
C258   C259    1.394   .     A
C258   H268    1.083   1_556 A
C259   X260    1.409   .     A
C259   H265    1.083   .     S
X260   C261    1.408   .     A
C261   C262    1.403   .     A
C261   H266    1.083   .     S
C262   H270    1.083   .     S
C263   H271    1.110   .     S
C263   H272    1.110   .     S
C263   H273    1.108   .     S
C267   H274    1.109   .     S
C267   H275    1.110   .     S
C267   H276    1.111   .     S
H268   C258    1.083   1_554 A
C277   C282    1.413   .     A
C277   C283    1.480   .     S
C277   C278    1.402   1_554 S
C278   C279    1.403   .     A
C278   H295    1.085   .     S
C278   C277    1.402   1_556 S
C279   X280    1.414   .     A
C279   C289    1.507   .     S
X280   C281    1.402   1_556 S
C281   C282    1.404   .     A
C281   H290    1.084   .     S
C281   X280    1.402   1_554 S
C282   C293    1.507   .     S
C283   C288    1.400   .     A
C283   C284    1.404   1_554 S
C284   C285    1.403   .     A
C284   H294    1.083   .     S
C284   C283    1.404   1_556 S
C285   H291    1.083   .     S
C285   X286    1.408   1_556 A
X286   C287    1.409   .     A
X286   X113    1.485   1_554 A
X286   C285    1.408   1_554 A
C287   C288    1.394   .     A
C287   H292    1.083   .     S
C288   H296    1.084   .     S
C289   H297    1.110   .     S
C289   H298    1.110   .     S
C289   H299    1.108   .     S
C293   H300    1.110   .     S
C293   H301    1.109   .     S
C293   H302    1.111   .     S
C303   C304    1.403   .     A
C303   C309    1.481   .     S
C303   C308    1.414   1_556 S
C304   C305    1.402   .     A
C304   H321    1.085   .     S
C305   X306    1.414   .     A
C305   C315    1.508   .     S
X306   C307    1.403   1_556 S
C307   C308    1.405   .     A
C307   H316    1.084   .     S
C307   X306    1.403   1_554 S
C308   C319    1.507   .     S
C308   C303    1.414   1_554 S
C309   C310    1.400   .     A
C309   C314    1.404   .     A
C310   C311    1.395   .     A
C310   H320    1.083   .     S
C311   X312    1.409   .     A
C311   H317    1.083   .     S
X312   C313    1.408   .     A
C313   C314    1.402   .     A
C313   H318    1.083   1_556 S
C314   H322    1.083   1_556 S
C315   H323    1.110   .     S
C315   H324    1.110   .     S
C315   H325    1.108   .     S
H318   C313    1.083   1_554 S
C319   H326    1.111   .     S
C319   H327    1.110   .     S
C319   H328    1.109   .     S
H322   C314    1.083   1_554 S
C329   C334    1.413   .     A
C329   C330    1.402   1_655 A
C329   C335    1.480   1_655 S
C330   C331    1.404   .     A
C330   H347    1.084   .     S
C330   C329    1.402   1_455 A
C331   X332    1.416   .     A
C331   C341    1.507   .     S
X332   X45     1.485   1_455 S
X332   C333    1.402   1_455 S
C333   C334    1.404   .     A
C333   H342    1.084   .     S
C333   X332    1.402   1_655 S
C334   C345    1.507   .     S
C335   C336    1.403   .     A
C335   C340    1.399   .     A
C335   C329    1.480   1_455 S
C336   C337    1.403   .     A
C336   H346    1.083   .     S
C337   X338    1.409   .     A
C337   H343    1.083   .     S
X338   C339    1.409   .     A
C339   C340    1.395   .     A
C339   H344    1.083   .     S
C340   H348    1.083   1_455 S
C341   H349    1.110   .     S
C341   H350    1.110   .     S
C341   H351    1.108   .     S
C345   H352    1.110   .     S
C345   H353    1.109   .     S
C345   H354    1.111   .     S
H348   C340    1.083   1_655 S
C355   C356    1.403   .     A
C355   C361    1.482   .     S
C355   C360    1.414   1_655 A
C356   C357    1.402   .     A
C356   H373    1.085   .     S
C357   X358    1.414   .     A
C357   C367    1.507   .     S
X358   C359    1.403   1_655 A
C359   C360    1.405   .     A
C359   H368    1.084   .     S
C359   X358    1.403   1_455 A
C360   C371    1.507   .     S
C360   C355    1.414   1_455 A
C361   C366    1.400   .     A
C361   C362    1.405   1_655 A
C362   C363    1.403   .     A
C362   H372    1.083   .     S
C362   C361    1.405   1_455 A
C363   H369    1.083   .     S
C363   X364    1.408   1_455 S
X364   C365    1.409   .     A
X364   C363    1.408   1_655 S
C365   C366    1.394   .     A
C365   H370    1.083   .     S
C366   H374    1.084   .     S
C367   H375    1.110   .     S
C367   H376    1.111   .     S
C367   H377    1.108   .     S
C371   H378    1.109   .     S
C371   H379    1.110   .     S
C371   H380    1.111   .     S
C381   C386    1.413   .     A
C381   C382    1.402   1_655 S
C381   C387    1.481   1_655 S
C382   C383    1.404   .     A
C382   H399    1.085   .     S
C382   C381    1.402   1_455 S
C383   X384    1.416   .     A
C383   C393    1.507   .     S
X384   X58     1.485   1_455 A
X384   C385    1.402   1_455 S
C385   C386    1.404   .     A
C385   H394    1.084   .     S
C385   X384    1.402   1_655 S
C386   C397    1.507   .     S
C387   C388    1.404   .     A
C387   C381    1.481   1_455 S
C387   C392    1.400   1_455 A
C388   C389    1.403   .     A
C388   H398    1.083   .     S
C389   X390    1.408   .     A
C389   H395    1.083   .     S
X390   C391    1.409   1_455 S
C391   C392    1.395   .     A
C391   H396    1.083   .     S
C391   X390    1.409   1_655 S
C392   H400    1.083   .     S
C392   C387    1.400   1_655 A
C393   H401    1.110   .     S
C393   H402    1.110   .     S
C393   H403    1.108   .     S
C397   H404    1.111   .     S
C397   H405    1.111   .     S
C397   H406    1.109   .     S
C407   C412    1.416   .     A
C407   C413    1.482   .     S
C407   C408    1.404   1_655 A
C408   C409    1.404   .     A
C408   H425    1.085   .     S
C408   C407    1.404   1_455 A
C409   C419    1.507   .     S
C409   X410    1.414   1_455 S
X410   C411    1.401   .     A
X410   C409    1.414   1_655 S
C411   C412    1.402   .     A
C411   H420    1.085   .     S
C412   C423    1.508   .     S
C413   C414    1.401   .     A
C413   C418    1.405   1_655 A
C414   C415    1.394   .     A
C414   H424    1.084   .     S
C415   X416    1.408   .     A
C415   H421    1.083   .     S
X416   C417    1.408   1_655 A
C417   C418    1.403   .     A
C417   H422    1.083   .     S
C417   X416    1.408   1_455 A
C418   H426    1.083   .     S
C418   C413    1.405   1_455 A
C419   H427    1.110   .     S
C419   H428    1.110   .     S
C419   H429    1.108   .     S
C423   H430    1.110   .     S
C423   H431    1.108   .     S
C423   H432    1.111   .     S
