data_ja512973b_si_004_auto
_audit_creation_date              2018-09-04
_audit_creation_method            'Materials Studio'
_symmetry_space_group_name_H-M    'P1'
_symmetry_Int_Tables_number       1
_symmetry_cell_setting            triclinic
loop_
_symmetry_equiv_pos_as_xyz
  x,y,z
_cell_length_a                    27.9293
_cell_length_b                    27.9293
_cell_length_c                    27.9293
_cell_angle_alpha                 90.0000
_cell_angle_beta                  90.0000
_cell_angle_gamma                 90.0000
loop_
_atom_site_label
_atom_site_type_symbol
_atom_site_fract_x
_atom_site_fract_y
_atom_site_fract_z
_atom_site_U_iso_or_equiv
_atom_site_adp_type
_atom_site_occupancy
X1     C     0.54334   0.00484   0.60106   0.00000  Uiso   1.00
C2     C     0.49952   0.00315   0.62539   0.00000  Uiso   1.00
X3     C     0.45589   0.00241   0.60077   0.00000  Uiso   1.00
C4     C     0.45576   0.00290   0.55005   0.00000  Uiso   1.00
C5     C     0.49985   0.00461   0.52472   0.00000  Uiso   1.00
C6     C     0.54381   0.00557   0.55030   0.00000  Uiso   1.00
C7     C     0.58701   0.00612   0.52444   0.00000  Uiso   1.00
C8     C     0.58718   0.00594   0.47453   0.00000  Uiso   1.00
C9     C     0.54415   0.00535   0.44839   0.00000  Uiso   1.00
C10    C     0.49999   0.00473   0.47369   0.00000  Uiso   1.00
C11    C     0.41276   0.00111   0.52404   0.00000  Uiso   1.00
C12    C     0.41287   0.00101   0.47414   0.00000  Uiso   1.00
C13    C     0.45598   0.00338   0.44814   0.00000  Uiso   1.00
X14    C     0.45641   0.00305   0.39730   0.00000  Uiso   1.00
C15    C     0.50039   0.00286   0.37309   0.00000  Uiso   1.00
X16    C     0.54408   0.00415   0.39765   0.00000  Uiso   1.00
H17    H     0.62124   0.00617   0.54260   0.00000  Uiso   1.00
H18    H     0.62152   0.00584   0.45659   0.00000  Uiso   1.00
H19    H     0.37852   0.99925   0.54212   0.00000  Uiso   1.00
H20    H     0.37866   0.99839   0.45621   0.00000  Uiso   1.00
H21    H     0.49935   0.00270   0.66423   0.00000  Uiso   1.00
H22    H     0.50066   0.00241   0.33425   0.00000  Uiso   1.00
X23    C     0.54297   0.60715   0.99764   0.00000  Uiso   1.00
C24    C     0.49915   0.63149   0.99767   0.00000  Uiso   1.00
X25    C     0.45540   0.60705   0.99679   0.00000  Uiso   1.00
C26    C     0.45517   0.55630   0.99677   0.00000  Uiso   1.00
C27    C     0.49925   0.53090   0.99729   0.00000  Uiso   1.00
C28    C     0.54330   0.55637   0.99744   0.00000  Uiso   1.00
C29    C     0.58640   0.53038   0.99828   0.00000  Uiso   1.00
C30    C     0.58644   0.48055   0.99794   0.00000  Uiso   1.00
C31    C     0.54337   0.45449   0.99837   0.00000  Uiso   1.00
C32    C     0.49929   0.47989   0.99810   0.00000  Uiso   1.00
C33    C     0.41210   0.53026   0.99713   0.00000  Uiso   1.00
C34    C     0.41214   0.48042   0.99722   0.00000  Uiso   1.00
C35    C     0.45524   0.45443   0.99823   0.00000  Uiso   1.00
X36    C     0.45554   0.40367   0.99843   0.00000  Uiso   1.00
C37    C     0.49936   0.37931   0.99792   0.00000  Uiso   1.00
X38    C     0.54313   0.40372   0.99817   0.00000  Uiso   1.00
H39    H     0.62072   0.54824   0.99926   0.00000  Uiso   1.00
H40    H     0.62080   0.46273   0.99733   0.00000  Uiso   1.00
H41    H     0.37775   0.54811   0.99747   0.00000  Uiso   1.00
H42    H     0.37782   0.46253   0.99632   0.00000  Uiso   1.00
H43    H     0.49910   0.67034   0.99765   0.00000  Uiso   1.00
H44    H     0.49939   0.34046   0.99808   0.00000  Uiso   1.00
X45    C     0.00139   0.40355   0.45466   0.00000  Uiso   1.00
C46    C     0.00150   0.37925   0.49850   0.00000  Uiso   1.00
X47    C     0.00106   0.40370   0.54227   0.00000  Uiso   1.00
C48    C     0.00104   0.45447   0.54244   0.00000  Uiso   1.00
C49    C     0.00045   0.47983   0.49834   0.00000  Uiso   1.00
C50    C     0.00099   0.45433   0.45431   0.00000  Uiso   1.00
C51    C     0.00288   0.48029   0.41123   0.00000  Uiso   1.00
C52    C     0.00274   0.53013   0.41115   0.00000  Uiso   1.00
C53    C     0.00085   0.55621   0.45416   0.00000  Uiso   1.00
C54    C     0.00051   0.53085   0.49827   0.00000  Uiso   1.00
C55    C     0.00341   0.48055   0.58543   0.00000  Uiso   1.00
C56    C     0.00367   0.53039   0.58535   0.00000  Uiso   1.00
C57    C     0.00142   0.55636   0.54229   0.00000  Uiso   1.00
X58    C     0.00186   0.60713   0.54195   0.00000  Uiso   1.00
C59    C     0.00181   0.63143   0.49809   0.00000  Uiso   1.00
X60    C     0.00108   0.60697   0.45434   0.00000  Uiso   1.00
H61    H     0.00524   0.46238   0.37699   0.00000  Uiso   1.00
H62    H     0.00498   0.54796   0.37686   0.00000  Uiso   1.00
H63    H     0.00597   0.46272   0.61970   0.00000  Uiso   1.00
H64    H     0.00641   0.54829   0.61957   0.00000  Uiso   1.00
H65    H     0.00138   0.34040   0.49855   0.00000  Uiso   1.00
H66    H     0.00179   0.67028   0.49802   0.00000  Uiso   1.00
O67    O     0.87784   0.00611   0.93630   0.00000  Uiso   1.00
O68    O     0.12063   0.00397   0.93517   0.00000  Uiso   1.00
O69    O     0.99768   0.06780   0.87695   0.00000  Uiso   1.00
O70    O     0.00104   0.94269   0.87706   0.00000  Uiso   1.00
O71    O     0.00074   0.88383   0.93542   0.00000  Uiso   1.00
O72    O     0.99713   0.12670   0.93524   0.00000  Uiso   1.00
O73    O     0.06187   0.00346   0.87663   0.00000  Uiso   1.00
O74    O     0.93613   0.00754   0.87727   0.00000  Uiso   1.00
Zr75   Zr    0.99919   0.00533   0.91992   0.00000  Uiso   1.00
O76    O     0.04690   0.95770   0.95052   0.00000  Uiso   1.00
O77    O     0.95160   0.05289   0.95091   0.00000  Uiso   1.00
X78    C     0.89152   0.00758   0.89156   0.00000  Uiso   1.00
X79    C     0.10659   0.00286   0.89054   0.00000  Uiso   1.00
X80    C     0.99660   0.11261   0.89049   0.00000  Uiso   1.00
X81    C     0.00179   0.89787   0.89068   0.00000  Uiso   1.00
H82    H     0.06680   0.07311   0.93035   0.00000  Uiso   1.00
O83    O     0.04633   0.05263   0.95094   0.00000  Uiso   1.00
H84    H     0.93174   0.93756   0.93081   0.00000  Uiso   1.00
O85    O     0.95226   0.95806   0.95132   0.00000  Uiso   1.00
O86    O     0.12107   0.00707   0.06019   0.00000  Uiso   1.00
O87    O     0.87850   0.00282   0.06159   0.00000  Uiso   1.00
O88    O     0.06233   0.12681   0.99994   0.00000  Uiso   1.00
O89    O     0.06253   0.88399   0.99609   0.00000  Uiso   1.00
O90    O     0.93658   0.88382   0.00004   0.00000  Uiso   1.00
O91    O     0.93628   0.12663   0.99699   0.00000  Uiso   1.00
O92    O     0.00202   0.06807   0.11951   0.00000  Uiso   1.00
O93    O     0.99868   0.94295   0.11969   0.00000  Uiso   1.00
O94    O     0.00088   0.12689   0.06115   0.00000  Uiso   1.00
O95    O     0.99787   0.88401   0.06142   0.00000  Uiso   1.00
O96    O     0.12062   0.06795   0.99928   0.00000  Uiso   1.00
O97    O     0.87816   0.06762   0.99729   0.00000  Uiso   1.00
O98    O     0.87833   0.94265   0.00036   0.00000  Uiso   1.00
O99    O     0.12075   0.94296   0.99634   0.00000  Uiso   1.00
O100   O     0.06313   0.00721   0.11931   0.00000  Uiso   1.00
O101   O     0.93728   0.00451   0.12011   0.00000  Uiso   1.00
Zr102  Zr    0.07771   0.00543   0.99793   0.00000  Uiso   1.00
Zr103  Zr    0.92122   0.00513   0.99868   0.00000  Uiso   1.00
Zr104  Zr    0.99933   0.08392   0.99828   0.00000  Uiso   1.00
Zr105  Zr    0.99952   0.92675   0.99833   0.00000  Uiso   1.00
Zr106  Zr    0.99991   0.00545   0.07670   0.00000  Uiso   1.00
O107   O     0.95221   0.95763   0.04623   0.00000  Uiso   1.00
O108   O     0.04724   0.05312   0.04565   0.00000  Uiso   1.00
X109   C     0.10783   0.00792   0.10510   0.00000  Uiso   1.00
X110   C     0.89255   0.00290   0.10626   0.00000  Uiso   1.00
X111   C     0.10709   0.11276   0.00038   0.00000  Uiso   1.00
X112   C     0.10725   0.89813   0.99537   0.00000  Uiso   1.00
X113   C     0.89183   0.89781   0.00089   0.00000  Uiso   1.00
X114   C     0.89154   0.11250   0.99650   0.00000  Uiso   1.00
X115   C     0.00232   0.11288   0.10589   0.00000  Uiso   1.00
X116   C     0.99757   0.89812   0.10616   0.00000  Uiso   1.00
H117   H     0.93203   0.07292   0.06625   0.00000  Uiso   1.00
O118   O     0.95250   0.05247   0.04565   0.00000  Uiso   1.00
H119   H     0.06749   0.93773   0.06567   0.00000  Uiso   1.00
O120   O     0.04685   0.95819   0.04525   0.00000  Uiso   1.00
C121   C     0.33111   0.00510   0.30727   0.00000  Uiso   1.00
C122   C     0.36378   0.96712   0.30451   0.00000  Uiso   1.00
C123   C     0.40395   0.96608   0.33447   0.00000  Uiso   1.00
X124   C     0.41196   0.00293   0.36779   0.00000  Uiso   1.00
C125   C     0.37911   0.04101   0.37040   0.00000  Uiso   1.00
C126   C     0.33881   0.04195   0.34047   0.00000  Uiso   1.00
C127   C     0.29082   0.00686   0.27478   0.00000  Uiso   1.00
C128   C     0.25797   0.00791   0.24654   0.00000  Uiso   1.00
C129   C     0.21991   0.00865   0.21144   0.00000  Uiso   1.00
C130   C     0.23106   0.00471   0.16276   0.00000  Uiso   1.00
C131   C     0.19467   0.00477   0.12835   0.00000  Uiso   1.00
X132   C     0.14626   0.00869   0.14200   0.00000  Uiso   1.00
C133   C     0.13532   0.01280   0.19108   0.00000  Uiso   1.00
C134   C     0.17191   0.01281   0.22551   0.00000  Uiso   1.00
H135   H     0.35851   0.93858   0.27877   0.00000  Uiso   1.00
H136   H     0.42907   0.93669   0.33142   0.00000  Uiso   1.00
H137   H     0.38504   0.07024   0.39518   0.00000  Uiso   1.00
H138   H     0.31405   0.07171   0.34279   0.00000  Uiso   1.00
H139   H     0.26798   0.00138   0.15133   0.00000  Uiso   1.00
H140   H     0.20458   0.00139   0.09102   0.00000  Uiso   1.00
H141   H     0.09853   0.01598   0.20291   0.00000  Uiso   1.00
H142   H     0.16274   0.01590   0.26307   0.00000  Uiso   1.00
C143   C     0.66921   0.00358   0.30755   0.00000  Uiso   1.00
C144   C     0.64143   0.96211   0.31281   0.00000  Uiso   1.00
C145   C     0.60134   0.96211   0.34295   0.00000  Uiso   1.00
X146   C     0.58870   0.00348   0.36859   0.00000  Uiso   1.00
C147   C     0.61687   0.04488   0.36369   0.00000  Uiso   1.00
C148   C     0.65690   0.04491   0.33333   0.00000  Uiso   1.00
C149   C     0.70930   0.00389   0.27464   0.00000  Uiso   1.00
C150   C     0.74227   0.00366   0.24646   0.00000  Uiso   1.00
C151   C     0.78112   0.00295   0.21210   0.00000  Uiso   1.00
C152   C     0.78675   0.96373   0.18122   0.00000  Uiso   1.00
C153   C     0.82327   0.96361   0.14679   0.00000  Uiso   1.00
X154   C     0.85512   0.00233   0.14344   0.00000  Uiso   1.00
C155   C     0.84990   0.04126   0.17481   0.00000  Uiso   1.00
C156   C     0.81284   0.04175   0.20870   0.00000  Uiso   1.00
H157   H     0.65038   0.92993   0.29309   0.00000  Uiso   1.00
H158   H     0.57984   0.92998   0.34599   0.00000  Uiso   1.00
H159   H     0.60730   0.07731   0.38267   0.00000  Uiso   1.00
H160   H     0.67784   0.07734   0.32945   0.00000  Uiso   1.00
H161   H     0.76270   0.93339   0.18353   0.00000  Uiso   1.00
H162   H     0.82692   0.93320   0.12298   0.00000  Uiso   1.00
H163   H     0.87374   0.07176   0.17222   0.00000  Uiso   1.00
H164   H     0.80868   0.07253   0.23193   0.00000  Uiso   1.00
C165   C     0.66832   0.00737   0.69093   0.00000  Uiso   1.00
C166   C     0.64111   0.96545   0.68645   0.00000  Uiso   1.00
C167   C     0.60096   0.96445   0.65647   0.00000  Uiso   1.00
X168   C     0.58775   0.00527   0.63029   0.00000  Uiso   1.00
C169   C     0.61533   0.04713   0.63444   0.00000  Uiso   1.00
C170   C     0.65542   0.04817   0.66463   0.00000  Uiso   1.00
C171   C     0.70845   0.00869   0.72362   0.00000  Uiso   1.00
C172   C     0.74142   0.00905   0.75171   0.00000  Uiso   1.00
C173   C     0.78012   0.00859   0.78609   0.00000  Uiso   1.00
C174   C     0.78680   0.96856   0.81561   0.00000  Uiso   1.00
C175   C     0.82323   0.96834   0.85003   0.00000  Uiso   1.00
X176   C     0.85386   0.00786   0.85477   0.00000  Uiso   1.00
C177   C     0.84763   0.04770   0.82478   0.00000  Uiso   1.00
C178   C     0.81064   0.04821   0.79083   0.00000  Uiso   1.00
H179   H     0.65059   0.93369   0.70661   0.00000  Uiso   1.00
H180   H     0.57992   0.93197   0.65392   0.00000  Uiso   1.00
H181   H     0.60529   0.07911   0.61495   0.00000  Uiso   1.00
H182   H     0.67595   0.08091   0.66795   0.00000  Uiso   1.00
H183   H     0.76368   0.93760   0.81220   0.00000  Uiso   1.00
H184   H     0.82783   0.93720   0.87272   0.00000  Uiso   1.00
H185   H     0.87070   0.07867   0.82837   0.00000  Uiso   1.00
H186   H     0.80564   0.07957   0.76855   0.00000  Uiso   1.00
C187   C     0.33055   0.00027   0.69023   0.00000  Uiso   1.00
C188   C     0.35139   0.95722   0.67488   0.00000  Uiso   1.00
C189   C     0.39158   0.95785   0.64479   0.00000  Uiso   1.00
X190   C     0.41127   0.00155   0.62963   0.00000  Uiso   1.00
C191   C     0.39003   0.04457   0.64457   0.00000  Uiso   1.00
C192   C     0.34988   0.04393   0.67467   0.00000  Uiso   1.00
C193   C     0.29040   0.99981   0.72306   0.00000  Uiso   1.00
C194   C     0.25729   0.99990   0.75106   0.00000  Uiso   1.00
C195   C     0.21820   0.00060   0.78513   0.00000  Uiso   1.00
C196   C     0.19528   0.95795   0.79858   0.00000  Uiso   1.00
C197   C     0.15823   0.95870   0.83249   0.00000  Uiso   1.00
X198   C     0.14398   0.00208   0.85345   0.00000  Uiso   1.00
C199   C     0.16680   0.04471   0.83987   0.00000  Uiso   1.00
C200   C     0.20360   0.04399   0.80577   0.00000  Uiso   1.00
H201   H     0.33698   0.92320   0.68670   0.00000  Uiso   1.00
H202   H     0.40779   0.92435   0.63388   0.00000  Uiso   1.00
H203   H     0.40505   0.07858   0.63352   0.00000  Uiso   1.00
H204   H     0.33433   0.07749   0.68634   0.00000  Uiso   1.00
H205   H     0.20630   0.92410   0.78317   0.00000  Uiso   1.00
H206   H     0.14116   0.92545   0.84289   0.00000  Uiso   1.00
H207   H     0.15622   0.07846   0.85580   0.00000  Uiso   1.00
H208   H     0.22092   0.07723   0.79578   0.00000  Uiso   1.00
C209   C     0.32999   0.31447   0.00106   0.00000  Uiso   1.00
C210   C     0.33886   0.34634   0.03881   0.00000  Uiso   1.00
C211   C     0.37933   0.37600   0.03778   0.00000  Uiso   1.00
X212   C     0.41110   0.37436   0.99876   0.00000  Uiso   1.00
C213   C     0.40196   0.34233   0.96108   0.00000  Uiso   1.00
C214   C     0.36163   0.31267   0.96219   0.00000  Uiso   1.00
C215   C     0.28956   0.28230   0.00263   0.00000  Uiso   1.00
C216   C     0.25667   0.25419   0.00315   0.00000  Uiso   1.00
C217   C     0.21869   0.21912   0.00288   0.00000  Uiso   1.00
C218   C     0.17147   0.23212   0.01379   0.00000  Uiso   1.00
C219   C     0.13493   0.19768   0.01289   0.00000  Uiso   1.00
X220   C     0.14528   0.14971   0.00130   0.00000  Uiso   1.00
C221   C     0.19289   0.13712   0.99050   0.00000  Uiso   1.00
C222   C     0.22918   0.17156   0.99119   0.00000  Uiso   1.00
H223   H     0.31488   0.34783   0.06926   0.00000  Uiso   1.00
H224   H     0.38620   0.39985   0.06757   0.00000  Uiso   1.00
H225   H     0.42631   0.34011   0.93098   0.00000  Uiso   1.00
H226   H     0.35542   0.28793   0.93297   0.00000  Uiso   1.00
H227   H     0.16288   0.26881   0.02297   0.00000  Uiso   1.00
H228   H     0.09874   0.20850   0.02164   0.00000  Uiso   1.00
H229   H     0.20214   0.10066   0.98107   0.00000  Uiso   1.00
H230   H     0.26550   0.16105   0.98248   0.00000  Uiso   1.00
C231   C     0.32983   0.69618   0.99432   0.00000  Uiso   1.00
C232   C     0.36078   0.69695   0.03378   0.00000  Uiso   1.00
C233   C     0.40111   0.66729   0.03482   0.00000  Uiso   1.00
X234   C     0.41091   0.63626   0.99649   0.00000  Uiso   1.00
C235   C     0.37979   0.63554   0.95693   0.00000  Uiso   1.00
C236   C     0.33935   0.66525   0.95595   0.00000  Uiso   1.00
C237   C     0.28949   0.72847   0.99282   0.00000  Uiso   1.00
C238   C     0.25666   0.75666   0.99239   0.00000  Uiso   1.00
C239   C     0.21871   0.79177   0.99282   0.00000  Uiso   1.00
C240   C     0.22842   0.83838   0.00842   0.00000  Uiso   1.00
C241   C     0.19217   0.87287   0.00908   0.00000  Uiso   1.00
X242   C     0.14539   0.86121   0.99442   0.00000  Uiso   1.00
C243   C     0.13576   0.81420   0.97900   0.00000  Uiso   1.00
C244   C     0.17228   0.77975   0.97804   0.00000  Uiso   1.00
H245   H     0.35405   0.72093   0.06352   0.00000  Uiso   1.00
H246   H     0.42495   0.66875   0.06537   0.00000  Uiso   1.00
H247   H     0.38718   0.61243   0.92669   0.00000  Uiso   1.00
H248   H     0.31590   0.66454   0.92506   0.00000  Uiso   1.00
H249   H     0.26409   0.84809   0.02019   0.00000  Uiso   1.00
H250   H     0.20069   0.90857   0.02162   0.00000  Uiso   1.00
H251   H     0.10020   0.80423   0.96719   0.00000  Uiso   1.00
H252   H     0.16432   0.74383   0.96577   0.00000  Uiso   1.00
C253   C     0.66866   0.69619   0.99881   0.00000  Uiso   1.00
C254   C     0.63633   0.69733   0.03713   0.00000  Uiso   1.00
C255   C     0.59594   0.66775   0.03696   0.00000  Uiso   1.00
X256   C     0.58740   0.63647   0.99852   0.00000  Uiso   1.00
C257   C     0.61981   0.63554   0.96001   0.00000  Uiso   1.00
C258   C     0.66035   0.66511   0.96027   0.00000  Uiso   1.00
C259   C     0.70917   0.72830   0.99853   0.00000  Uiso   1.00
C260   C     0.74212   0.75635   0.99885   0.00000  Uiso   1.00
C261   C     0.78015   0.79136   0.99964   0.00000  Uiso   1.00
C262   C     0.76875   0.84011   0.00092   0.00000  Uiso   1.00
C263   C     0.80504   0.87453   0.00173   0.00000  Uiso   1.00
X264   C     0.85358   0.86082   0.00124   0.00000  Uiso   1.00
C265   C     0.86478   0.81164   0.00017   0.00000  Uiso   1.00
C266   C     0.82827   0.77718   0.99937   0.00000  Uiso   1.00
H267   H     0.64207   0.72150   0.06692   0.00000  Uiso   1.00
H268   H     0.57107   0.66944   0.06667   0.00000  Uiso   1.00
H269   H     0.61341   0.61228   0.92964   0.00000  Uiso   1.00
H270   H     0.68485   0.66416   0.93022   0.00000  Uiso   1.00
H271   H     0.73168   0.85158   0.00121   0.00000  Uiso   1.00
H272   H     0.79494   0.91196   0.00253   0.00000  Uiso   1.00
H273   H     0.90169   0.79977   0.99971   0.00000  Uiso   1.00
H274   H     0.83758   0.73954   0.99845   0.00000  Uiso   1.00
C275   C     0.66877   0.31462   0.99762   0.00000  Uiso   1.00
C276   C     0.63681   0.31375   0.95900   0.00000  Uiso   1.00
C277   C     0.59645   0.34338   0.95896   0.00000  Uiso   1.00
X278   C     0.58760   0.37447   0.99749   0.00000  Uiso   1.00
C279   C     0.61969   0.37518   0.03627   0.00000  Uiso   1.00
C280   C     0.66019   0.34555   0.03622   0.00000  Uiso   1.00
C281   C     0.70918   0.28237   0.99814   0.00000  Uiso   1.00
C282   C     0.74203   0.25421   0.99802   0.00000  Uiso   1.00
C283   C     0.77998   0.21911   0.99746   0.00000  Uiso   1.00
C284   C     0.76850   0.17036   0.99652   0.00000  Uiso   1.00
C285   C     0.80475   0.13586   0.99588   0.00000  Uiso   1.00
X286   C     0.85331   0.14952   0.99618   0.00000  Uiso   1.00
C287   C     0.86457   0.19868   0.99692   0.00000  Uiso   1.00
C288   C     0.82813   0.23321   0.99756   0.00000  Uiso   1.00
H289   H     0.64278   0.28971   0.92914   0.00000  Uiso   1.00
H290   H     0.57184   0.34186   0.92903   0.00000  Uiso   1.00
H291   H     0.61304   0.39830   0.06670   0.00000  Uiso   1.00
H292   H     0.68442   0.34631   0.06650   0.00000  Uiso   1.00
H293   H     0.73142   0.15895   0.99634   0.00000  Uiso   1.00
H294   H     0.79461   0.09845   0.99531   0.00000  Uiso   1.00
H295   H     0.90149   0.21052   0.99721   0.00000  Uiso   1.00
H296   H     0.83750   0.27084   0.99821   0.00000  Uiso   1.00
C297   C     0.00230   0.31416   0.32917   0.00000  Uiso   1.00
C298   C     0.96418   0.34586   0.33708   0.00000  Uiso   1.00
C299   C     0.96406   0.37559   0.37751   0.00000  Uiso   1.00
X300   C     0.00228   0.37419   0.41024   0.00000  Uiso   1.00
C301   C     0.04035   0.34235   0.40205   0.00000  Uiso   1.00
C302   C     0.04039   0.31263   0.36175   0.00000  Uiso   1.00
C303   C     0.00186   0.28195   0.28873   0.00000  Uiso   1.00
C304   C     0.00208   0.25392   0.25577   0.00000  Uiso   1.00
C305   C     0.00288   0.21911   0.21754   0.00000  Uiso   1.00
C306   C     0.98908   0.23173   0.17099   0.00000  Uiso   1.00
C307   C     0.98950   0.19743   0.13434   0.00000  Uiso   1.00
X308   C     0.00342   0.14993   0.14392   0.00000  Uiso   1.00
C309   C     0.01749   0.13775   0.19076   0.00000  Uiso   1.00
C310   C     0.01732   0.17210   0.22718   0.00000  Uiso   1.00
H311   H     0.93433   0.34717   0.31235   0.00000  Uiso   1.00
H312   H     0.93398   0.39930   0.38360   0.00000  Uiso   1.00
H313   H     0.06988   0.34033   0.42712   0.00000  Uiso   1.00
H314   H     0.06990   0.28804   0.35628   0.00000  Uiso   1.00
H315   H     0.97771   0.26796   0.16308   0.00000  Uiso   1.00
H316   H     0.97815   0.20787   0.09876   0.00000  Uiso   1.00
H317   H     0.02879   0.10165   0.19930   0.00000  Uiso   1.00
H318   H     0.02829   0.16190   0.26297   0.00000  Uiso   1.00
C319   C     0.99831   0.31465   0.66796   0.00000  Uiso   1.00
C320   C     0.96119   0.34739   0.65962   0.00000  Uiso   1.00
C321   C     0.96233   0.37703   0.61915   0.00000  Uiso   1.00
X322   C     0.00083   0.37450   0.58681   0.00000  Uiso   1.00
C323   C     0.03794   0.34166   0.59547   0.00000  Uiso   1.00
C324   C     0.03671   0.31202   0.63582   0.00000  Uiso   1.00
C325   C     0.99645   0.28241   0.70833   0.00000  Uiso   1.00
C326   C     0.99558   0.25425   0.74117   0.00000  Uiso   1.00
C327   C     0.99540   0.21911   0.77908   0.00000  Uiso   1.00
C328   C     0.98159   0.23150   0.82571   0.00000  Uiso   1.00
C329   C     0.98200   0.19699   0.86220   0.00000  Uiso   1.00
X330   C     0.99594   0.14956   0.85235   0.00000  Uiso   1.00
C331   C     0.00959   0.13754   0.80534   0.00000  Uiso   1.00
C332   C     0.00944   0.17206   0.76913   0.00000  Uiso   1.00
H333   H     0.93111   0.34955   0.68401   0.00000  Uiso   1.00
H334   H     0.93297   0.40152   0.61269   0.00000  Uiso   1.00
H335   H     0.06766   0.33877   0.57073   0.00000  Uiso   1.00
H336   H     0.06546   0.28663   0.64163   0.00000  Uiso   1.00
H337   H     0.97053   0.26777   0.83387   0.00000  Uiso   1.00
H338   H     0.97102   0.20730   0.89793   0.00000  Uiso   1.00
H339   H     0.02095   0.10151   0.79659   0.00000  Uiso   1.00
H340   H     0.02043   0.16204   0.73329   0.00000  Uiso   1.00
C341   C     0.00281   0.69655   0.66744   0.00000  Uiso   1.00
C342   C     0.96495   0.66449   0.65979   0.00000  Uiso   1.00
C343   C     0.96483   0.63477   0.61936   0.00000  Uiso   1.00
X344   C     0.00281   0.63651   0.58637   0.00000  Uiso   1.00
C345   C     0.04064   0.66871   0.59431   0.00000  Uiso   1.00
C346   C     0.04066   0.69844   0.63460   0.00000  Uiso   1.00
C347   C     0.00231   0.72878   0.70787   0.00000  Uiso   1.00
C348   C     0.00243   0.75681   0.74084   0.00000  Uiso   1.00
C349   C     0.00306   0.79161   0.77908   0.00000  Uiso   1.00
C350   C     0.98833   0.77917   0.82541   0.00000  Uiso   1.00
C351   C     0.98851   0.81348   0.86205   0.00000  Uiso   1.00
X352   C     0.00307   0.86082   0.85267   0.00000  Uiso   1.00
C353   C     0.01809   0.87282   0.80609   0.00000  Uiso   1.00
C354   C     0.01819   0.83846   0.76969   0.00000  Uiso   1.00
H355   H     0.93527   0.66291   0.68472   0.00000  Uiso   1.00
H356   H     0.93492   0.61079   0.61347   0.00000  Uiso   1.00
H357   H     0.06998   0.67100   0.56905   0.00000  Uiso   1.00
H358   H     0.06997   0.72331   0.63987   0.00000  Uiso   1.00
H359   H     0.97641   0.74307   0.83313   0.00000  Uiso   1.00
H360   H     0.97644   0.80320   0.89744   0.00000  Uiso   1.00
H361   H     0.02997   0.90879   0.79778   0.00000  Uiso   1.00
H362   H     0.02990   0.84851   0.73410   0.00000  Uiso   1.00
C363   C     0.99850   0.69602   0.32866   0.00000  Uiso   1.00
C364   C     0.96094   0.66389   0.33739   0.00000  Uiso   1.00
C365   C     0.96201   0.63422   0.37784   0.00000  Uiso   1.00
X366   C     0.00086   0.63616   0.40980   0.00000  Uiso   1.00
C367   C     0.03842   0.66837   0.40076   0.00000  Uiso   1.00
C368   C     0.03728   0.69801   0.36041   0.00000  Uiso   1.00
C369   C     0.99677   0.72830   0.28832   0.00000  Uiso   1.00
C370   C     0.99605   0.75649   0.25549   0.00000  Uiso   1.00
C371   C     0.99607   0.79163   0.21758   0.00000  Uiso   1.00
C372   C     0.98207   0.77933   0.17098   0.00000  Uiso   1.00
C373   C     0.98264   0.81382   0.13449   0.00000  Uiso   1.00
X374   C     0.99692   0.86116   0.14430   0.00000  Uiso   1.00
C375   C     0.01077   0.87310   0.19126   0.00000  Uiso   1.00
C376   C     0.01047   0.83858   0.22749   0.00000  Uiso   1.00
H377   H     0.93058   0.66223   0.31331   0.00000  Uiso   1.00
H378   H     0.93234   0.61020   0.38461   0.00000  Uiso   1.00
H379   H     0.06843   0.67077   0.42520   0.00000  Uiso   1.00
H380   H     0.06638   0.72292   0.35429   0.00000  Uiso   1.00
H381   H     0.97071   0.74314   0.16286   0.00000  Uiso   1.00
H382   H     0.97146   0.80359   0.09880   0.00000  Uiso   1.00
H383   H     0.02238   0.90906   0.19998   0.00000  Uiso   1.00
H384   H     0.02159   0.84853   0.26330   0.00000  Uiso   1.00
loop_
_geom_bond_atom_site_label_1
_geom_bond_atom_site_label_2
_geom_bond_distance
_geom_bond_site_symmetry_2
_ccdc_geom_bond_type
X1     C2      1.401   .     A
X1     C6      1.418   .     A
X1     X168    1.485   .     A
C2     X3      1.399   .     A
C2     H21     1.085   .     S
X3     C4      1.417   .     A
X3     X190    1.484   .     S
C4     C5      1.421   .     A
C4     C11     1.404   .     A
C5     C6      1.421   .     A
C5     C10     1.425   .     A
C6     C7      1.406   .     A
C7     C8      1.394   .     A
C7     H17     1.082   .     S
C8     C9      1.406   .     A
C8     H18     1.082   .     S
C9     C10     1.422   .     A
C9     X16     1.418   .     A
C10    C13     1.422   .     A
C11    C12     1.394   .     A
C11    H19     1.083   1_545 A
C12    C13     1.408   .     A
C12    H20     1.081   1_545 A
C13    X14     1.420   .     A
X14    C15     1.402   .     A
X14    X124    1.490   .     A
C15    X16     1.400   .     A
C15    H22     1.085   .     S
X16    X146    1.487   .     A
H19    C11     1.083   1_565 A
H20    C12     1.081   1_565 A
X23    C24     1.400   .     A
X23    C28     1.418   .     A
X23    X256    1.487   .     S
C24    X25     1.400   .     A
C24    H43     1.085   .     S
X25    C26     1.417   .     A
X25    X234    1.486   .     A
C26    C27     1.421   .     A
C26    C33     1.406   .     A
C27    C28     1.421   .     A
C27    C32     1.425   .     A
C28    C29     1.406   .     A
C29    C30     1.392   .     A
C29    H39     1.081   .     S
C30    C31     1.406   .     A
C30    H40     1.081   .     S
C31    C32     1.421   .     A
C31    X38     1.418   .     A
C32    C35     1.421   .     A
C33    C34     1.392   .     A
C33    H41     1.081   .     S
C34    C35     1.406   .     A
C34    H42     1.081   .     S
C35    X36     1.418   .     A
X36    C37     1.400   .     A
X36    X212    1.487   .     S
C37    X38     1.400   .     A
C37    H44     1.085   .     S
X38    X278    1.487   .     S
X45    C46     1.400   .     A
X45    C50     1.418   .     A
X45    X300    1.487   .     A
C46    X47     1.400   .     A
C46    H65     1.085   .     S
X47    C48     1.418   .     A
X47    X322    1.487   .     A
C48    C49     1.421   .     A
C48    C55     1.406   .     A
C49    C50     1.421   .     A
C49    C54     1.425   .     A
C50    C51     1.406   .     A
C51    C52     1.392   .     A
C51    H61     1.081   .     S
C52    C53     1.406   .     A
C52    H62     1.081   .     S
C53    C54     1.421   .     A
C53    X60     1.418   .     A
C54    C57     1.421   .     A
C55    C56     1.392   .     A
C55    H63     1.081   .     S
C56    C57     1.406   .     A
C56    H64     1.081   .     S
C57    X58     1.418   .     A
X58    C59     1.400   .     A
X58    X344    1.488   .     A
C59    X60     1.400   .     A
C59    H66     1.085   .     S
X60    X366    1.487   .     S
O67    Zr103   2.122   .     S
O67    X78     1.307   .     A
O68    Zr102   2.124   .     S
O68    X79     1.307   .     A
O69    Zr75    2.118   .     S
O69    X80     1.308   .     A
O70    X81     1.308   .     A
O70    Zr75    2.120   1_465 S
O71    X81     1.310   .     A
O71    Zr105   2.127   1_455 A
O72    Zr104   2.129   .     S
O72    X80     1.310   .     A
O73    X79     1.308   .     A
O73    Zr75    2.128   1_455 S
O74    Zr75    2.127   .     S
O74    X78     1.308   .     A
Zr75   O77     2.069   .     S
Zr75   Zr103   3.095   .     S
Zr75   Zr104   3.100   .     S
Zr75   O70     2.120   1_645 S
Zr75   O73     2.128   1_655 S
Zr75   O76     2.068   1_645 A
Zr75   O85     2.057   1_545 A
Zr75   O83     2.056   1_655 A
Zr75   Zr102   3.091   1_655 A
Zr75   Zr105   3.100   1_545 S
O76    Zr75    2.068   1_465 A
O76    Zr102   2.067   1_565 S
O76    Zr105   2.069   1_455 A
O77    Zr103   2.069   .     S
O77    Zr104   2.068   .     S
X78    X176    1.470   .     S
X79    X198    1.471   .     S
X80    X330    1.483   .     S
X81    X352    1.483   .     S
H82    O83     0.992   .     S
O83    Zr102   2.056   .     S
O83    Zr75    2.056   1_455 A
O83    Zr104   2.058   1_455 A
H84    O85     0.992   .     S
O85    Zr105   2.057   .     S
O85    Zr75    2.057   1_565 A
O85    Zr103   2.057   1_565 A
O86    X109    1.308   .     A
O86    Zr102   2.120   1_554 A
O87    X110    1.308   .     A
O87    Zr103   2.125   1_554 A
O88    Zr104   2.129   1_455 A
O88    X111    1.310   1_556 A
O89    X112    1.310   .     A
O89    Zr105   2.128   1_455 S
O90    X113    1.310   .     A
O90    Zr105   2.128   1_554 A
O91    Zr104   2.127   .     S
O91    X114    1.310   .     A
O92    X115    1.308   .     A
O92    Zr106   2.119   1_455 A
O93    X116    1.308   .     A
O93    Zr106   2.119   1_565 A
O94    X115    1.310   .     A
O94    Zr104   2.127   1_454 S
O95    X116    1.310   .     A
O95    Zr105   2.129   1_554 A
O96    Zr102   2.118   .     S
O96    X111    1.308   1_556 S
O97    Zr103   2.120   .     S
O97    X114    1.308   .     A
O98    X113    1.308   .     A
O98    Zr103   2.117   1_564 A
O99    X112    1.308   .     A
O99    Zr102   2.119   1_565 A
O100   X109    1.310   .     A
O100   Zr106   2.130   1_455 A
O101   Zr106   2.128   .     S
O101   X110    1.309   .     A
Zr102  Zr75    3.091   1_455 A
Zr102  O76     2.067   1_545 S
Zr102  O86     2.120   1_556 A
Zr102  O99     2.119   1_545 A
Zr102  O108    2.068   1_556 A
Zr102  O120    2.057   1_546 S
Zr102  Zr104   3.098   1_455 A
Zr102  Zr105   3.098   1_445 S
Zr102  Zr106   3.092   1_456 A
Zr103  Zr104   3.099   .     S
Zr103  O85     2.057   1_545 A
Zr103  O87     2.125   1_556 A
Zr103  O98     2.117   1_546 A
Zr103  O107    2.067   1_546 S
Zr103  O118    2.057   1_556 A
Zr103  Zr105   3.094   1_545 S
Zr103  Zr106   3.095   1_556 A
Zr104  O83     2.058   1_655 A
Zr104  O88     2.129   1_655 A
Zr104  O94     2.127   1_656 S
Zr104  Zr102   3.098   1_655 A
Zr104  O108    2.069   1_656 S
Zr104  O118    2.057   1_556 A
Zr104  Zr106   3.098   1_556 A
Zr105  O71     2.127   1_655 A
Zr105  Zr75    3.100   1_565 S
Zr105  O76     2.069   1_655 A
Zr105  O89     2.128   1_655 S
Zr105  O90     2.128   1_556 A
Zr105  O95     2.129   1_556 A
Zr105  Zr102   3.098   1_665 S
Zr105  Zr103   3.094   1_565 S
Zr105  O107    2.069   1_556 A
Zr105  O120    2.058   1_656 A
Zr105  Zr106   3.102   1_566 A
Zr106  O118    2.057   .     S
Zr106  O92     2.119   1_655 A
Zr106  O93     2.119   1_545 A
Zr106  O100    2.130   1_655 A
Zr106  Zr102   3.092   1_654 A
Zr106  Zr103   3.095   1_554 A
Zr106  Zr104   3.098   1_554 A
Zr106  Zr105   3.102   1_544 A
Zr106  O107    2.069   1_545 S
Zr106  O108    2.067   1_655 A
Zr106  O120    2.057   1_645 S
O107   Zr103   2.067   1_564 S
O107   Zr105   2.069   1_554 A
O107   Zr106   2.069   1_565 S
O108   Zr102   2.068   1_554 A
O108   Zr104   2.069   1_454 S
O108   Zr106   2.067   1_455 A
X109   X132    1.488   .     S
X110   X154    1.474   .     S
X111   X220    1.484   .     S
X111   O88     1.310   1_554 A
X111   O96     1.308   1_554 S
X112   X242    1.483   .     S
X113   X264    1.486   .     S
X114   X286    1.486   .     S
X115   X308    1.483   .     S
X116   X374    1.483   .     S
H117   O118    0.992   .     S
O118   Zr103   2.057   1_554 A
O118   Zr104   2.057   1_554 A
H119   O120    0.992   .     S
O120   Zr102   2.057   1_564 S
O120   Zr105   2.058   1_454 A
O120   Zr106   2.057   1_465 S
C121   C126    1.402   .     A
C121   C127    1.446   .     S
C121   C122    1.401   1_545 A
C122   C123    1.400   .     A
C122   H135    1.083   .     S
C122   C121    1.401   1_565 A
C123   H136    1.083   .     S
C123   X124    1.405   1_565 A
X124   C125    1.406   .     A
X124   C123    1.405   1_545 A
C125   C126    1.402   .     A
C125   H137    1.083   .     S
C126   H138    1.083   .     S
C127   C128    1.210   .     T
C128   C129    1.446   .     S
C129   C130    1.399   .     A
C129   C134    1.402   .     A
C130   C131    1.399   .     A
C130   H139    1.083   .     S
C131   X132    1.409   .     A
C131   H140    1.083   .     S
X132   C133    1.409   .     A
C133   C134    1.403   .     A
C133   H141    1.083   .     S
C134   H142    1.083   .     S
C143   C148    1.403   .     A
C143   C149    1.449   .     S
C143   C144    1.402   1_545 S
C144   C145    1.401   .     A
C144   H157    1.083   .     S
C144   C143    1.402   1_565 S
C145   H158    1.083   .     S
C145   X146    1.404   1_565 S
X146   C147    1.405   .     A
X146   C145    1.404   1_545 S
C147   C148    1.403   .     A
C147   H159    1.083   .     S
C148   H160    1.084   .     S
C149   C150    1.211   .     T
C150   C151    1.449   .     S
C151   C156    1.403   .     A
C151   C152    1.403   1_545 S
C152   C153    1.402   .     A
C152   H161    1.083   .     S
C152   C151    1.403   1_565 S
C153   H162    1.084   .     S
C153   X154    1.403   1_565 S
X154   C155    1.404   .     A
X154   C153    1.403   1_545 S
C155   C156    1.403   .     A
C155   H163    1.084   .     S
C156   H164    1.083   .     S
C165   C170    1.403   .     A
C165   C171    1.446   .     S
C165   C166    1.401   1_545 S
C166   C167    1.400   .     A
C166   H179    1.083   .     S
C166   C165    1.401   1_565 S
C167   H180    1.083   .     S
C167   X168    1.404   1_565 S
X168   C169    1.405   .     A
X168   C167    1.404   1_545 S
C169   C170    1.402   .     A
C169   H181    1.083   .     S
C170   H182    1.083   .     S
C171   C172    1.210   .     T
C172   C173    1.446   .     S
C173   C178    1.403   .     A
C173   C174    1.402   1_545 S
C174   C175    1.400   .     A
C174   H183    1.083   .     S
C174   C173    1.402   1_565 S
C175   H184    1.084   .     S
C175   X176    1.403   1_565 S
X176   C177    1.404   .     A
X176   C175    1.403   1_545 S
C177   C178    1.402   .     A
C177   H185    1.083   .     S
C178   H186    1.083   .     S
C187   C192    1.403   .     A
C187   C188    1.403   1_545 A
C187   C193    1.449   1_545 A
C188   C189    1.402   .     A
C188   H201    1.083   .     S
C188   C187    1.403   1_565 A
C189   H202    1.083   .     S
C189   X190    1.404   1_565 S
X190   C191    1.403   .     A
X190   C189    1.404   1_545 S
C191   C192    1.402   .     A
C191   H203    1.083   .     S
C192   H204    1.083   .     S
C193   C194    1.211   .     T
C193   C187    1.449   1_565 A
C194   C195    1.448   1_565 A
C195   C200    1.403   .     A
C195   C194    1.448   1_545 A
C195   C196    1.403   1_545 A
C196   C197    1.403   .     A
C196   H205    1.083   .     S
C196   C195    1.403   1_565 A
C197   H206    1.084   .     S
C197   X198    1.403   1_565 S
X198   C199    1.403   .     A
X198   C197    1.403   1_545 S
C199   C200    1.401   .     A
C199   H207    1.083   .     S
C200   H208    1.083   .     S
C209   C210    1.402   .     A
C209   C215    1.444   .     S
C209   C214    1.401   1_554 A
C210   C211    1.402   .     A
C210   H223    1.083   .     S
C211   H224    1.083   .     S
C211   X212    1.406   1_554 A
X212   C213    1.405   .     A
X212   C211    1.406   1_556 A
C213   C214    1.399   .     A
C213   H225    1.083   .     S
C214   H226    1.083   .     S
C214   C209    1.401   1_556 A
C215   C216    1.208   .     T
C216   C217    1.444   .     S
C217   C218    1.401   .     A
C217   C222    1.399   1_554 A
C218   C219    1.403   .     A
C218   H227    1.083   .     S
C219   X220    1.408   .     A
C219   H228    1.083   .     S
X220   C221    1.408   1_554 S
C221   C222    1.397   .     A
C221   H229    1.083   .     S
C221   X220    1.408   1_556 S
C222   H230    1.084   .     S
C222   C217    1.399   1_556 A
C231   C236    1.402   .     A
C231   C237    1.444   .     S
C231   C232    1.401   1_556 S
C232   C233    1.399   .     A
C232   H245    1.083   .     S
C232   C231    1.401   1_554 S
C233   H246    1.083   .     S
C233   X234    1.404   1_554 S
X234   C235    1.406   .     A
X234   C233    1.404   1_556 S
C235   C236    1.402   .     A
C235   H247    1.083   .     S
C236   H248    1.083   .     S
C237   C238    1.209   .     T
C238   C239    1.444   .     S
C239   C244    1.402   .     A
C239   C240    1.399   1_556 S
C240   C241    1.398   .     A
C240   H249    1.084   .     S
C240   C239    1.399   1_554 S
C241   H250    1.083   .     S
C241   X242    1.407   1_554 S
X242   C243    1.408   .     A
X242   C241    1.407   1_556 S
C243   C244    1.402   .     A
C243   H251    1.083   .     S
C244   H252    1.083   .     S
C253   C258    1.402   .     A
C253   C259    1.444   .     S
C253   C254    1.401   1_556 S
C254   C255    1.398   .     A
C254   H267    1.083   .     S
C254   C253    1.401   1_554 S
C255   H268    1.083   .     S
C255   X256    1.405   1_554 S
X256   C257    1.406   .     A
X256   C255    1.405   1_556 S
C257   C258    1.401   .     A
C257   H269    1.083   .     S
C258   H270    1.083   .     S
C259   C260    1.209   .     T
C260   C261    1.444   .     S
C261   C266    1.401   .     A
C261   C262    1.399   1_556 S
C262   C263    1.397   .     A
C262   H271    1.084   .     S
C262   C261    1.399   1_554 S
C263   X264    1.409   .     A
C263   H272    1.083   .     S
X264   C265    1.409   .     A
C265   C266    1.402   1_554 A
C265   H273    1.083   1_554 A
C266   H274    1.083   .     S
C266   C265    1.402   1_556 A
H273   C265    1.083   1_556 A
C275   C276    1.400   .     A
C275   C281    1.444   .     S
C275   C280    1.402   1_556 T
C276   C277    1.398   .     A
C276   H289    1.084   .     S
C277   X278    1.405   .     A
C277   H290    1.083   .     S
X278   C279    1.406   1_556 S
C279   C280    1.402   .     A
C279   H291    1.083   .     S
C279   X278    1.406   1_554 S
C280   H292    1.083   .     S
C280   C275    1.402   1_554 T
C281   C282    1.208   .     T
C282   C283    1.444   .     S
C283   C284    1.399   .     A
C283   C288    1.401   .     A
C284   C285    1.398   .     A
C284   H293    1.084   .     S
C285   X286    1.409   .     A
C285   H294    1.083   .     S
X286   C287    1.409   .     A
C287   C288    1.402   .     A
C287   H295    1.083   .     S
C288   H296    1.083   .     S
C297   C302    1.401   .     A
C297   C303    1.444   .     S
C297   C298    1.402   1_455 A
C298   C299    1.402   .     A
C298   H311    1.083   .     S
C298   C297    1.402   1_655 A
C299   H312    1.083   .     S
C299   X300    1.406   1_655 A
X300   C301    1.405   .     A
X300   C299    1.406   1_455 A
C301   C302    1.399   .     A
C301   H313    1.083   .     S
C302   H314    1.084   .     S
C303   C304    1.208   .     T
C304   C305    1.444   .     S
C305   C310    1.400   .     A
C305   C306    1.401   1_455 A
C306   C307    1.402   .     A
C306   H315    1.083   .     S
C306   C305    1.401   1_655 A
C307   H316    1.083   .     S
C307   X308    1.408   1_655 S
X308   C309    1.408   .     A
X308   C307    1.408   1_455 S
C309   C310    1.398   .     A
C309   H317    1.083   .     S
C310   H318    1.084   .     S
C319   C320    1.402   .     A
C319   C325    1.444   .     S
C319   C324    1.400   1_655 A
C320   C321    1.401   .     A
C320   H333    1.083   .     S
C321   H334    1.083   .     S
C321   X322    1.406   1_655 S
X322   C323    1.405   .     A
X322   C321    1.406   1_455 S
C323   C324    1.399   .     A
C323   H335    1.083   .     S
C324   H336    1.083   .     S
C324   C319    1.400   1_455 A
C325   C326    1.208   .     T
C326   C327    1.444   .     S
C327   C328    1.402   .     A
C327   C332    1.399   1_655 S
C328   C329    1.403   .     A
C328   H337    1.083   .     S
C329   X330    1.408   .     A
C329   H338    1.083   .     S
X330   C331    1.408   1_655 A
C331   C332    1.397   .     A
C331   H339    1.083   .     S
C331   X330    1.408   1_455 A
C332   H340    1.084   .     S
C332   C327    1.399   1_455 S
C341   C346    1.401   .     A
C341   C347    1.444   .     S
C341   C342    1.402   1_455 S
C342   C343    1.401   .     A
C342   H355    1.083   .     S
C342   C341    1.402   1_655 S
C343   H356    1.083   .     S
C343   X344    1.406   1_655 S
X344   C345    1.405   .     A
X344   C343    1.406   1_455 S
C345   C346    1.398   .     A
C345   H357    1.083   .     S
C346   H358    1.084   .     S
C347   C348    1.209   .     T
C348   C349    1.444   .     S
C349   C354    1.400   .     A
C349   C350    1.402   1_455 A
C350   C351    1.402   .     A
C350   H359    1.083   .     S
C350   C349    1.402   1_655 A
C351   H360    1.083   .     S
C351   X352    1.408   1_655 S
X352   C353    1.407   .     A
X352   C351    1.408   1_455 S
C353   C354    1.398   .     A
C353   H361    1.083   .     S
C354   H362    1.083   .     S
C363   C364    1.402   .     A
C363   C369    1.444   .     S
C363   C368    1.401   1_655 A
C364   C365    1.401   .     A
C364   H377    1.083   .     S
C365   H378    1.083   .     S
C365   X366    1.406   1_655 S
X366   C367    1.405   .     A
X366   C365    1.406   1_455 S
C367   C368    1.399   .     A
C367   H379    1.083   .     S
C368   H380    1.083   .     S
C368   C363    1.401   1_455 A
C369   C370    1.209   .     T
C370   C371    1.444   .     S
C371   C372    1.402   .     A
C371   C376    1.399   1_655 S
C372   C373    1.402   .     A
C372   H381    1.083   .     S
C373   X374    1.408   .     A
C373   H382    1.083   .     S
X374   C375    1.407   1_655 A
C375   C376    1.398   .     A
C375   H383    1.083   .     S
C375   X374    1.407   1_455 A
C376   H384    1.084   .     S
C376   C371    1.399   1_455 S
