data_ja512973b_si_005_auto
_audit_creation_date              2018-09-04
_audit_creation_method            'Materials Studio'
_symmetry_space_group_name_H-M    'P1'
_symmetry_Int_Tables_number       1
_symmetry_cell_setting            triclinic
loop_
_symmetry_equiv_pos_as_xyz
  x,y,z
_cell_length_a                    28.9202
_cell_length_b                    28.9202
_cell_length_c                    28.9202
_cell_angle_alpha                 90.0000
_cell_angle_beta                  90.0000
_cell_angle_gamma                 90.0000
loop_
_atom_site_label
_atom_site_type_symbol
_atom_site_fract_x
_atom_site_fract_y
_atom_site_fract_z
_atom_site_U_iso_or_equiv
_atom_site_adp_type
_atom_site_occupancy
C1     C     0.52371   0.02081   0.35499   0.00000  Uiso   1.00
C2     C     0.47630   0.02030   0.35504   0.00000  Uiso   1.00
C3     C     0.46248   0.00627   0.40167   0.00000  Uiso   1.00
N4     N     0.50033   0.99848   0.42804   0.00000  Uiso   1.00
C5     C     0.53794   0.00698   0.40157   0.00000  Uiso   1.00
X6     C     0.41647   0.99820   0.41579   0.00000  Uiso   1.00
C7     C     0.40365   0.99055   0.46240   0.00000  Uiso   1.00
C8     C     0.36098   0.97382   0.47651   0.00000  Uiso   1.00
C9     C     0.36102   0.97429   0.52406   0.00000  Uiso   1.00
C10    C     0.40374   0.99123   0.53776   0.00000  Uiso   1.00
N11    N     0.42952   0.00111   0.49996   0.00000  Uiso   1.00
X12    C     0.41673   0.99959   0.58418   0.00000  Uiso   1.00
C13    C     0.46291   0.00701   0.59811   0.00000  Uiso   1.00
C14    C     0.47713   0.02086   0.64468   0.00000  Uiso   1.00
C15    C     0.52454   0.02038   0.64463   0.00000  Uiso   1.00
C16    C     0.53837   0.00633   0.59800   0.00000  Uiso   1.00
N17    N     0.50053   0.99852   0.57164   0.00000  Uiso   1.00
X18    C     0.58439   0.99828   0.58389   0.00000  Uiso   1.00
C19    C     0.59721   0.99061   0.53729   0.00000  Uiso   1.00
C20    C     0.63989   0.97390   0.52318   0.00000  Uiso   1.00
C21    C     0.63985   0.97435   0.47563   0.00000  Uiso   1.00
C22    C     0.59712   0.99126   0.46193   0.00000  Uiso   1.00
N23    N     0.57134   0.00114   0.49972   0.00000  Uiso   1.00
X24    C     0.58413   0.99959   0.41550   0.00000  Uiso   1.00
H25    H     0.54552   0.03001   0.32601   0.00000  Uiso   1.00
H26    H     0.45423   0.02905   0.32613   0.00000  Uiso   1.00
H27    H     0.54009   0.01889   0.49988   0.00000  Uiso   1.00
H28    H     0.33258   0.96273   0.45482   0.00000  Uiso   1.00
H29    H     0.33268   0.96362   0.54604   0.00000  Uiso   1.00
H30    H     0.45533   0.03006   0.67366   0.00000  Uiso   1.00
H31    H     0.54661   0.02915   0.67354   0.00000  Uiso   1.00
H32    H     0.66820   0.96368   0.45366   0.00000  Uiso   1.00
H33    H     0.46076   0.01887   0.49979   0.00000  Uiso   1.00
H34    H     0.66830   0.96283   0.54488   0.00000  Uiso   1.00
C35    C     0.35559   0.51981   0.02422   0.00000  Uiso   1.00
C36    C     0.35564   0.47240   0.02374   0.00000  Uiso   1.00
C37    C     0.40227   0.45858   0.00969   0.00000  Uiso   1.00
N38    N     0.42864   0.49642   0.00188   0.00000  Uiso   1.00
C39    C     0.40216   0.53404   0.01037   0.00000  Uiso   1.00
X40    C     0.41638   0.41256   0.00164   0.00000  Uiso   1.00
C41    C     0.46299   0.39974   0.99398   0.00000  Uiso   1.00
C42    C     0.47710   0.35706   0.97726   0.00000  Uiso   1.00
C43    C     0.52465   0.35710   0.97772   0.00000  Uiso   1.00
C44    C     0.53835   0.39983   0.99463   0.00000  Uiso   1.00
N45    N     0.50055   0.42561   0.00451   0.00000  Uiso   1.00
X46    C     0.58478   0.41282   0.00296   0.00000  Uiso   1.00
C47    C     0.59871   0.45901   0.01036   0.00000  Uiso   1.00
C48    C     0.64528   0.47324   0.02419   0.00000  Uiso   1.00
C49    C     0.64523   0.52065   0.02368   0.00000  Uiso   1.00
C50    C     0.59860   0.53447   0.00964   0.00000  Uiso   1.00
N51    N     0.57223   0.49662   0.00185   0.00000  Uiso   1.00
X52    C     0.58448   0.58048   0.00157   0.00000  Uiso   1.00
C53    C     0.53788   0.59330   0.99392   0.00000  Uiso   1.00
C54    C     0.52376   0.63597   0.97719   0.00000  Uiso   1.00
C55    C     0.47621   0.63593   0.97766   0.00000  Uiso   1.00
C56    C     0.46252   0.59321   0.99460   0.00000  Uiso   1.00
N57    N     0.50031   0.56743   0.00447   0.00000  Uiso   1.00
X58    C     0.41609   0.58022   0.00295   0.00000  Uiso   1.00
H59    H     0.32662   0.54162   0.03342   0.00000  Uiso   1.00
H60    H     0.32673   0.45034   0.03251   0.00000  Uiso   1.00
H61    H     0.50048   0.53619   0.02224   0.00000  Uiso   1.00
H62    H     0.45540   0.32865   0.96619   0.00000  Uiso   1.00
H63    H     0.54662   0.32875   0.96705   0.00000  Uiso   1.00
H64    H     0.67426   0.45144   0.03338   0.00000  Uiso   1.00
H65    H     0.67414   0.54272   0.03242   0.00000  Uiso   1.00
H66    H     0.45423   0.66427   0.96698   0.00000  Uiso   1.00
H67    H     0.50040   0.45686   0.02226   0.00000  Uiso   1.00
H68    H     0.54546   0.66437   0.96609   0.00000  Uiso   1.00
C69    C     0.97645   0.64131   0.47572   0.00000  Uiso   1.00
C70    C     0.97596   0.64136   0.52313   0.00000  Uiso   1.00
C71    C     0.98981   0.59479   0.53736   0.00000  Uiso   1.00
N72    N     0.99830   0.56831   0.49974   0.00000  Uiso   1.00
C73    C     0.99049   0.59468   0.46190   0.00000  Uiso   1.00
X74    C     0.99723   0.58086   0.58354   0.00000  Uiso   1.00
C75    C     0.00559   0.53444   0.59653   0.00000  Uiso   1.00
C76    C     0.02253   0.52074   0.63925   0.00000  Uiso   1.00
C77    C     0.02300   0.47320   0.63929   0.00000  Uiso   1.00
C78    C     0.00627   0.45908   0.59662   0.00000  Uiso   1.00
N79    N     0.99571   0.49664   0.57075   0.00000  Uiso   1.00
X80    C     0.99861   0.41247   0.58380   0.00000  Uiso   1.00
C81    C     0.99055   0.39835   0.53779   0.00000  Uiso   1.00
C82    C     0.97652   0.35172   0.52398   0.00000  Uiso   1.00
C83    C     0.97601   0.35167   0.47657   0.00000  Uiso   1.00
C84    C     0.98984   0.39824   0.46234   0.00000  Uiso   1.00
N85    N     0.99833   0.42472   0.49995   0.00000  Uiso   1.00
X86    C     0.99723   0.41217   0.41615   0.00000  Uiso   1.00
C87    C     0.00556   0.45860   0.40315   0.00000  Uiso   1.00
C88    C     0.02248   0.47230   0.36043   0.00000  Uiso   1.00
C89    C     0.02293   0.51985   0.36039   0.00000  Uiso   1.00
C90    C     0.00621   0.53396   0.40306   0.00000  Uiso   1.00
N91    N     0.99568   0.49639   0.42894   0.00000  Uiso   1.00
X92    C     0.99855   0.58056   0.41588   0.00000  Uiso   1.00
H93    H     0.96768   0.67022   0.45365   0.00000  Uiso   1.00
H94    H     0.96676   0.67034   0.54494   0.00000  Uiso   1.00
H95    H     0.97793   0.49655   0.46018   0.00000  Uiso   1.00
H96    H     0.03321   0.54272   0.66759   0.00000  Uiso   1.00
H97    H     0.03409   0.45150   0.66770   0.00000  Uiso   1.00
H98    H     0.96777   0.32280   0.54605   0.00000  Uiso   1.00
H99    H     0.96681   0.32269   0.45477   0.00000  Uiso   1.00
H100   H     0.03401   0.54155   0.33198   0.00000  Uiso   1.00
H101   H     0.97795   0.49647   0.53952   0.00000  Uiso   1.00
H102   H     0.03316   0.45032   0.33208   0.00000  Uiso   1.00
O103   O     0.93785   0.99502   0.88082   0.00000  Uiso   1.00
O104   O     0.93778   0.99809   0.11881   0.00000  Uiso   1.00
O105   O     0.88141   0.93394   0.99821   0.00000  Uiso   1.00
O106   O     0.88146   0.05917   0.00142   0.00000  Uiso   1.00
O107   O     0.93782   0.11552   0.00145   0.00000  Uiso   1.00
O108   O     0.93773   0.87755   0.99821   0.00000  Uiso   1.00
O109   O     0.88143   0.99812   0.06245   0.00000  Uiso   1.00
O110   O     0.88146   0.99500   0.93714   0.00000  Uiso   1.00
Zr111  Zr    0.91906   0.99654   0.99981   0.00000  Uiso   1.00
O112   O     0.95848   0.03847   0.04180   0.00000  Uiso   1.00
O113   O     0.95847   0.95458   0.95784   0.00000  Uiso   1.00
X114   C     0.89500   0.99428   0.89430   0.00000  Uiso   1.00
X115   C     0.89494   0.99887   0.10530   0.00000  Uiso   1.00
X116   C     0.89489   0.89109   0.99746   0.00000  Uiso   1.00
X117   C     0.89498   0.10201   0.00220   0.00000  Uiso   1.00
H118   H     0.93888   0.93502   0.06131   0.00000  Uiso   1.00
O119   O     0.95863   0.95475   0.04158   0.00000  Uiso   1.00
H120   H     0.93897   0.05807   0.93834   0.00000  Uiso   1.00
O121   O     0.95869   0.03832   0.95808   0.00000  Uiso   1.00
O122   O     0.06301   0.99488   0.11886   0.00000  Uiso   1.00
O123   O     0.06309   0.99814   0.88088   0.00000  Uiso   1.00
O124   O     0.00193   0.87750   0.06242   0.00000  Uiso   1.00
O125   O     0.99886   0.11548   0.06250   0.00000  Uiso   1.00
O126   O     0.00206   0.11554   0.93727   0.00000  Uiso   1.00
O127   O     0.99881   0.87755   0.93718   0.00000  Uiso   1.00
O128   O     0.11940   0.93386   0.00145   0.00000  Uiso   1.00
O129   O     0.11945   0.05910   0.99834   0.00000  Uiso   1.00
O130   O     0.06304   0.87751   0.00140   0.00000  Uiso   1.00
O131   O     0.06313   0.11548   0.99833   0.00000  Uiso   1.00
O132   O     0.00195   0.93381   0.11881   0.00000  Uiso   1.00
O133   O     0.99886   0.93392   0.88083   0.00000  Uiso   1.00
O134   O     0.00206   0.05922   0.88088   0.00000  Uiso   1.00
O135   O     0.99882   0.05912   0.11885   0.00000  Uiso   1.00
O136   O     0.11940   0.99488   0.06254   0.00000  Uiso   1.00
O137   O     0.11944   0.99808   0.93724   0.00000  Uiso   1.00
Zr138  Zr    0.00041   0.99648   0.08121   0.00000  Uiso   1.00
Zr139  Zr    0.00046   0.99655   0.91847   0.00000  Uiso   1.00
Zr140  Zr    0.00040   0.91515   0.99981   0.00000  Uiso   1.00
Zr141  Zr    0.00046   0.07789   0.99987   0.00000  Uiso   1.00
Zr142  Zr    0.08180   0.99649   0.99987   0.00000  Uiso   1.00
O143   O     0.04243   0.03848   0.95791   0.00000  Uiso   1.00
O144   O     0.04237   0.95452   0.04181   0.00000  Uiso   1.00
X145   C     0.10586   0.99413   0.10538   0.00000  Uiso   1.00
X146   C     0.10593   0.99887   0.89439   0.00000  Uiso   1.00
X147   C     0.00267   0.89097   0.10527   0.00000  Uiso   1.00
X148   C     0.99808   0.10197   0.10534   0.00000  Uiso   1.00
X149   C     0.00281   0.10206   0.89441   0.00000  Uiso   1.00
X150   C     0.99808   0.89107   0.89434   0.00000  Uiso   1.00
X151   C     0.10588   0.89102   0.00219   0.00000  Uiso   1.00
X152   C     0.10597   0.10195   0.99760   0.00000  Uiso   1.00
H153   H     0.06193   0.93502   0.93834   0.00000  Uiso   1.00
O154   O     0.04220   0.95475   0.95808   0.00000  Uiso   1.00
H155   H     0.06193   0.05798   0.06139   0.00000  Uiso   1.00
O156   O     0.04220   0.03826   0.04164   0.00000  Uiso   1.00
C157   C     0.31087   0.99466   0.31113   0.00000  Uiso   1.00
C158   C     0.30974   0.02855   0.34574   0.00000  Uiso   1.00
C159   C     0.34405   0.02966   0.37983   0.00000  Uiso   1.00
X160   C     0.37989   0.99688   0.37966   0.00000  Uiso   1.00
C161   C     0.38077   0.96285   0.34499   0.00000  Uiso   1.00
C162   C     0.34646   0.96180   0.31089   0.00000  Uiso   1.00
C163   C     0.27567   0.99375   0.27582   0.00000  Uiso   1.00
C164   C     0.24622   0.99315   0.24623   0.00000  Uiso   1.00
C165   C     0.21103   0.99269   0.21089   0.00000  Uiso   1.00
C166   C     0.22349   0.99256   0.16412   0.00000  Uiso   1.00
C167   C     0.18938   0.99276   0.12980   0.00000  Uiso   1.00
X168   C     0.14215   0.99311   0.14177   0.00000  Uiso   1.00
C169   C     0.13003   0.99295   0.18896   0.00000  Uiso   1.00
C170   C     0.16422   0.99276   0.22319   0.00000  Uiso   1.00
H171   H     0.28240   0.05416   0.34630   0.00000  Uiso   1.00
H172   H     0.34284   0.05616   0.40628   0.00000  Uiso   1.00
H173   H     0.40804   0.93719   0.34442   0.00000  Uiso   1.00
H174   H     0.34771   0.93540   0.28433   0.00000  Uiso   1.00
H175   H     0.25961   0.99250   0.15416   0.00000  Uiso   1.00
H176   H     0.20008   0.99282   0.09392   0.00000  Uiso   1.00
H177   H     0.09411   0.99318   0.19954   0.00000  Uiso   1.00
H178   H     0.15413   0.99286   0.25927   0.00000  Uiso   1.00
C179   C     0.68975   0.00006   0.31084   0.00000  Uiso   1.00
C180   C     0.69022   0.03332   0.34606   0.00000  Uiso   1.00
C181   C     0.65590   0.03310   0.38016   0.00000  Uiso   1.00
X182   C     0.62072   0.99961   0.37936   0.00000  Uiso   1.00
C183   C     0.62054   0.96619   0.34410   0.00000  Uiso   1.00
C184   C     0.65485   0.96647   0.31000   0.00000  Uiso   1.00
C185   C     0.72501   0.00041   0.27558   0.00000  Uiso   1.00
C186   C     0.75450   0.00063   0.24602   0.00000  Uiso   1.00
C187   C     0.78971   0.00075   0.21071   0.00000  Uiso   1.00
C188   C     0.83651   0.00083   0.22305   0.00000  Uiso   1.00
C189   C     0.87072   0.00045   0.18885   0.00000  Uiso   1.00
X190   C     0.85863   0.99996   0.14165   0.00000  Uiso   1.00
C191   C     0.81141   0.00012   0.12965   0.00000  Uiso   1.00
C192   C     0.77728   0.00049   0.16394   0.00000  Uiso   1.00
H193   H     0.71704   0.05945   0.34710   0.00000  Uiso   1.00
H194   H     0.65658   0.05912   0.40710   0.00000  Uiso   1.00
H195   H     0.59381   0.93998   0.34307   0.00000  Uiso   1.00
H196   H     0.65416   0.94052   0.28298   0.00000  Uiso   1.00
H197   H     0.84657   0.00105   0.25914   0.00000  Uiso   1.00
H198   H     0.90663   0.00039   0.19946   0.00000  Uiso   1.00
H199   H     0.80073   0.99978   0.09376   0.00000  Uiso   1.00
H200   H     0.74117   0.00044   0.15396   0.00000  Uiso   1.00
C201   C     0.68998   0.99481   0.68855   0.00000  Uiso   1.00
C202   C     0.65441   0.96193   0.68881   0.00000  Uiso   1.00
C203   C     0.62010   0.96297   0.65471   0.00000  Uiso   1.00
X204   C     0.62097   0.99698   0.62003   0.00000  Uiso   1.00
C205   C     0.65679   0.02978   0.61984   0.00000  Uiso   1.00
C206   C     0.69111   0.02869   0.65394   0.00000  Uiso   1.00
C207   C     0.72519   0.99392   0.72387   0.00000  Uiso   1.00
C208   C     0.75465   0.99333   0.75345   0.00000  Uiso   1.00
C209   C     0.78984   0.99287   0.78879   0.00000  Uiso   1.00
C210   C     0.77737   0.99275   0.83556   0.00000  Uiso   1.00
C211   C     0.81148   0.99294   0.86988   0.00000  Uiso   1.00
X212   C     0.85871   0.99328   0.85792   0.00000  Uiso   1.00
C213   C     0.87084   0.99313   0.81072   0.00000  Uiso   1.00
C214   C     0.83664   0.99295   0.77650   0.00000  Uiso   1.00
H215   H     0.65317   0.93555   0.71537   0.00000  Uiso   1.00
H216   H     0.59284   0.93729   0.65528   0.00000  Uiso   1.00
H217   H     0.65800   0.05627   0.59339   0.00000  Uiso   1.00
H218   H     0.71844   0.05431   0.65337   0.00000  Uiso   1.00
H219   H     0.74126   0.99268   0.84552   0.00000  Uiso   1.00
H220   H     0.80078   0.99300   0.90576   0.00000  Uiso   1.00
H221   H     0.90675   0.99335   0.80014   0.00000  Uiso   1.00
H222   H     0.84673   0.99304   0.74042   0.00000  Uiso   1.00
C223   C     0.31111   0.00005   0.68884   0.00000  Uiso   1.00
C224   C     0.34602   0.96647   0.68970   0.00000  Uiso   1.00
C225   C     0.38034   0.96620   0.65559   0.00000  Uiso   1.00
X226   C     0.38014   0.99960   0.62032   0.00000  Uiso   1.00
C227   C     0.34495   0.03308   0.61950   0.00000  Uiso   1.00
C228   C     0.31063   0.03329   0.65361   0.00000  Uiso   1.00
C229   C     0.27585   0.00040   0.72411   0.00000  Uiso   1.00
C230   C     0.24637   0.00062   0.75366   0.00000  Uiso   1.00
C231   C     0.21115   0.00073   0.78897   0.00000  Uiso   1.00
C232   C     0.22359   0.00043   0.83574   0.00000  Uiso   1.00
C233   C     0.18946   0.00006   0.87004   0.00000  Uiso   1.00
X234   C     0.14224   0.99995   0.85804   0.00000  Uiso   1.00
C235   C     0.13014   0.00050   0.81084   0.00000  Uiso   1.00
C236   C     0.16436   0.00087   0.77664   0.00000  Uiso   1.00
H237   H     0.34673   0.94054   0.71672   0.00000  Uiso   1.00
H238   H     0.40708   0.94000   0.65663   0.00000  Uiso   1.00
H239   H     0.34426   0.05908   0.59256   0.00000  Uiso   1.00
H240   H     0.28380   0.05941   0.65255   0.00000  Uiso   1.00
H241   H     0.25970   0.00033   0.84572   0.00000  Uiso   1.00
H242   H     0.20014   0.99968   0.90592   0.00000  Uiso   1.00
H243   H     0.09424   0.00048   0.80023   0.00000  Uiso   1.00
H244   H     0.15429   0.00113   0.74055   0.00000  Uiso   1.00
C245   C     0.31172   0.30696   0.99816   0.00000  Uiso   1.00
C246   C     0.31147   0.34254   0.96529   0.00000  Uiso   1.00
C247   C     0.34557   0.37685   0.96633   0.00000  Uiso   1.00
X248   C     0.38025   0.37598   0.00034   0.00000  Uiso   1.00
C249   C     0.38043   0.34015   0.03314   0.00000  Uiso   1.00
C250   C     0.34634   0.30584   0.03205   0.00000  Uiso   1.00
C251   C     0.27641   0.27176   0.99727   0.00000  Uiso   1.00
C252   C     0.24682   0.24230   0.99668   0.00000  Uiso   1.00
C253   C     0.21149   0.20711   0.99621   0.00000  Uiso   1.00
C254   C     0.22378   0.16030   0.99628   0.00000  Uiso   1.00
C255   C     0.18955   0.12611   0.99646   0.00000  Uiso   1.00
X256   C     0.14236   0.13824   0.99661   0.00000  Uiso   1.00
C257   C     0.13040   0.18547   0.99627   0.00000  Uiso   1.00
C258   C     0.16472   0.21958   0.99609   0.00000  Uiso   1.00
H259   H     0.28491   0.34378   0.93890   0.00000  Uiso   1.00
H260   H     0.34499   0.40412   0.94065   0.00000  Uiso   1.00
H261   H     0.40689   0.33895   0.05962   0.00000  Uiso   1.00
H262   H     0.34691   0.27851   0.05766   0.00000  Uiso   1.00
H263   H     0.25986   0.15021   0.99638   0.00000  Uiso   1.00
H264   H     0.20014   0.09020   0.99668   0.00000  Uiso   1.00
H265   H     0.09452   0.19617   0.99633   0.00000  Uiso   1.00
H266   H     0.15476   0.25569   0.99602   0.00000  Uiso   1.00
C267   C     0.31143   0.68584   0.00339   0.00000  Uiso   1.00
C268   C     0.34666   0.68632   0.03664   0.00000  Uiso   1.00
C269   C     0.38076   0.65200   0.03643   0.00000  Uiso   1.00
X270   C     0.37996   0.61681   0.00296   0.00000  Uiso   1.00
C271   C     0.34468   0.61661   0.96955   0.00000  Uiso   1.00
C272   C     0.31058   0.65092   0.96982   0.00000  Uiso   1.00
C273   C     0.27617   0.72109   0.00373   0.00000  Uiso   1.00
C274   C     0.24661   0.75058   0.00395   0.00000  Uiso   1.00
C275   C     0.21130   0.78580   0.00406   0.00000  Uiso   1.00
C276   C     0.22363   0.83259   0.00420   0.00000  Uiso   1.00
C277   C     0.18943   0.86680   0.00382   0.00000  Uiso   1.00
X278   C     0.14224   0.85471   0.00327   0.00000  Uiso   1.00
C279   C     0.13024   0.80749   0.00338   0.00000  Uiso   1.00
C280   C     0.16453   0.77336   0.00375   0.00000  Uiso   1.00
H281   H     0.34771   0.71316   0.06275   0.00000  Uiso   1.00
H282   H     0.40771   0.65270   0.06244   0.00000  Uiso   1.00
H283   H     0.34364   0.58986   0.94336   0.00000  Uiso   1.00
H284   H     0.28355   0.65021   0.94389   0.00000  Uiso   1.00
H285   H     0.25972   0.84266   0.00445   0.00000  Uiso   1.00
H286   H     0.20004   0.90271   0.00380   0.00000  Uiso   1.00
H287   H     0.09435   0.79681   0.00300   0.00000  Uiso   1.00
H288   H     0.15455   0.73725   0.00366   0.00000  Uiso   1.00
C289   C     0.68914   0.68608   0.99802   0.00000  Uiso   1.00
C290   C     0.65454   0.68721   0.03191   0.00000  Uiso   1.00
C291   C     0.62044   0.65290   0.03303   0.00000  Uiso   1.00
X292   C     0.62062   0.61706   0.00024   0.00000  Uiso   1.00
C293   C     0.65529   0.61617   0.96622   0.00000  Uiso   1.00
C294   C     0.68939   0.65048   0.96516   0.00000  Uiso   1.00
C295   C     0.72446   0.72128   0.99710   0.00000  Uiso   1.00
C296   C     0.75404   0.75074   0.99650   0.00000  Uiso   1.00
C297   C     0.78938   0.78593   0.99602   0.00000  Uiso   1.00
C298   C     0.77709   0.83273   0.99610   0.00000  Uiso   1.00
C299   C     0.81131   0.86692   0.99629   0.00000  Uiso   1.00
X300   C     0.85851   0.85480   0.99644   0.00000  Uiso   1.00
C301   C     0.87047   0.80757   0.99608   0.00000  Uiso   1.00
C302   C     0.83615   0.77346   0.99590   0.00000  Uiso   1.00
H303   H     0.65398   0.71455   0.05751   0.00000  Uiso   1.00
H304   H     0.59400   0.65412   0.05952   0.00000  Uiso   1.00
H305   H     0.65585   0.58890   0.94055   0.00000  Uiso   1.00
H306   H     0.71594   0.64924   0.93876   0.00000  Uiso   1.00
H307   H     0.74101   0.84282   0.99620   0.00000  Uiso   1.00
H308   H     0.80073   0.90284   0.99652   0.00000  Uiso   1.00
H309   H     0.90635   0.79687   0.99615   0.00000  Uiso   1.00
H310   H     0.84611   0.73734   0.99583   0.00000  Uiso   1.00
C311   C     0.68944   0.30720   0.00342   0.00000  Uiso   1.00
C312   C     0.65422   0.30674   0.03668   0.00000  Uiso   1.00
C313   C     0.62011   0.34106   0.03647   0.00000  Uiso   1.00
X314   C     0.62091   0.37623   0.00298   0.00000  Uiso   1.00
C315   C     0.65617   0.37642   0.96956   0.00000  Uiso   1.00
C316   C     0.69028   0.34210   0.96984   0.00000  Uiso   1.00
C317   C     0.72470   0.27194   0.00377   0.00000  Uiso   1.00
C318   C     0.75426   0.24246   0.00399   0.00000  Uiso   1.00
C319   C     0.78956   0.20724   0.00410   0.00000  Uiso   1.00
C320   C     0.83633   0.21968   0.00384   0.00000  Uiso   1.00
C321   C     0.87063   0.18554   0.00346   0.00000  Uiso   1.00
X322   C     0.85862   0.13833   0.00330   0.00000  Uiso   1.00
C323   C     0.81143   0.12623   0.00379   0.00000  Uiso   1.00
C324   C     0.77723   0.16045   0.00418   0.00000  Uiso   1.00
H325   H     0.65318   0.27991   0.06281   0.00000  Uiso   1.00
H326   H     0.59318   0.34037   0.06248   0.00000  Uiso   1.00
H327   H     0.65721   0.40315   0.94335   0.00000  Uiso   1.00
H328   H     0.71729   0.34280   0.94389   0.00000  Uiso   1.00
H329   H     0.84632   0.25579   0.00379   0.00000  Uiso   1.00
H330   H     0.90651   0.19622   0.00312   0.00000  Uiso   1.00
H331   H     0.80082   0.09032   0.00373   0.00000  Uiso   1.00
H332   H     0.74114   0.15038   0.00440   0.00000  Uiso   1.00
C333   C     0.99680   0.30750   0.31053   0.00000  Uiso   1.00
C334   C     0.96354   0.34272   0.31006   0.00000  Uiso   1.00
C335   C     0.96374   0.37683   0.34438   0.00000  Uiso   1.00
X336   C     0.99722   0.37603   0.37956   0.00000  Uiso   1.00
C337   C     0.03065   0.34078   0.37975   0.00000  Uiso   1.00
C338   C     0.03038   0.30667   0.34544   0.00000  Uiso   1.00
C339   C     0.99647   0.27224   0.27527   0.00000  Uiso   1.00
C340   C     0.99626   0.24269   0.24578   0.00000  Uiso   1.00
C341   C     0.99616   0.20738   0.21057   0.00000  Uiso   1.00
C342   C     0.99609   0.21972   0.16378   0.00000  Uiso   1.00
C343   C     0.99647   0.18552   0.12956   0.00000  Uiso   1.00
X344   C     0.99698   0.13832   0.14165   0.00000  Uiso   1.00
C345   C     0.99681   0.12632   0.18887   0.00000  Uiso   1.00
C346   C     0.99643   0.16061   0.22300   0.00000  Uiso   1.00
H347   H     0.93741   0.34376   0.28323   0.00000  Uiso   1.00
H348   H     0.93772   0.40375   0.34369   0.00000  Uiso   1.00
H349   H     0.05685   0.33975   0.40649   0.00000  Uiso   1.00
H350   H     0.05633   0.27966   0.34614   0.00000  Uiso   1.00
H351   H     0.99586   0.25581   0.15371   0.00000  Uiso   1.00
H352   H     0.99654   0.19613   0.09365   0.00000  Uiso   1.00
H353   H     0.99715   0.09043   0.19955   0.00000  Uiso   1.00
H354   H     0.99648   0.15063   0.25911   0.00000  Uiso   1.00
C355   C     0.00220   0.30781   0.68940   0.00000  Uiso   1.00
C356   C     0.03505   0.30757   0.65381   0.00000  Uiso   1.00
C357   C     0.03398   0.34167   0.61950   0.00000  Uiso   1.00
X358   C     0.99995   0.37634   0.62039   0.00000  Uiso   1.00
C359   C     0.96717   0.37651   0.65623   0.00000  Uiso   1.00
C360   C     0.96830   0.34241   0.69055   0.00000  Uiso   1.00
C361   C     0.00312   0.27250   0.72461   0.00000  Uiso   1.00
C362   C     0.00374   0.24291   0.75406   0.00000  Uiso   1.00
C363   C     0.00422   0.20757   0.78925   0.00000  Uiso   1.00
C364   C     0.00435   0.16081   0.77679   0.00000  Uiso   1.00
C365   C     0.00417   0.12648   0.81090   0.00000  Uiso   1.00
X366   C     0.00382   0.13845   0.85812   0.00000  Uiso   1.00
C367   C     0.00397   0.18564   0.87025   0.00000  Uiso   1.00
C368   C     0.00415   0.21987   0.83606   0.00000  Uiso   1.00
H369   H     0.06145   0.28102   0.65256   0.00000  Uiso   1.00
H370   H     0.05964   0.34110   0.59222   0.00000  Uiso   1.00
H371   H     0.94068   0.40295   0.65745   0.00000  Uiso   1.00
H372   H     0.94270   0.34297   0.71789   0.00000  Uiso   1.00
H373   H     0.00441   0.15085   0.74067   0.00000  Uiso   1.00
H374   H     0.00411   0.09060   0.80019   0.00000  Uiso   1.00
H375   H     0.00375   0.19622   0.90617   0.00000  Uiso   1.00
H376   H     0.00405   0.25595   0.84615   0.00000  Uiso   1.00
C377   C     0.99681   0.68553   0.68915   0.00000  Uiso   1.00
C378   C     0.96356   0.65030   0.68964   0.00000  Uiso   1.00
C379   C     0.96376   0.61620   0.65532   0.00000  Uiso   1.00
X380   C     0.99723   0.61700   0.62013   0.00000  Uiso   1.00
C381   C     0.03064   0.65227   0.61992   0.00000  Uiso   1.00
C382   C     0.03038   0.68638   0.65423   0.00000  Uiso   1.00
C383   C     0.99648   0.72079   0.72441   0.00000  Uiso   1.00
C384   C     0.99627   0.75035   0.75390   0.00000  Uiso   1.00
C385   C     0.99617   0.78566   0.78911   0.00000  Uiso   1.00
C386   C     0.99604   0.77332   0.83591   0.00000  Uiso   1.00
C387   C     0.99643   0.80752   0.87012   0.00000  Uiso   1.00
X388   C     0.99698   0.85472   0.85803   0.00000  Uiso   1.00
C389   C     0.99687   0.86672   0.81081   0.00000  Uiso   1.00
C390   C     0.99649   0.83243   0.77668   0.00000  Uiso   1.00
H391   H     0.93745   0.64925   0.71648   0.00000  Uiso   1.00
H392   H     0.93775   0.58926   0.65602   0.00000  Uiso   1.00
H393   H     0.05683   0.65331   0.59317   0.00000  Uiso   1.00
H394   H     0.05631   0.71340   0.65352   0.00000  Uiso   1.00
H395   H     0.99578   0.73723   0.84597   0.00000  Uiso   1.00
H396   H     0.99645   0.79691   0.90603   0.00000  Uiso   1.00
H397   H     0.99725   0.90261   0.80013   0.00000  Uiso   1.00
H398   H     0.99657   0.84241   0.74057   0.00000  Uiso   1.00
C399   C     0.00206   0.68522   0.31028   0.00000  Uiso   1.00
C400   C     0.96817   0.65061   0.30915   0.00000  Uiso   1.00
C401   C     0.96707   0.61652   0.34347   0.00000  Uiso   1.00
X402   C     0.99986   0.61670   0.37930   0.00000  Uiso   1.00
C403   C     0.03388   0.65138   0.38018   0.00000  Uiso   1.00
C404   C     0.03492   0.68547   0.34587   0.00000  Uiso   1.00
C405   C     0.00296   0.72053   0.27508   0.00000  Uiso   1.00
C406   C     0.00356   0.75012   0.24562   0.00000  Uiso   1.00
C407   C     0.00404   0.78546   0.21043   0.00000  Uiso   1.00
C408   C     0.00397   0.77316   0.16362   0.00000  Uiso   1.00
C409   C     0.00380   0.80739   0.12943   0.00000  Uiso   1.00
X410   C     0.00366   0.85459   0.14156   0.00000  Uiso   1.00
C411   C     0.00400   0.86655   0.18879   0.00000  Uiso   1.00
C412   C     0.00417   0.83222   0.22290   0.00000  Uiso   1.00
H413   H     0.94256   0.65005   0.28182   0.00000  Uiso   1.00
H414   H     0.94058   0.59006   0.34226   0.00000  Uiso   1.00
H415   H     0.05955   0.65195   0.40745   0.00000  Uiso   1.00
H416   H     0.06132   0.71203   0.34711   0.00000  Uiso   1.00
H417   H     0.00387   0.73709   0.15353   0.00000  Uiso   1.00
H418   H     0.00358   0.79681   0.09352   0.00000  Uiso   1.00
H419   H     0.00394   0.90243   0.19949   0.00000  Uiso   1.00
H420   H     0.00423   0.84218   0.25901   0.00000  Uiso   1.00
loop_
_geom_bond_atom_site_label_1
_geom_bond_atom_site_label_2
_geom_bond_distance
_geom_bond_site_symmetry_2
_ccdc_geom_bond_type
C1     C2      1.371   .     A
C1     C5      1.464   .     S
C1     H25     1.082   .     S
C2     C3      1.464   .     S
C2     H26     1.082   .     S
C3     N4      1.353   1_545 A
C3     X6      1.411   1_545 S
N4     C3      1.353   1_565 A
N4     C5      1.353   1_565 S
C5     N4      1.353   1_545 S
C5     X24     1.412   1_545 A
X6     C7      1.415   .     A
X6     X160    1.487   .     A
X6     C3      1.411   1_565 S
C7     C8      1.387   .     A
C7     N11     1.354   1_565 A
C8     C9      1.375   .     A
C8     H28     1.082   .     S
C9     C10     1.387   .     A
C9     H29     1.082   .     S
C10    X12     1.415   .     A
C10    N11     1.354   1_565 A
N11    H33     1.039   .     S
N11    C7      1.354   1_545 A
N11    C10     1.354   1_545 A
X12    X226    1.487   .     S
X12    C13     1.411   1_565 S
C13    C14     1.464   .     S
C13    X12     1.411   1_545 S
C13    N17     1.353   1_545 S
C14    C15     1.371   .     A
C14    H30     1.082   .     S
C15    C16     1.464   .     S
C15    H31     1.082   .     S
C16    N17     1.353   1_545 S
C16    X18     1.411   1_545 S
N17    C13     1.353   1_565 S
N17    C16     1.353   1_565 S
X18    C19     1.415   .     A
X18    X204    1.488   .     S
X18    C16     1.411   1_565 S
C19    C20     1.387   .     A
C19    N23     1.354   1_565 S
C20    H34     1.082   .     S
C20    C21     1.375   .     A
C21    C22     1.387   .     A
C21    H32     1.082   .     S
C22    X24     1.415   .     A
C22    N23     1.353   1_565 A
N23    H27     1.039   .     S
N23    C19     1.354   1_545 S
N23    C22     1.353   1_545 A
X24    X182    1.487   .     S
X24    C5      1.412   1_565 A
C35    C36     1.371   .     A
C35    C39     1.464   .     S
C35    H59     1.082   .     S
C36    C37     1.464   .     S
C36    H60     1.082   .     S
C37    N38     1.353   .     A
C37    X40     1.411   .     A
N38    C39     1.353   .     A
C39    X58     1.411   .     A
X40    X248    1.487   .     S
X40    C41     1.415   1_554 A
C41    C42     1.387   .     A
C41    X40     1.415   1_556 A
C41    N45     1.354   1_556 S
C42    C43     1.375   .     A
C42    H62     1.082   .     S
C43    C44     1.387   .     A
C43    H63     1.082   .     S
C44    N45     1.354   1_556 A
C44    X46     1.415   1_556 S
N45    H67     1.039   .     S
N45    C41     1.354   1_554 S
N45    C44     1.354   1_554 A
X46    C47     1.412   .     A
X46    X314    1.487   .     S
X46    C44     1.415   1_554 S
C47    C48     1.464   .     S
C47    N51     1.353   .     A
C48    C49     1.371   .     A
C48    H64     1.082   .     S
C49    C50     1.464   .     S
C49    H65     1.082   .     S
C50    N51     1.353   .     A
C50    X52     1.411   .     A
X52    X292    1.488   .     S
X52    C53     1.415   1_554 S
C53    C54     1.387   .     A
C53    X52     1.415   1_556 S
C53    N57     1.354   1_556 S
C54    H68     1.082   .     S
C54    C55     1.375   .     A
C55    C56     1.387   .     A
C55    H66     1.082   .     S
C56    N57     1.353   1_556 A
C56    X58     1.415   1_556 A
N57    H61     1.039   .     S
N57    C53     1.354   1_554 S
N57    C56     1.353   1_554 A
X58    X270    1.487   .     A
X58    C56     1.415   1_554 A
C69    C70     1.371   .     A
C69    C73     1.464   .     S
C69    H93     1.082   .     S
C70    C71     1.464   .     S
C70    H94     1.082   .     S
C71    N72     1.353   .     A
C71    X74     1.411   .     A
N72    C73     1.353   .     A
C73    X92     1.412   .     A
X74    X380    1.487   .     A
X74    C75     1.415   1_655 A
C75    C76     1.387   .     A
C75    X74     1.415   1_455 A
C75    N79     1.354   1_455 S
C76    C77     1.375   .     A
C76    H96     1.082   .     S
C77    C78     1.387   .     A
C77    H97     1.082   .     S
C78    N79     1.354   1_455 A
C78    X80     1.415   1_455 S
N79    H101    1.039   .     S
N79    C75     1.354   1_655 S
N79    C78     1.354   1_655 A
X80    C81     1.411   .     A
X80    X358    1.488   .     A
X80    C78     1.415   1_655 S
C81    C82     1.464   .     S
C81    N85     1.353   .     A
C82    C83     1.371   .     A
C82    H98     1.082   .     S
C83    C84     1.464   .     S
C83    H99     1.082   .     S
C84    N85     1.353   .     A
C84    X86     1.412   .     A
X86    X336    1.487   .     A
X86    C87     1.415   1_655 S
C87    C88     1.387   .     A
C87    X86     1.415   1_455 S
C87    N91     1.354   1_455 A
C88    H102    1.082   .     S
C88    C89     1.375   .     A
C89    C90     1.387   .     A
C89    H100    1.082   .     S
C90    N91     1.354   1_455 S
C90    X92     1.415   1_455 S
N91    H95     1.039   .     S
N91    C87     1.354   1_655 A
N91    C90     1.354   1_655 S
X92    X402    1.488   .     S
X92    C90     1.415   1_655 S
O103   X114    1.299   .     A
O103   Zr139   2.113   1_655 S
O104   X115    1.299   .     A
O104   Zr138   2.113   1_655 A
O105   Zr111   2.113   .     S
O105   X116    1.299   .     A
O106   X117    1.299   .     A
O106   Zr111   2.113   1_544 S
O107   X117    1.299   .     A
O107   Zr141   2.114   1_654 A
O108   X116    1.300   .     A
O108   Zr140   2.114   1_655 A
O109   X115    1.300   .     A
O109   Zr111   2.114   1_554 S
O110   Zr111   2.114   .     S
O110   X114    1.300   .     A
Zr111  O113    2.060   .     S
Zr111  O106    2.113   1_566 S
Zr111  O109    2.114   1_556 S
Zr111  O112    2.060   1_566 A
Zr111  O121    2.057   1_565 S
Zr111  O119    2.057   1_556 S
O112   Zr111   2.060   1_544 A
O112   Zr138   2.060   1_645 S
O112   Zr141   2.060   1_654 A
O113   Zr139   2.060   1_655 A
O113   Zr140   2.060   1_655 A
X114   X212    1.486   .     S
X115   X190    1.486   .     S
X116   X300    1.486   .     S
X117   X322    1.487   .     S
H118   O119    0.989   .     S
O119   Zr111   2.057   1_554 S
O119   Zr138   2.057   1_655 A
O119   Zr140   2.057   1_654 A
H120   O121    0.989   .     S
O121   Zr111   2.057   1_545 S
O121   Zr139   2.057   1_645 S
O121   Zr141   2.057   1_655 A
O122   Zr138   2.113   .     S
O122   X145    1.299   .     A
O123   Zr139   2.113   .     S
O123   X146    1.299   .     A
O124   X147    1.299   .     A
O124   Zr140   2.113   1_554 S
O125   X148    1.299   .     A
O125   Zr141   2.113   1_654 S
O126   Zr141   2.113   .     S
O126   X149    1.300   .     A
O127   X150    1.299   .     A
O127   Zr140   2.113   1_655 A
O128   X151    1.299   .     A
O128   Zr142   2.113   1_554 A
O129   X152    1.299   .     A
O129   Zr142   2.113   1_545 S
O130   X151    1.299   .     A
O130   Zr140   2.114   1_554 A
O131   Zr141   2.114   .     S
O131   X152    1.299   .     A
O132   Zr138   2.114   .     S
O132   X147    1.300   .     A
O133   X150    1.300   .     A
O133   Zr139   2.114   1_655 A
O134   X149    1.299   .     A
O134   Zr139   2.114   1_545 S
O135   X148    1.300   .     A
O135   Zr138   2.114   1_645 S
O136   X145    1.300   .     A
O136   Zr142   2.114   1_554 S
O137   Zr142   2.114   .     S
O137   X146    1.300   .     A
Zr138  O144    2.060   .     S
Zr138  O104    2.113   1_455 A
Zr138  O112    2.060   1_465 S
Zr138  O119    2.057   1_455 A
Zr138  O135    2.114   1_465 S
Zr138  O156    2.057   1_565 S
Zr139  O154    2.057   .     S
Zr139  O103    2.113   1_455 S
Zr139  O113    2.060   1_455 A
Zr139  O121    2.057   1_465 S
Zr139  O133    2.114   1_455 A
Zr139  O134    2.114   1_565 S
Zr139  O143    2.060   1_565 A
Zr140  O154    2.057   .     S
Zr140  O108    2.114   1_455 A
Zr140  O113    2.060   1_455 A
Zr140  O119    2.057   1_456 A
Zr140  O124    2.113   1_556 S
Zr140  O127    2.113   1_455 A
Zr140  O130    2.114   1_556 A
Zr140  O144    2.060   1_556 A
Zr141  O143    2.060   .     S
Zr141  O107    2.114   1_456 A
Zr141  O112    2.060   1_456 A
Zr141  O121    2.057   1_455 A
Zr141  O125    2.113   1_456 S
Zr141  O156    2.057   1_556 S
Zr142  O154    2.057   .     S
Zr142  O128    2.113   1_556 A
Zr142  O129    2.113   1_565 S
Zr142  O136    2.114   1_556 S
Zr142  O143    2.060   1_565 S
Zr142  O144    2.060   1_556 S
Zr142  O156    2.057   1_566 A
O143   Zr139   2.060   1_545 A
O143   Zr142   2.060   1_545 S
O144   Zr140   2.060   1_554 A
O144   Zr142   2.060   1_554 S
X145   X168    1.487   .     S
X146   X234    1.486   .     S
X147   X410    1.486   .     S
X148   X344    1.486   .     S
X149   X366    1.487   .     S
X150   X388    1.486   .     S
X151   X278    1.486   .     S
X152   X256    1.487   .     S
H153   O154    0.988   .     S
H155   O156    0.988   .     S
O156   Zr138   2.057   1_545 S
O156   Zr141   2.057   1_554 S
O156   Zr142   2.057   1_544 A
C157   C162    1.401   .     A
C157   C163    1.442   .     S
C157   C158    1.401   1_565 A
C158   C159    1.399   .     A
C158   H171    1.084   .     S
C158   C157    1.401   1_545 A
C159   H172    1.083   .     S
C159   X160    1.405   1_545 A
X160   C161    1.405   .     A
X160   C159    1.405   1_565 A
C161   C162    1.399   .     A
C161   H173    1.083   .     S
C162   H174    1.084   .     S
C163   C164    1.207   .     T
C164   C165    1.442   .     S
C165   C166    1.400   .     A
C165   C170    1.400   .     A
C166   C167    1.399   .     A
C166   H175    1.084   .     S
C167   X168    1.409   .     A
C167   H176    1.083   .     S
X168   C169    1.409   .     A
C169   C170    1.399   .     A
C169   H177    1.083   .     S
C170   H178    1.083   .     S
C179   C180    1.401   .     A
C179   C185    1.442   .     S
C179   C184    1.401   1_545 A
C180   C181    1.399   .     A
C180   H193    1.083   .     S
C181   H194    1.083   .     S
C181   X182    1.405   1_545 S
X182   C183    1.405   .     A
X182   C181    1.405   1_565 S
C183   C184    1.399   .     A
C183   H195    1.083   .     S
C184   H196    1.084   .     S
C184   C179    1.401   1_565 A
C185   C186    1.208   .     T
C186   C187    1.442   .     S
C187   C188    1.400   .     A
C187   C192    1.400   .     A
C188   C189    1.399   .     A
C188   H197    1.084   .     S
C189   H198    1.083   .     S
C189   X190    1.409   1_545 A
X190   C189    1.409   1_565 A
X190   C191    1.409   1_565 A
C191   C192    1.399   .     A
C191   X190    1.409   1_545 A
C191   H199    1.083   1_545 A
C192   H200    1.083   .     S
H199   C191    1.083   1_565 A
C201   C202    1.401   .     A
C201   C207    1.443   .     S
C201   C206    1.401   1_565 S
C202   C203    1.399   .     A
C202   H215    1.083   .     S
C203   X204    1.405   .     A
C203   H216    1.083   .     S
X204   C205    1.405   1_565 S
C205   C206    1.400   .     A
C205   H217    1.083   .     S
C205   X204    1.405   1_545 S
C206   H218    1.083   .     S
C206   C201    1.401   1_545 S
C207   C208    1.207   .     T
C208   C209    1.442   .     S
C209   C210    1.400   .     A
C209   C214    1.399   .     A
C210   C211    1.399   .     A
C210   H219    1.083   .     S
C211   X212    1.409   .     A
C211   H220    1.083   .     S
X212   C213    1.409   .     A
C213   C214    1.399   .     A
C213   H221    1.083   .     S
C214   H222    1.083   .     S
C223   C228    1.401   .     A
C223   C229    1.442   .     S
C223   C224    1.401   1_545 S
C224   C225    1.399   .     A
C224   H237    1.083   .     S
C224   C223    1.401   1_565 S
C225   X226    1.405   .     A
C225   H238    1.083   .     S
X226   C227    1.405   1_565 S
C227   C228    1.399   .     A
C227   H239    1.083   .     S
C227   X226    1.405   1_545 S
C228   H240    1.083   .     S
C229   C230    1.207   .     T
C230   C231    1.442   .     S
C231   C232    1.400   .     A
C231   C236    1.399   .     A
C232   C233    1.399   .     A
C232   H241    1.083   .     S
C233   X234    1.409   1_545 S
C233   H242    1.083   1_545 S
X234   C233    1.409   1_565 S
X234   C235    1.409   1_565 S
C235   C236    1.399   .     A
C235   H243    1.083   .     S
C235   X234    1.409   1_545 S
C236   H244    1.084   .     S
H242   C233    1.083   1_565 S
C245   C246    1.401   .     A
C245   C251    1.442   .     S
C245   C250    1.401   1_556 A
C246   C247    1.399   .     A
C246   H259    1.083   .     S
C247   H260    1.083   .     S
C247   X248    1.405   1_556 S
X248   C249    1.405   .     A
X248   C247    1.405   1_554 S
C249   C250    1.399   .     A
C249   H261    1.083   .     S
C250   H262    1.083   .     S
C250   C245    1.401   1_554 A
C251   C252    1.208   .     T
C252   C253    1.442   .     S
C253   C254    1.400   .     A
C253   C258    1.400   .     A
C254   C255    1.399   .     A
C254   H263    1.083   .     S
C255   X256    1.409   .     A
C255   H264    1.083   .     S
X256   C257    1.409   .     A
C257   C258    1.399   .     A
C257   H265    1.083   .     S
C258   H266    1.083   .     S
C267   C268    1.401   .     A
C267   C273    1.442   .     S
C267   C272    1.401   1_554 S
C268   C269    1.399   .     A
C268   H281    1.083   .     S
C269   X270    1.405   .     A
C269   H282    1.083   .     S
X270   C271    1.405   1_554 A
C271   C272    1.399   .     A
C271   H283    1.083   .     S
C271   X270    1.405   1_556 A
C272   H284    1.083   .     S
C272   C267    1.401   1_556 S
C273   C274    1.208   .     T
C274   C275    1.442   .     S
C275   C276    1.399   .     A
C275   C280    1.400   .     A
C276   C277    1.399   .     A
C276   H285    1.084   .     S
C277   X278    1.409   .     A
C277   H286    1.083   .     S
X278   C279    1.409   .     A
C279   C280    1.399   .     A
C279   H287    1.083   .     S
C280   H288    1.083   .     S
C289   C294    1.401   .     A
C289   C295    1.442   .     S
C289   C290    1.401   1_556 S
C290   C291    1.399   .     A
C290   H303    1.083   .     S
C290   C289    1.401   1_554 S
C291   X292    1.405   .     A
C291   H304    1.083   .     S
X292   C293    1.405   1_554 S
C293   C294    1.399   .     A
C293   H305    1.083   .     S
C293   X292    1.405   1_556 S
C294   H306    1.083   .     S
C295   C296    1.207   .     T
C296   C297    1.442   .     S
C297   C298    1.399   .     A
C297   C302    1.400   .     A
C298   C299    1.399   .     A
C298   H307    1.083   .     S
C299   X300    1.409   .     A
C299   H308    1.083   .     S
X300   C301    1.409   .     A
C301   C302    1.399   .     A
C301   H309    1.083   .     S
C302   H310    1.084   .     S
C311   C312    1.401   .     A
C311   C317    1.442   .     S
C311   C316    1.401   1_554 A
C312   C313    1.399   .     A
C312   H325    1.084   .     S
C313   X314    1.405   .     A
C313   H326    1.083   .     S
X314   C315    1.405   1_554 A
C315   C316    1.399   .     A
C315   H327    1.083   .     S
C315   X314    1.405   1_556 A
C316   H328    1.083   .     S
C316   C311    1.401   1_556 A
C317   C318    1.207   .     T
C318   C319    1.442   .     S
C319   C320    1.400   .     A
C319   C324    1.399   .     A
C320   C321    1.400   .     A
C320   H329    1.084   .     S
C321   X322    1.409   .     A
C321   H330    1.083   .     S
X322   C323    1.409   .     A
C323   C324    1.399   .     A
C323   H331    1.083   .     S
C324   H332    1.084   .     S
C333   C334    1.401   .     A
C333   C339    1.442   .     S
C333   C338    1.401   1_655 S
C334   C335    1.399   .     A
C334   H347    1.084   .     S
C335   X336    1.405   .     A
C335   H348    1.083   .     S
X336   C337    1.405   1_655 A
C337   C338    1.399   .     A
C337   H349    1.083   .     S
C337   X336    1.405   1_455 A
C338   H350    1.083   .     S
C338   C333    1.401   1_455 S
C339   C340    1.207   .     T
C340   C341    1.442   .     S
C341   C342    1.399   .     A
C341   C346    1.400   .     A
C342   C343    1.399   .     A
C342   H351    1.084   .     S
C343   X344    1.409   .     A
C343   H352    1.083   .     S
X344   C345    1.409   .     A
C345   C346    1.399   .     A
C345   H353    1.083   .     S
C346   H354    1.083   .     S
C355   C356    1.401   .     A
C355   C361    1.442   .     S
C355   C360    1.401   1_455 S
C356   C357    1.399   .     A
C356   H369    1.083   .     S
C357   H370    1.083   .     S
C357   X358    1.405   1_455 A
X358   C359    1.405   .     A
X358   C357    1.405   1_655 A
C359   C360    1.400   .     A
C359   H371    1.083   .     S
C360   H372    1.083   .     S
C360   C355    1.401   1_655 S
C361   C362    1.207   .     T
C362   C363    1.442   .     S
C363   C364    1.400   .     A
C363   C368    1.400   .     A
C364   C365    1.400   .     A
C364   H373    1.084   .     S
C365   X366    1.409   .     A
C365   H374    1.083   .     S
X366   C367    1.409   .     A
C367   C368    1.399   .     A
C367   H375    1.083   .     S
C368   H376    1.083   .     S
C377   C378    1.401   .     A
C377   C383    1.442   .     S
C377   C382    1.401   1_655 S
C378   C379    1.399   .     A
C378   H391    1.083   .     S
C379   X380    1.405   .     A
C379   H392    1.083   .     S
X380   C381    1.405   1_655 S
C381   C382    1.399   .     A
C381   H393    1.083   .     S
C381   X380    1.405   1_455 S
C382   H394    1.083   .     S
C382   C377    1.401   1_455 S
C383   C384    1.208   .     T
C384   C385    1.442   .     S
C385   C386    1.400   .     A
C385   C390    1.400   .     A
C386   C387    1.399   .     A
C386   H395    1.084   .     S
C387   X388    1.409   .     A
C387   H396    1.083   .     S
X388   C389    1.409   .     A
C389   C390    1.399   .     A
C389   H397    1.083   .     S
C390   H398    1.083   .     S
C399   C404    1.401   .     A
C399   C405    1.442   .     S
C399   C400    1.401   1_455 S
C400   C401    1.399   .     A
C400   H413    1.083   .     S
C400   C399    1.401   1_655 S
C401   X402    1.405   .     A
C401   H414    1.083   .     S
X402   C403    1.405   1_655 T
C403   C404    1.399   .     A
C403   H415    1.083   .     S
C403   X402    1.405   1_455 T
C404   H416    1.084   .     S
C405   C406    1.208   .     T
C406   C407    1.442   .     S
C407   C408    1.400   .     A
C407   C412    1.400   .     A
C408   C409    1.399   .     A
C408   H417    1.083   .     S
C409   X410    1.409   .     A
C409   H418    1.083   .     S
X410   C411    1.409   .     A
C411   C412    1.400   .     A
C411   H419    1.083   .     S
C412   H420    1.083   .     S
