data_ja512311a_si_003_tobacco
_audit_creation_date              2017-02-28
_audit_creation_method            'Materials Studio'
_symmetry_space_group_name_H-M    'P1'
_symmetry_Int_Tables_number       1
_symmetry_cell_setting            triclinic
loop_
_symmetry_equiv_pos_as_xyz
  x,y,z
_cell_length_a                    37.1510
_cell_length_b                    37.1510
_cell_length_c                    30.0420
_cell_angle_alpha                 90.0000
_cell_angle_beta                  90.0000
_cell_angle_gamma                 120.0000
loop_
_atom_site_label
_atom_site_type_symbol
_atom_site_fract_x
_atom_site_fract_y
_atom_site_fract_z
_atom_site_U_iso_or_equiv
_atom_site_adp_type
_atom_site_occupancy
X1     C     1.02042   0.97700   0.25373   0.00000  Uiso   1.00
C2     C     1.04094   1.02121   0.25382   0.00000  Uiso   1.00
X3     C     1.01908   1.04356   0.25320   0.00000  Uiso   1.00
C4     C     0.97501   1.01994   0.25302   0.00000  Uiso   1.00
X5     C     0.95329   0.97611   0.25339   0.00000  Uiso   1.00
C6     C     0.97629   0.95524   0.25390   0.00000  Uiso   1.00
H7     H     1.07437   1.03852   0.25426   0.00000  Uiso   1.00
H8     H     0.95691   1.03536   0.25371   0.00000  Uiso   1.00
H9     H     0.95920   0.92168   0.25308   0.00000  Uiso   1.00
X10    C     1.04641   1.02273   0.74983   0.00000  Uiso   1.00
C11    C     1.02314   0.97859   0.74968   0.00000  Uiso   1.00
X12    C     0.97928   0.95642   0.75009   0.00000  Uiso   1.00
C13    C     0.95799   0.97889   0.75079   0.00000  Uiso   1.00
X14    C     0.97957   1.02274   0.75101   0.00000  Uiso   1.00
C15    C     1.02359   1.04410   0.75087   0.00000  Uiso   1.00
H16    H     1.03883   0.96076   0.75167   0.00000  Uiso   1.00
H17    H     0.92435   0.96207   0.74973   0.00000  Uiso   1.00
H18    H     1.03978   1.07765   0.75028   0.00000  Uiso   1.00
X19    C     0.30720   0.62167   0.24581   0.00000  Uiso   1.00
C20    C     0.35096   0.64321   0.24610   0.00000  Uiso   1.00
X21    C     0.37395   0.68695   0.24634   0.00000  Uiso   1.00
C22    C     0.35247   0.70923   0.24605   0.00000  Uiso   1.00
X23    C     0.30869   0.68849   0.24582   0.00000  Uiso   1.00
C24    C     0.28640   0.64468   0.24557   0.00000  Uiso   1.00
H25    H     0.36723   0.62582   0.24645   0.00000  Uiso   1.00
H26    H     0.36992   0.74289   0.24630   0.00000  Uiso   1.00
H27    H     0.25274   0.62844   0.24550   0.00000  Uiso   1.00
X28    C     0.62378   0.31225   0.75126   0.00000  Uiso   1.00
C29    C     0.64540   0.29012   0.75100   0.00000  Uiso   1.00
X30    C     0.68915   0.31100   0.75123   0.00000  Uiso   1.00
C31    C     0.71137   0.35478   0.75181   0.00000  Uiso   1.00
X32    C     0.69055   0.37782   0.75190   0.00000  Uiso   1.00
C33    C     0.64669   0.35604   0.75174   0.00000  Uiso   1.00
H34    H     0.62810   0.25646   0.75043   0.00000  Uiso   1.00
H35    H     0.74500   0.37088   0.75076   0.00000  Uiso   1.00
H36    H     0.63019   0.37316   0.75304   0.00000  Uiso   1.00
X37    C     0.38146   0.27296   0.03559   0.00000  Uiso   1.00
C38    C     0.35394   0.28102   0.06089   0.00000  Uiso   1.00
X39    C     0.36339   0.29612   0.10510   0.00000  Uiso   1.00
C40    C     0.40137   0.30408   0.12402   0.00000  Uiso   1.00
X41    C     0.42985   0.29741   0.09972   0.00000  Uiso   1.00
C42    C     0.41978   0.28243   0.05586   0.00000  Uiso   1.00
H43    H     0.32391   0.27344   0.04763   0.00000  Uiso   1.00
H44    H     0.40878   0.31550   0.15788   0.00000  Uiso   1.00
H45    H     0.44337   0.28009   0.03714   0.00000  Uiso   1.00
X46    C     0.38648   1.11228   0.46258   0.00000  Uiso   1.00
C47    C     0.42517   1.14047   0.44223   0.00000  Uiso   1.00
X48    C     0.43498   1.13594   0.39765   0.00000  Uiso   1.00
C49    C     0.40443   1.10133   0.37337   0.00000  Uiso   1.00
X50    C     0.36636   1.07197   0.39264   0.00000  Uiso   1.00
C51    C     0.35788   1.07762   0.43702   0.00000  Uiso   1.00
H52    H     0.44922   1.16441   0.46241   0.00000  Uiso   1.00
H53    H     0.40939   1.09704   0.33879   0.00000  Uiso   1.00
H54    H     0.32766   1.05574   0.45031   0.00000  Uiso   1.00
X55    C     0.72279   1.10660   0.03493   0.00000  Uiso   1.00
C56    C     0.71395   1.07123   0.06039   0.00000  Uiso   1.00
X57    C     0.69923   1.06641   0.10454   0.00000  Uiso   1.00
C58    C     0.69251   1.09749   0.12304   0.00000  Uiso   1.00
X59    C     0.70120   1.13376   0.09879   0.00000  Uiso   1.00
C60    C     0.71701   1.13779   0.05495   0.00000  Uiso   1.00
H61    H     0.71837   1.04710   0.04578   0.00000  Uiso   1.00
H62    H     0.68148   1.09358   0.15700   0.00000  Uiso   1.00
H63    H     0.72359   1.16476   0.03535   0.00000  Uiso   1.00
X64    C     0.27085   0.38234   0.53767   0.00000  Uiso   1.00
C65    C     0.28104   0.42136   0.55599   0.00000  Uiso   1.00
X66    C     0.29700   0.43265   0.59963   0.00000  Uiso   1.00
C67    C     0.30286   0.40385   0.62496   0.00000  Uiso   1.00
X68    C     0.29365   0.36500   0.60723   0.00000  Uiso   1.00
C69    C     0.27731   0.35460   0.56376   0.00000  Uiso   1.00
H70    H     0.27746   0.44346   0.53573   0.00000  Uiso   1.00
H71    H     0.31492   0.41171   0.65851   0.00000  Uiso   1.00
H72    H     0.26867   0.32423   0.55052   0.00000  Uiso   1.00
X73    C     1.10866   0.71583   0.52887   0.00000  Uiso   1.00
C74    C     1.07286   0.70811   0.55311   0.00000  Uiso   1.00
X75    C     1.06680   0.69473   0.59780   0.00000  Uiso   1.00
C76    C     1.09693   0.68785   0.61830   0.00000  Uiso   1.00
X77    C     1.13231   0.69246   0.59502   0.00000  Uiso   1.00
C78    C     1.13718   0.70639   0.55016   0.00000  Uiso   1.00
H79    H     1.05008   0.71418   0.53806   0.00000  Uiso   1.00
H80    H     1.09326   0.68099   0.65345   0.00000  Uiso   1.00
H81    H     1.16190   0.70741   0.53047   0.00000  Uiso   1.00
X82    C     1.10652   0.37981   0.96445   0.00000  Uiso   1.00
C83    C     1.07104   0.35247   0.93914   0.00000  Uiso   1.00
X84    C     1.06600   0.36151   0.89471   0.00000  Uiso   1.00
C85    C     1.09662   0.39892   0.87541   0.00000  Uiso   1.00
X86    C     1.13173   0.42765   0.89975   0.00000  Uiso   1.00
C87    C     1.13612   0.41775   0.94400   0.00000  Uiso   1.00
H88    H     1.04818   0.32272   0.95264   0.00000  Uiso   1.00
H89    H     1.09292   0.40566   0.84119   0.00000  Uiso   1.00
H90    H     1.16206   0.44099   0.96302   0.00000  Uiso   1.00
X91    C    -0.11399   0.27364   0.46438   0.00000  Uiso   1.00
C92    C    -0.14471   0.27972   0.44341   0.00000  Uiso   1.00
X93    C    -0.13962   0.29518   0.39952   0.00000  Uiso   1.00
C94    C    -0.10343   0.30335   0.37592   0.00000  Uiso   1.00
X95    C    -0.07271   0.29683   0.39533   0.00000  Uiso   1.00
C96    C    -0.07805   0.28263   0.43971   0.00000  Uiso   1.00
H97    H    -0.17334   0.27136   0.46078   0.00000  Uiso   1.00
H98    H    -0.09841   0.31598   0.34256   0.00000  Uiso   1.00
H99    H    -0.05391   0.27859   0.45491   0.00000  Uiso   1.00
X100   C     0.72528   0.61321   0.46294   0.00000  Uiso   1.00
C101   C     0.71735   0.57521   0.44361   0.00000  Uiso   1.00
X102   C     0.70334   0.56520   0.39913   0.00000  Uiso   1.00
C103   C     0.69626   0.59356   0.37458   0.00000  Uiso   1.00
X104   C     0.70307   0.63115   0.39340   0.00000  Uiso   1.00
C105   C     0.71784   0.64068   0.43746   0.00000  Uiso   1.00
H106   H     0.72359   0.55419   0.46268   0.00000  Uiso   1.00
H107   H     0.68431   0.58589   0.34094   0.00000  Uiso   1.00
H108   H     0.72347   0.66970   0.45211   0.00000  Uiso   1.00
X109   C    -0.10949   0.61827   0.03331   0.00000  Uiso   1.00
C110   C    -0.07588   0.64620   0.06055   0.00000  Uiso   1.00
X111   C    -0.07095   0.63599   0.10451   0.00000  Uiso   1.00
C112   C    -0.10087   0.59725   0.12203   0.00000  Uiso   1.00
X113   C    -0.13498   0.56861   0.09626   0.00000  Uiso   1.00
C114   C    -0.13872   0.57930   0.05203   0.00000  Uiso   1.00
H115   H    -0.05221   0.67571   0.04726   0.00000  Uiso   1.00
H116   H    -0.09748   0.58928   0.15585   0.00000  Uiso   1.00
H117   H    -0.16538   0.55737   0.03283   0.00000  Uiso   1.00
X118   C     0.61096  -0.11298   0.53492   0.00000  Uiso   1.00
C119   C     0.57261  -0.14215   0.55525   0.00000  Uiso   1.00
X120   C     0.56220  -0.13763   0.59964   0.00000  Uiso   1.00
C121   C     0.59171  -0.10199   0.62342   0.00000  Uiso   1.00
X122   C     0.62970  -0.07229   0.60437   0.00000  Uiso   1.00
C123   C     0.63872  -0.07785   0.56026   0.00000  Uiso   1.00
H124   H     0.55080  -0.16882   0.53633   0.00000  Uiso   1.00
H125   H     0.58477  -0.09558   0.65641   0.00000  Uiso   1.00
H126   H     0.66888  -0.05567   0.54702   0.00000  Uiso   1.00
X127   C     0.27122  -0.11255   0.96158   0.00000  Uiso   1.00
C128   C     0.27774  -0.14324   0.94133   0.00000  Uiso   1.00
X129   C     0.29454  -0.13822   0.89782   0.00000  Uiso   1.00
C130   C     0.30314  -0.10174   0.87406   0.00000  Uiso   1.00
X131   C     0.29554  -0.07128   0.89264   0.00000  Uiso   1.00
C132   C     0.27999  -0.07700   0.93650   0.00000  Uiso   1.00
H133   H     0.27100  -0.17053   0.96042   0.00000  Uiso   1.00
H134   H     0.31478  -0.09720   0.84033   0.00000  Uiso   1.00
H135   H     0.27488  -0.05337   0.95124   0.00000  Uiso   1.00
X136   C     0.61370   0.72038   0.96587   0.00000  Uiso   1.00
C137   C     0.57583   0.71237   0.94560   0.00000  Uiso   1.00
X138   C     0.56455   0.69545   0.90245   0.00000  Uiso   1.00
C139   C     0.59181   0.68649   0.87864   0.00000  Uiso   1.00
X140   C     0.63008   0.69473   0.89707   0.00000  Uiso   1.00
C141   C     0.64021   0.71095   0.94071   0.00000  Uiso   1.00
H142   H     0.55355   0.71726   0.96383   0.00000  Uiso   1.00
H143   H     0.58388   0.67466   0.84498   0.00000  Uiso   1.00
H144   H     0.66992   0.71768   0.95407   0.00000  Uiso   1.00
Zn145  Zn    0.71441   0.33754   0.22420   0.00000  Uiso   1.00
Zn146  Zn    0.66523   0.33260   0.30683   0.00000  Uiso   1.00
Zn147  Zn    0.66145   0.37625   0.22357   0.00000  Uiso   1.00
Zn148  Zn    0.62220   0.28377   0.22400   0.00000  Uiso   1.00
O149   O     0.66577   0.33247   0.24493   0.00000  Uiso   1.00
O150   O     0.74454   0.33383   0.26856   0.00000  Uiso   1.00
O151   O     0.67181   0.38180   0.32932   0.00000  Uiso   1.00
O152   O     0.70397   0.41061   0.18740   0.00000  Uiso   1.00
O153   O     0.70790   0.32653   0.32954   0.00000  Uiso   1.00
O154   O     0.74693   0.38607   0.19451   0.00000  Uiso   1.00
O155   O     0.66562   0.41067   0.26744   0.00000  Uiso   1.00
O156   O     0.58672   0.29206   0.18991   0.00000  Uiso   1.00
O157   O     0.61641   0.28934   0.32938   0.00000  Uiso   1.00
O158   O     0.61283   0.36011   0.19461   0.00000  Uiso   1.00
O159   O     0.58928   0.25197   0.26832   0.00000  Uiso   1.00
O160   O     0.63865   0.25219   0.19295   0.00000  Uiso   1.00
O161   O     0.70654   0.29512   0.18844   0.00000  Uiso   1.00
X162   C     0.73897   0.32736   0.31022   0.00000  Uiso   1.00
X163   C     0.67213   0.41225   0.30910   0.00000  Uiso   1.00
X164   C     0.73927   0.41388   0.18027   0.00000  Uiso   1.00
X165   C     0.58412   0.32440   0.18209   0.00000  Uiso   1.00
X166   C     0.58774   0.25698   0.31000   0.00000  Uiso   1.00
X167   C     0.67455   0.26027   0.17972   0.00000  Uiso   1.00
Zn168  Zn    0.28266   0.65852   0.77313   0.00000  Uiso   1.00
Zn169  Zn    0.33623   0.61957   0.77191   0.00000  Uiso   1.00
Zn170  Zn    0.33114   0.66451   0.68992   0.00000  Uiso   1.00
Zn171  Zn    0.37513   0.71182   0.77334   0.00000  Uiso   1.00
O172   O     0.33128   0.66359   0.75180   0.00000  Uiso   1.00
O173   O     0.25100   0.61019   0.80322   0.00000  Uiso   1.00
O174   O     0.33583   0.58759   0.72689   0.00000  Uiso   1.00
O175   O     0.28710   0.66875   0.66762   0.00000  Uiso   1.00
O176   O     0.29260   0.58356   0.80581   0.00000  Uiso   1.00
O177   O     0.25082   0.66002   0.72909   0.00000  Uiso   1.00
O178   O     0.32674   0.61662   0.66656   0.00000  Uiso   1.00
O179   O     0.40889   0.74323   0.72936   0.00000  Uiso   1.00
O180   O     0.38361   0.63532   0.80338   0.00000  Uiso   1.00
O181   O     0.37947   0.70852   0.66755   0.00000  Uiso   1.00
O182   O     0.40986   0.70322   0.80862   0.00000  Uiso   1.00
O183   O     0.35874   0.74379   0.80345   0.00000  Uiso   1.00
O184   O     0.29068   0.70168   0.80818   0.00000  Uiso   1.00
X185   C     0.25804   0.58129   0.81488   0.00000  Uiso   1.00
X186   C     0.32991   0.58739   0.68520   0.00000  Uiso   1.00
X187   C     0.25515   0.66571   0.68727   0.00000  Uiso   1.00
X188   C     0.40969   0.73925   0.68738   0.00000  Uiso   1.00
X189   C     0.41205   0.67073   0.81693   0.00000  Uiso   1.00
X190   C     0.32298   0.73655   0.81622   0.00000  Uiso   1.00
Zn191  Zn    0.19949   0.36580   0.20829   0.00000  Uiso   1.00
Zn192  Zn    0.11064   0.30060   0.22777   0.00000  Uiso   1.00
Zn193  Zn    0.18318   0.29916   0.27401   0.00000  Uiso   1.00
Zn194  Zn    0.16250   0.36592   0.29419   0.00000  Uiso   1.00
O195   O     0.16365   0.33228   0.25101   0.00000  Uiso   1.00
O196   O     0.17281   0.36215   0.15834   0.00000  Uiso   1.00
O197   O     0.09414   0.24542   0.23039   0.00000  Uiso   1.00
O198   O     0.22615   0.30231   0.24109   0.00000  Uiso   1.00
O199   O     0.10703   0.31479   0.16924   0.00000  Uiso   1.00
O200   O     0.23750   0.35166   0.19265   0.00000  Uiso   1.00
O201   O     0.14324   0.24428   0.27148   0.00000  Uiso   1.00
O202   O     0.18608   0.36258   0.34425   0.00000  Uiso   1.00
O203   O     0.07134   0.30480   0.26109   0.00000  Uiso   1.00
O204   O     0.20158   0.31316   0.33209   0.00000  Uiso   1.00
O205   O     0.11100   0.35248   0.31016   0.00000  Uiso   1.00
O206   O     0.18984   0.42023   0.27997   0.00000  Uiso   1.00
O207   O     0.22594   0.42068   0.22157   0.00000  Uiso   1.00
X208   C     0.13585   0.34156   0.14410   0.00000  Uiso   1.00
X209   C     0.10846   0.22513   0.25096   0.00000  Uiso   1.00
X210   C     0.24547   0.32428   0.20727   0.00000  Uiso   1.00
X211   C     0.20141   0.34069   0.35758   0.00000  Uiso   1.00
X212   C     0.07518   0.32631   0.29579   0.00000  Uiso   1.00
X213   C     0.21721   0.44016   0.25050   0.00000  Uiso   1.00
Zn214  Zn    0.36869   0.16491   0.79083   0.00000  Uiso   1.00
Zn215  Zn    0.30327   0.11471   0.72469   0.00000  Uiso   1.00
Zn216  Zn    0.30149   0.18605   0.77353   0.00000  Uiso   1.00
Zn217  Zn    0.36814   0.20369   0.70822   0.00000  Uiso   1.00
O218   O     0.33441   0.16682   0.74935   0.00000  Uiso   1.00
O219   O     0.35356   0.11303   0.80769   0.00000  Uiso   1.00
O220   O     0.24821   0.09914   0.72569   0.00000  Uiso   1.00
O221   O     0.31653   0.20422   0.83178   0.00000  Uiso   1.00
O222   O     0.30583   0.07440   0.75804   0.00000  Uiso   1.00
O223   O     0.36717   0.18995   0.84063   0.00000  Uiso   1.00
O224   O     0.24683   0.14557   0.77138   0.00000  Uiso   1.00
O225   O     0.35186   0.23939   0.69158   0.00000  Uiso   1.00
O226   O     0.31977   0.11247   0.66665   0.00000  Uiso   1.00
O227   O     0.30334   0.22883   0.74076   0.00000  Uiso   1.00
O228   O     0.36843   0.17822   0.65828   0.00000  Uiso   1.00
O229   O     0.42167   0.23389   0.72554   0.00000  Uiso   1.00
O230   O     0.42280   0.19014   0.77401   0.00000  Uiso   1.00
X231   C     0.32665   0.07752   0.79313   0.00000  Uiso   1.00
X232   C     0.22784   0.11219   0.74836   0.00000  Uiso   1.00
X233   C     0.34524   0.20461   0.85580   0.00000  Uiso   1.00
X234   C     0.32438   0.24717   0.70604   0.00000  Uiso   1.00
X235   C     0.34812   0.14155   0.64295   0.00000  Uiso   1.00
X236   C     0.44209   0.22227   0.74962   0.00000  Uiso   1.00
Zn237  Zn    0.20370   0.83806   0.28901   0.00000  Uiso   1.00
Zn238  Zn    0.11468   0.81454   0.27383   0.00000  Uiso   1.00
Zn239  Zn    0.18501   0.88626   0.22455   0.00000  Uiso   1.00
Zn240  Zn    0.16370   0.79819   0.20699   0.00000  Uiso   1.00
O241   O     0.16620   0.83470   0.24856   0.00000  Uiso   1.00
O242   O     0.17836   0.81014   0.33824   0.00000  Uiso   1.00
O243   O     0.09980   0.85485   0.27478   0.00000  Uiso   1.00
O244   O     0.22726   0.92726   0.25762   0.00000  Uiso   1.00
O245   O     0.11271   0.79400   0.33068   0.00000  Uiso   1.00
O246   O     0.23902   0.89027   0.30698   0.00000  Uiso   1.00
O247   O     0.14433   0.89986   0.22563   0.00000  Uiso   1.00
O248   O     0.19106   0.82470   0.15751   0.00000  Uiso   1.00
O249   O     0.07412   0.77239   0.24044   0.00000  Uiso   1.00
O250   O     0.20405   0.88944   0.16706   0.00000  Uiso   1.00
O251   O     0.11134   0.76225   0.18974   0.00000  Uiso   1.00
O252   O     0.18709   0.76810   0.22562   0.00000  Uiso   1.00
O253   O     0.23434   0.81586   0.26930   0.00000  Uiso   1.00
X254   C     0.14157   0.79329   0.35342   0.00000  Uiso   1.00
X255   C     0.11241   0.88742   0.25063   0.00000  Uiso   1.00
X256   C     0.24629   0.92533   0.29214   0.00000  Uiso   1.00
X257   C     0.20613   0.86180   0.14353   0.00000  Uiso   1.00
X258   C     0.07621   0.75405   0.20539   0.00000  Uiso   1.00
X259   C     0.22076   0.78213   0.24761   0.00000  Uiso   1.00
Zn260  Zn    0.62949   0.83115   0.20680   0.00000  Uiso   1.00
Zn261  Zn    0.69562   0.80953   0.22751   0.00000  Uiso   1.00
Zn262  Zn    0.69524   0.88290   0.27339   0.00000  Uiso   1.00
Zn263  Zn    0.62951   0.79428   0.29247   0.00000  Uiso   1.00
O264   O     0.66313   0.82990   0.25003   0.00000  Uiso   1.00
O265   O     0.63279   0.80719   0.15686   0.00000  Uiso   1.00
O266   O     0.75027   0.84903   0.22987   0.00000  Uiso   1.00
O267   O     0.69160   0.92244   0.23959   0.00000  Uiso   1.00
O268   O     0.68159   0.79096   0.16960   0.00000  Uiso   1.00
O269   O     0.64343   0.88289   0.19077   0.00000  Uiso   1.00
O270   O     0.75062   0.89868   0.27141   0.00000  Uiso   1.00
O271   O     0.63189   0.82096   0.34197   0.00000  Uiso   1.00
O272   O     0.69252   0.76663   0.26083   0.00000  Uiso   1.00
O273   O     0.68009   0.88657   0.33174   0.00000  Uiso   1.00
O274   O     0.64366   0.75673   0.30906   0.00000  Uiso   1.00
O275   O     0.57525   0.76683   0.27803   0.00000  Uiso   1.00
O276   O     0.57487   0.80373   0.22084   0.00000  Uiso   1.00
X277   C     0.65431   0.79131   0.14387   0.00000  Uiso   1.00
X278   C     0.77017   0.88360   0.25054   0.00000  Uiso   1.00
X279   C     0.66998   0.91870   0.20496   0.00000  Uiso   1.00
X280   C     0.65243   0.85786   0.35637   0.00000  Uiso   1.00
X281   C     0.67072   0.74815   0.29505   0.00000  Uiso   1.00
X282   C     0.55535   0.77527   0.24948   0.00000  Uiso   1.00
Zn283  Zn    0.79381   0.16095   0.70767   0.00000  Uiso   1.00
Zn284  Zn    0.81155   0.11122   0.77255   0.00000  Uiso   1.00
Zn285  Zn    0.88202   0.18369   0.72529   0.00000  Uiso   1.00
Zn286  Zn    0.83186   0.19889   0.79157   0.00000  Uiso   1.00
O287   O     0.83018   0.16322   0.74929   0.00000  Uiso   1.00
O288   O     0.75813   0.10886   0.68988   0.00000  Uiso   1.00
O289   O     0.85241   0.09735   0.77166   0.00000  Uiso   1.00
O290   O     0.88532   0.20369   0.66849   0.00000  Uiso   1.00
O291   O     0.76934   0.07110   0.73894   0.00000  Uiso   1.00
O292   O     0.82015   0.18893   0.65845   0.00000  Uiso   1.00
O293   O     0.89780   0.14464   0.72513   0.00000  Uiso   1.00
O294   O     0.88386   0.23476   0.80983   0.00000  Uiso   1.00
O295   O     0.79189   0.10708   0.82982   0.00000  Uiso   1.00
O296   O     0.92161   0.22567   0.75899   0.00000  Uiso   1.00
O297   O     0.80394   0.17139   0.84039   0.00000  Uiso   1.00
O298   O     0.80870   0.22931   0.77339   0.00000  Uiso   1.00
O299   O     0.76348   0.18385   0.72629   0.00000  Uiso   1.00
X300   C     0.75041   0.07361   0.70462   0.00000  Uiso   1.00
X301   C     0.88558   0.11173   0.74832   0.00000  Uiso   1.00
X302   C     0.85746   0.20519   0.64487   0.00000  Uiso   1.00
X303   C     0.91913   0.24346   0.79424   0.00000  Uiso   1.00
X304   C     0.78911   0.13412   0.85371   0.00000  Uiso   1.00
X305   C     0.77629   0.21665   0.74949   0.00000  Uiso   1.00
Zn306  Zn    0.86042   0.69962   0.70048   0.00000  Uiso   1.00
Zn307  Zn    0.77872   0.63256   0.73526   0.00000  Uiso   1.00
Zn308  Zn    0.85820   0.63453   0.76163   0.00000  Uiso   1.00
Zn309  Zn    0.83980   0.69962   0.79628   0.00000  Uiso   1.00
O310   O     0.83425   0.66646   0.74849   0.00000  Uiso   1.00
O311   O     0.82757   0.68537   0.65135   0.00000  Uiso   1.00
O312   O     0.76211   0.57826   0.74370   0.00000  Uiso   1.00
O313   O     0.90451   0.64788   0.72744   0.00000  Uiso   1.00
O314   O     0.76759   0.63493   0.67685   0.00000  Uiso   1.00
O315   O     0.90384   0.69500   0.68328   0.00000  Uiso   1.00
O316   O     0.82177   0.57964   0.75477   0.00000  Uiso   1.00
O317   O     0.85895   0.68622   0.84573   0.00000  Uiso   1.00
O318   O     0.74476   0.64481   0.76838   0.00000  Uiso   1.00
O319   O     0.87214   0.63807   0.82004   0.00000  Uiso   1.00
O320   O     0.79074   0.69398   0.81250   0.00000  Uiso   1.00
O321   O     0.87262   0.75485   0.78476   0.00000  Uiso   1.00
O322   O     0.88262   0.75471   0.71205   0.00000  Uiso   1.00
X323   C     0.79010   0.65695   0.64461   0.00000  Uiso   1.00
X324   C     0.78246   0.55944   0.74983   0.00000  Uiso   1.00
X325   C     0.92040   0.67391   0.69547   0.00000  Uiso   1.00
X326   C     0.86997   0.65920   0.85227   0.00000  Uiso   1.00
X327   C     0.75340   0.67124   0.79957   0.00000  Uiso   1.00
X328   C     0.88767   0.77437   0.74841   0.00000  Uiso   1.00
C329   C     0.07993   0.34136   0.03645   0.00000  Uiso   1.00
X330   C     0.11299   0.36948   0.00872   0.00000  Uiso   1.00
C331   C     0.15350   0.38678   0.02622   0.00000  Uiso   1.00
C332   C     0.16111   0.37809   0.06960   0.00000  Uiso   1.00
X333   C     0.12776   0.35010   0.09722   0.00000  Uiso   1.00
C334   C     0.08724   0.33195   0.07983   0.00000  Uiso   1.00
H335   H     0.04797   0.32750   0.02569   0.00000  Uiso   1.00
H336   H     0.18023   0.40557   0.00550   0.00000  Uiso   1.00
H337   H     0.06096   0.31080   0.10005   0.00000  Uiso   1.00
O338   O     0.20240   0.39513   0.08408   0.00000  Uiso   1.00
C339   C     0.22485   0.43943   0.08702   0.00000  Uiso   1.00
H340   H     0.20865   0.45038   0.10969   0.00000  Uiso   1.00
H341   H     0.22895   0.45397   0.05374   0.00000  Uiso   1.00
H342   H     0.25613   0.44952   0.10095   0.00000  Uiso   1.00
C343   C     0.22432   0.38155   0.47626   0.00000  Uiso   1.00
X344   C     0.25293   0.37028   0.49157   0.00000  Uiso   1.00
C345   C     0.26387   0.34724   0.46276   0.00000  Uiso   1.00
C346   C     0.24701   0.33604   0.41895   0.00000  Uiso   1.00
X347   C     0.21871   0.34845   0.40404   0.00000  Uiso   1.00
C348   C     0.20764   0.37092   0.43346   0.00000  Uiso   1.00
H349   H     0.21438   0.39842   0.49762   0.00000  Uiso   1.00
H350   H     0.28627   0.33899   0.47452   0.00000  Uiso   1.00
H351   H     0.18579   0.38059   0.42333   0.00000  Uiso   1.00
O352   O     0.25802   0.31382   0.38899   0.00000  Uiso   1.00
C353   C     0.28652   0.30103   0.40338   0.00000  Uiso   1.00
H354   H     0.27381   0.27983   0.43246   0.00000  Uiso   1.00
H355   H     0.31718   0.32849   0.41141   0.00000  Uiso   1.00
H356   H     0.29115   0.28381   0.37593   0.00000  Uiso   1.00
C357   C     0.34229   0.25866   0.96370   0.00000  Uiso   1.00
X358   C     0.37128   0.25539   0.99149   0.00000  Uiso   1.00
C359   C     0.39013   0.23349   0.97410   0.00000  Uiso   1.00
C360   C     0.38254   0.21723   0.93033   0.00000  Uiso   1.00
X361   C     0.35378   0.22148   0.90273   0.00000  Uiso   1.00
C362   C     0.33375   0.24202   0.92030   0.00000  Uiso   1.00
H363   H     0.32704   0.27547   0.97438   0.00000  Uiso   1.00
H364   H     0.40955   0.22721   0.99552   0.00000  Uiso   1.00
H365   H     0.31178   0.24587   0.90009   0.00000  Uiso   1.00
O366   O     0.40227   0.19596   0.91329   0.00000  Uiso   1.00
C367   C     0.43609   0.19715   0.93717   0.00000  Uiso   1.00
H368   H     0.42517   0.17990   0.96906   0.00000  Uiso   1.00
H369   H     0.46100   0.22979   0.94297   0.00000  Uiso   1.00
H370   H     0.44928   0.18156   0.91688   0.00000  Uiso   1.00
C371   C     0.34693   0.08654   0.53418   0.00000  Uiso   1.00
X372   C     0.37680   0.11908   0.50723   0.00000  Uiso   1.00
C373   C     0.39658   0.15937   0.52592   0.00000  Uiso   1.00
C374   C     0.38816   0.16734   0.56976   0.00000  Uiso   1.00
X375   C     0.35809   0.13402   0.59622   0.00000  Uiso   1.00
C376   C     0.33784   0.09392   0.57760   0.00000  Uiso   1.00
H377   H     0.33121   0.05469   0.52276   0.00000  Uiso   1.00
H378   H     0.41734   0.18528   0.50542   0.00000  Uiso   1.00
H379   H     0.31500   0.06785   0.59691   0.00000  Uiso   1.00
O380   O     0.40845   0.20786   0.58809   0.00000  Uiso   1.00
C381   C     0.44152   0.24121   0.56416   0.00000  Uiso   1.00
H382   H     0.42980   0.24758   0.53284   0.00000  Uiso   1.00
H383   H     0.46679   0.23423   0.55730   0.00000  Uiso   1.00
H384   H     0.45452   0.26968   0.58493   0.00000  Uiso   1.00
C385   C     0.76342   0.09537   0.97330   0.00000  Uiso   1.00
X386   C     0.73763   0.11099   0.98731   0.00000  Uiso   1.00
C387   C     0.72629   0.13139   0.95543   0.00000  Uiso   1.00
C388   C     0.74199   0.13826   0.91127   0.00000  Uiso   1.00
X389   C     0.76866   0.12319   0.89836   0.00000  Uiso   1.00
C390   C     0.77831   0.10100   0.92937   0.00000  Uiso   1.00
H391   H     0.77326   0.07980   0.99662   0.00000  Uiso   1.00
H392   H     0.70496   0.14169   0.96523   0.00000  Uiso   1.00
H393   H     0.79899   0.08958   0.92013   0.00000  Uiso   1.00
O394   O     0.73194   0.15943   0.87885   0.00000  Uiso   1.00
C395   C     0.70688   0.17694   0.89140   0.00000  Uiso   1.00
H396   H     0.72214   0.20016   0.91840   0.00000  Uiso   1.00
H397   H     0.67542   0.15213   0.90169   0.00000  Uiso   1.00
H398   H     0.70329   0.19312   0.86217   0.00000  Uiso   1.00
C399   C     0.23058   0.89872   0.02324   0.00000  Uiso   1.00
X400   C     0.25602   0.88269   0.00914   0.00000  Uiso   1.00
C401   C     0.26719   0.86218   0.04108   0.00000  Uiso   1.00
C402   C     0.25196   0.85596   0.08544   0.00000  Uiso   1.00
X403   C     0.22592   0.87175   0.09850   0.00000  Uiso   1.00
C404   C     0.21619   0.89375   0.06733   0.00000  Uiso   1.00
H405   H     0.22071   0.91427  -0.00007   0.00000  Uiso   1.00
H406   H     0.28814   0.85143   0.03122   0.00000  Uiso   1.00
H407   H     0.19590   0.90562   0.07662   0.00000  Uiso   1.00
O408   O     0.26199   0.83486   0.11797   0.00000  Uiso   1.00
C409   C     0.28656   0.81682   0.10541   0.00000  Uiso   1.00
H410   H     0.31803   0.84129   0.09468   0.00000  Uiso   1.00
H411   H     0.27086   0.79335   0.07872   0.00000  Uiso   1.00
H412   H     0.29023   0.80081   0.13476   0.00000  Uiso   1.00
C413   C     0.08421   0.73061   0.45704   0.00000  Uiso   1.00
X414   C     0.11644   0.73377   0.48488   0.00000  Uiso   1.00
C415   C     0.15739   0.75712   0.46827   0.00000  Uiso   1.00
C416   C     0.16635   0.77662   0.42587   0.00000  Uiso   1.00
X417   C     0.13332   0.77312   0.39877   0.00000  Uiso   1.00
C418   C     0.09253   0.74990   0.41509   0.00000  Uiso   1.00
H419   H     0.05193   0.71206   0.46651   0.00000  Uiso   1.00
H420   H     0.18284   0.76211   0.48949   0.00000  Uiso   1.00
H421   H     0.06666   0.74619   0.39505   0.00000  Uiso   1.00
O422   O     0.20752   0.80040   0.40976   0.00000  Uiso   1.00
C423   C     0.24108   0.80225   0.43477   0.00000  Uiso   1.00
H424   H     0.23655   0.77059   0.43964   0.00000  Uiso   1.00
H425   H     0.24441   0.81800   0.46718   0.00000  Uiso   1.00
H426   H     0.27032   0.82084   0.41584   0.00000  Uiso   1.00
C427   C     0.89795   0.23376   0.52630   0.00000  Uiso   1.00
X428   C     0.88040   0.25773   0.51169   0.00000  Uiso   1.00
C429   C     0.85717   0.26628   0.54274   0.00000  Uiso   1.00
C430   C     0.84990   0.24993   0.58665   0.00000  Uiso   1.00
X431   C     0.86756   0.22566   0.60025   0.00000  Uiso   1.00
C432   C     0.89211   0.21852   0.57002   0.00000  Uiso   1.00
H433   H     0.91541   0.22564   0.50368   0.00000  Uiso   1.00
H434   H     0.84508   0.28604   0.53260   0.00000  Uiso   1.00
H435   H     0.90541   0.19956   0.57972   0.00000  Uiso   1.00
O436   O     0.82601   0.25722   0.61822   0.00000  Uiso   1.00
C437   C     0.80494   0.27864   0.60455   0.00000  Uiso   1.00
H438   H     0.78304   0.26175   0.57691   0.00000  Uiso   1.00
H439   H     0.82763   0.31106   0.59470   0.00000  Uiso   1.00
H440   H     0.78664   0.27993   0.63307   0.00000  Uiso   1.00
C441   C     0.72417   0.59654   0.54466   0.00000  Uiso   1.00
X442   C     0.74185   0.62488   0.50948   0.00000  Uiso   1.00
C443   C     0.77511   0.66492   0.51900   0.00000  Uiso   1.00
C444   C     0.79118   0.67668   0.56292   0.00000  Uiso   1.00
X445   C     0.77286   0.64762   0.59809   0.00000  Uiso   1.00
C446   C     0.73915   0.60784   0.58824   0.00000  Uiso   1.00
H447   H     0.69833   0.56561   0.53851   0.00000  Uiso   1.00
H448   H     0.78862   0.68648   0.49163   0.00000  Uiso   1.00
H449   H     0.72480   0.58484   0.61433   0.00000  Uiso   1.00
O450   O     0.82472   0.71654   0.57333   0.00000  Uiso   1.00
C451   C     0.84492   0.74565   0.53817   0.00000  Uiso   1.00
H452   H     0.82294   0.75353   0.52175   0.00000  Uiso   1.00
H453   H     0.85839   0.73325   0.51368   0.00000  Uiso   1.00
H454   H     0.87072   0.77464   0.55246   0.00000  Uiso   1.00
C455   C     0.86764   0.59836   0.95510   0.00000  Uiso   1.00
X456   C     0.88648   0.62905   0.98838   0.00000  Uiso   1.00
C457   C     0.90135   0.67086   0.97548   0.00000  Uiso   1.00
C458   C     0.89684   0.68176   0.93117   0.00000  Uiso   1.00
X459   C     0.87803   0.65023   0.89869   0.00000  Uiso   1.00
C460   C     0.86414   0.60886   0.91113   0.00000  Uiso   1.00
H461   H     0.85678   0.56599   0.96229   0.00000  Uiso   1.00
H462   H     0.91459   0.69476   1.00059   0.00000  Uiso   1.00
H463   H     0.84945   0.58416   0.88678   0.00000  Uiso   1.00
O464   O     0.91070   0.72309   0.91762   0.00000  Uiso   1.00
C465   C     0.92995   0.75569   0.94963   0.00000  Uiso   1.00
H466   H     0.95865   0.75740   0.96300   0.00000  Uiso   1.00
H467   H     0.90788   0.75122   0.97689   0.00000  Uiso   1.00
H468   H     0.93886   0.78568   0.93305   0.00000  Uiso   1.00
C469   C     0.60874   0.76215   0.02730   0.00000  Uiso   1.00
X470   C     0.62499   0.73803   0.00979   0.00000  Uiso   1.00
C471   C     0.65291   0.73246   0.03735   0.00000  Uiso   1.00
C472   C     0.66384   0.74985   0.08100   0.00000  Uiso   1.00
X473   C     0.64630   0.77330   0.09762   0.00000  Uiso   1.00
C474   C     0.61911   0.77922   0.06992   0.00000  Uiso   1.00
H475   H     0.58894   0.76961   0.00772   0.00000  Uiso   1.00
H476   H     0.66467   0.71289   0.02568   0.00000  Uiso   1.00
H477   H     0.60557   0.79756   0.08113   0.00000  Uiso   1.00
O478   O     0.69107   0.74416   0.10914   0.00000  Uiso   1.00
C479   C     0.71029   0.72177   0.09277   0.00000  Uiso   1.00
H480   H     0.72938   0.73730   0.06285   0.00000  Uiso   1.00
H481   H     0.68651   0.68904   0.08538   0.00000  Uiso   1.00
H482   H     0.73122   0.72142   0.11890   0.00000  Uiso   1.00
C483   C     0.65037   0.91354   0.46339   0.00000  Uiso   1.00
X484   C     0.62171   0.88046   0.49080   0.00000  Uiso   1.00
C485   C     0.60456   0.84001   0.47316   0.00000  Uiso   1.00
C486   C     0.61398   0.83251   0.42999   0.00000  Uiso   1.00
X487   C     0.64278   0.86589   0.40288   0.00000  Uiso   1.00
C488   C     0.66066   0.90633   0.42037   0.00000  Uiso   1.00
H489   H     0.66407   0.94549   0.47414   0.00000  Uiso   1.00
H490   H     0.58551   0.81325   0.49368   0.00000  Uiso   1.00
H491   H     0.68230   0.93265   0.40051   0.00000  Uiso   1.00
O492   O     0.59708   0.79129   0.41531   0.00000  Uiso   1.00
C493   C     0.55276   0.76825   0.41302   0.00000  Uiso   1.00
H494   H     0.54112   0.78419   0.39087   0.00000  Uiso   1.00
H495   H     0.53854   0.76366   0.44653   0.00000  Uiso   1.00
H496   H     0.54304   0.73717   0.39881   0.00000  Uiso   1.00
C497   C     0.29558   0.55208   0.22011   0.00000  Uiso   1.00
X498   C     0.28338   0.57519   0.24667   0.00000  Uiso   1.00
C499   C     0.24875   0.55374   0.27469   0.00000  Uiso   1.00
C500   C     0.22638   0.50964   0.27672   0.00000  Uiso   1.00
X501   C     0.23933   0.48675   0.24977   0.00000  Uiso   1.00
C502   C     0.27384   0.50863   0.22152   0.00000  Uiso   1.00
H503   H     0.32189   0.56768   0.19783   0.00000  Uiso   1.00
H504   H     0.23997   0.57189   0.29537   0.00000  Uiso   1.00
H505   H     0.28434   0.49206   0.20043   0.00000  Uiso   1.00
O506   O     0.19130   0.48736   0.30445   0.00000  Uiso   1.00
C507   C     0.17786   0.50979   0.33186   0.00000  Uiso   1.00
H508   H     0.16875   0.52870   0.31110   0.00000  Uiso   1.00
H509   H     0.20254   0.52965   0.35601   0.00000  Uiso   1.00
H510   H     0.15017   0.48722   0.35103   0.00000  Uiso   1.00
C511   C     0.25171   0.70135   0.21928   0.00000  Uiso   1.00
X512   C     0.28638   0.71267   0.24656   0.00000  Uiso   1.00
C513   C     0.29973   0.74723   0.27476   0.00000  Uiso   1.00
C514   C     0.27896   0.77057   0.27603   0.00000  Uiso   1.00
X515   C     0.24412   0.75887   0.24789   0.00000  Uiso   1.00
C516   C     0.23102   0.72412   0.21985   0.00000  Uiso   1.00
H517   H     0.24088   0.67509   0.19691   0.00000  Uiso   1.00
H518   H     0.32602   0.75520   0.29619   0.00000  Uiso   1.00
H519   H     0.20458   0.71446   0.19798   0.00000  Uiso   1.00
O520   O     0.29135   0.80497   0.30470   0.00000  Uiso   1.00
C521   C     0.32565   0.81657   0.33404   0.00000  Uiso   1.00
H522   H     0.35449   0.82557   0.31484   0.00000  Uiso   1.00
H523   H     0.31892   0.79091   0.35762   0.00000  Uiso   1.00
H524   H     0.33061   0.84392   0.35376   0.00000  Uiso   1.00
C525   C     0.44380   0.74414   0.22044   0.00000  Uiso   1.00
X526   C     0.42038   0.70932   0.24748   0.00000  Uiso   1.00
C527   C     0.44145   0.69589   0.27578   0.00000  Uiso   1.00
C528   C     0.48553   0.71671   0.27732   0.00000  Uiso   1.00
X529   C     0.50876   0.75182   0.24953   0.00000  Uiso   1.00
C530   C     0.48723   0.76494   0.22134   0.00000  Uiso   1.00
H531   H     0.42846   0.75503   0.19801   0.00000  Uiso   1.00
H532   H     0.42302   0.66940   0.29693   0.00000  Uiso   1.00
H533   H     0.50406   0.79162   0.19979   0.00000  Uiso   1.00
O534   O     0.50742   0.70368   0.30534   0.00000  Uiso   1.00
C535   C     0.48461   0.66876   0.33389   0.00000  Uiso   1.00
H536   H     0.46481   0.64034   0.31405   0.00000  Uiso   1.00
H537   H     0.46561   0.67500   0.35787   0.00000  Uiso   1.00
H538   H     0.50692   0.66337   0.35322   0.00000  Uiso   1.00
C539   C     0.55425   0.25451   0.77755   0.00000  Uiso   1.00
X540   C     0.57727   0.28962   0.75073   0.00000  Uiso   1.00
C541   C     0.55570   0.30292   0.72302   0.00000  Uiso   1.00
C542   C     0.51156   0.28159   0.72171   0.00000  Uiso   1.00
X543   C     0.48875   0.24623   0.74933   0.00000  Uiso   1.00
C544   C     0.51078   0.23328   0.77697   0.00000  Uiso   1.00
H545   H     0.56995   0.24369   0.79955   0.00000  Uiso   1.00
H546   H     0.57379   0.32963   0.70203   0.00000  Uiso   1.00
H547   H     0.49432   0.20647   0.79843   0.00000  Uiso   1.00
O548   O     0.48922   0.29407   0.69366   0.00000  Uiso   1.00
C549   C     0.51158   0.32879   0.66474   0.00000  Uiso   1.00
H550   H     0.53069   0.32264   0.64083   0.00000  Uiso   1.00
H551   H     0.53120   0.35747   0.68428   0.00000  Uiso   1.00
H552   H     0.48895   0.33366   0.64536   0.00000  Uiso   1.00
C553   C     0.74515   0.29715   0.77867   0.00000  Uiso   1.00
X554   C     0.71154   0.28695   0.75014   0.00000  Uiso   1.00
C555   C     0.69921   0.25354   0.72051   0.00000  Uiso   1.00
C556   C     0.71994   0.23018   0.71910   0.00000  Uiso   1.00
X557   C     0.75342   0.24041   0.74884   0.00000  Uiso   1.00
C558   C     0.76561   0.27414   0.77819   0.00000  Uiso   1.00
H559   H     0.75522   0.32262   0.80201   0.00000  Uiso   1.00
H560   H     0.67370   0.24649   0.69821   0.00000  Uiso   1.00
H561   H     0.79110   0.28279   0.80117   0.00000  Uiso   1.00
O562   O     0.70880   0.19713   0.68881   0.00000  Uiso   1.00
C563   C     0.67685   0.18796   0.65694   0.00000  Uiso   1.00
H564   H     0.68560   0.21521   0.63503   0.00000  Uiso   1.00
H565   H     0.64676   0.17814   0.67390   0.00000  Uiso   1.00
H566   H     0.67302   0.16182   0.63577   0.00000  Uiso   1.00
C567   C     0.70012   0.44718   0.72758   0.00000  Uiso   1.00
X568   C     0.71449   0.42450   0.75178   0.00000  Uiso   1.00
C569   C     0.75180   0.44668   0.77593   0.00000  Uiso   1.00
C570   C     0.77476   0.49085   0.77590   0.00000  Uiso   1.00
X571   C     0.75972   0.51300   0.75106   0.00000  Uiso   1.00
C572   C     0.72222   0.49065   0.72745   0.00000  Uiso   1.00
H573   H     0.67192   0.43131   0.70804   0.00000  Uiso   1.00
H574   H     0.76225   0.42917   0.79534   0.00000  Uiso   1.00
H575   H     0.71019   0.50694   0.70814   0.00000  Uiso   1.00
O576   O     0.81172   0.51405   0.80069   0.00000  Uiso   1.00
C577   C     0.82679   0.49247   0.82713   0.00000  Uiso   1.00
H578   H     0.83434   0.47268   0.80584   0.00000  Uiso   1.00
H579   H     0.80375   0.47361   0.85315   0.00000  Uiso   1.00
H580   H     0.85573   0.51561   0.84409   0.00000  Uiso   1.00
C581   C     0.48393   0.27685   0.11468   0.00000  Uiso   1.00
X582   C     0.47013   0.30552   0.12007   0.00000  Uiso   1.00
C583   C     0.49490   0.34176   0.14493   0.00000  Uiso   1.00
C584   C     0.53296   0.34944   0.16463   0.00000  Uiso   1.00
X585   C     0.54604   0.31974   0.15931   0.00000  Uiso   1.00
C586   C     0.52106   0.28371   0.13417   0.00000  Uiso   1.00
H587   H     0.46545   0.24848   0.09601   0.00000  Uiso   1.00
H588   H     0.48423   0.36385   0.14843   0.00000  Uiso   1.00
H589   H     0.53018   0.26044   0.12970   0.00000  Uiso   1.00
O590   O     0.55804   0.38513   0.19057   0.00000  Uiso   1.00
C591   C     0.54529   0.41522   0.19669   0.00000  Uiso   1.00
H592   H     0.51493   0.40121   0.21425   0.00000  Uiso   1.00
H593   H     0.54368   0.42861   0.16418   0.00000  Uiso   1.00
H594   H     0.56868   0.44084   0.21765   0.00000  Uiso   1.00
C595   C     0.49831   0.20659   0.39348   0.00000  Uiso   1.00
X596   C     0.47436   0.16522   0.37783   0.00000  Uiso   1.00
C597   C     0.49088   0.15393   0.34144   0.00000  Uiso   1.00
C598   C     0.52851   0.18286   0.31999   0.00000  Uiso   1.00
X599   C     0.55076   0.22447   0.33530   0.00000  Uiso   1.00
C600   C     0.53567   0.23545   0.37271   0.00000  Uiso   1.00
H601   H     0.48743   0.21798   0.42042   0.00000  Uiso   1.00
H602   H     0.47514   0.12202   0.33065   0.00000  Uiso   1.00
H603   H     0.55197   0.26713   0.38487   0.00000  Uiso   1.00
O604   O     0.54545   0.17179   0.28387   0.00000  Uiso   1.00
C605   C     0.52332   0.13046   0.26670   0.00000  Uiso   1.00
H606   H     0.49215   0.12315   0.25450   0.00000  Uiso   1.00
H607   H     0.52071   0.10774   0.29236   0.00000  Uiso   1.00
H608   H     0.54093   0.12806   0.23813   0.00000  Uiso   1.00
C609   C     0.66262   0.15528   0.14973   0.00000  Uiso   1.00
X610   C     0.69405   0.16519   0.11769   0.00000  Uiso   1.00
C611   C     0.71802   0.20743   0.10482   0.00000  Uiso   1.00
C612   C     0.71158   0.23890   0.12369   0.00000  Uiso   1.00
X613   C     0.67995   0.22788   0.15579   0.00000  Uiso   1.00
C614   C     0.65543   0.18591   0.16788   0.00000  Uiso   1.00
H615   H     0.64227   0.12348   0.16004   0.00000  Uiso   1.00
H616   H     0.74326   0.21619   0.08173   0.00000  Uiso   1.00
H617   H     0.63112   0.17681   0.19256   0.00000  Uiso   1.00
O618   O     0.73541   0.28128   0.11166   0.00000  Uiso   1.00
C619   C     0.76754   0.29345   0.07925   0.00000  Uiso   1.00
H620   H     0.75440   0.27784   0.04693   0.00000  Uiso   1.00
H621   H     0.79175   0.28658   0.09125   0.00000  Uiso   1.00
H622   H     0.78246   0.32749   0.07398   0.00000  Uiso   1.00
C623   C     0.28353   0.49295   0.60903   0.00000  Uiso   1.00
X624   C     0.30772   0.47442   0.61871   0.00000  Uiso   1.00
C625   C     0.34207   0.49589   0.64731   0.00000  Uiso   1.00
C626   C     0.35118   0.53408   0.66769   0.00000  Uiso   1.00
X627   C     0.32532   0.55112   0.65896   0.00000  Uiso   1.00
C628   C     0.29234   0.53080   0.62869   0.00000  Uiso   1.00
H629   H     0.25672   0.47744   0.58743   0.00000  Uiso   1.00
H630   H     0.36159   0.48254   0.65350   0.00000  Uiso   1.00
H631   H     0.27205   0.54325   0.62184   0.00000  Uiso   1.00
O632   O     0.38541   0.55643   0.69646   0.00000  Uiso   1.00
C633   C     0.41398   0.54178   0.70292   0.00000  Uiso   1.00
H634   H     0.42789   0.54037   0.67069   0.00000  Uiso   1.00
H635   H     0.39839   0.51094   0.71955   0.00000  Uiso   1.00
H636   H     0.43953   0.56395   0.72478   0.00000  Uiso   1.00
C637   C     0.82011   0.29586   0.33218   0.00000  Uiso   1.00
X638   C     0.82805   0.30265   0.37797   0.00000  Uiso   1.00
C639   C     0.80552   0.31729   0.40250   0.00000  Uiso   1.00
C640   C     0.77576   0.32543   0.38168   0.00000  Uiso   1.00
X641   C     0.76912   0.31917   0.33525   0.00000  Uiso   1.00
C642   C     0.79155   0.30425   0.31127   0.00000  Uiso   1.00
H643   H     0.83579   0.28362   0.31219   0.00000  Uiso   1.00
H644   H     0.81206   0.32309   0.43761   0.00000  Uiso   1.00
H645   H     0.78663   0.29843   0.27584   0.00000  Uiso   1.00
O646   O     0.75303   0.34051   0.40512   0.00000  Uiso   1.00
C647   C     0.75885   0.34654   0.45206   0.00000  Uiso   1.00
H648   H     0.79143   0.37051   0.45978   0.00000  Uiso   1.00
H649   H     0.75029   0.31674   0.46903   0.00000  Uiso   1.00
H650   H     0.73819   0.35778   0.46480   0.00000  Uiso   1.00
C651   C     0.67866   0.48764   0.40005   0.00000  Uiso   1.00
X652   C     0.69695   0.52591   0.37735   0.00000  Uiso   1.00
C653   C     0.70892   0.52673   0.33281   0.00000  Uiso   1.00
C654   C     0.70175   0.49015   0.31037   0.00000  Uiso   1.00
X655   C     0.68170   0.45150   0.33316   0.00000  Uiso   1.00
C656   C     0.67121   0.45097   0.37828   0.00000  Uiso   1.00
H657   H     0.66911   0.48584   0.43441   0.00000  Uiso   1.00
H658   H     0.72433   0.55639   0.31597   0.00000  Uiso   1.00
H659   H     0.65631   0.42192   0.39647   0.00000  Uiso   1.00
O660   O     0.71471   0.49061   0.26598   0.00000  Uiso   1.00
C661   C     0.73571   0.52913   0.24250   0.00000  Uiso   1.00
H662   H     0.76530   0.55097   0.25946   0.00000  Uiso   1.00
H663   H     0.71534   0.54293   0.23912   0.00000  Uiso   1.00
H664   H     0.74337   0.52320   0.20858   0.00000  Uiso   1.00
C665   C     0.79043   0.51324   0.11071   0.00000  Uiso   1.00
X666   C     0.83305   0.52770   0.11589   0.00000  Uiso   1.00
C667   C     0.84504   0.50337   0.14088   0.00000  Uiso   1.00
C668   C     0.81516   0.46534   0.16114   0.00000  Uiso   1.00
X669   C     0.77221   0.45173   0.15638   0.00000  Uiso   1.00
C670   C     0.76060   0.47612   0.13084   0.00000  Uiso   1.00
H671   H     0.78009   0.53133   0.09201   0.00000  Uiso   1.00
H672   H     0.87792   0.51451   0.14423   0.00000  Uiso   1.00
H673   H     0.72808   0.46666   0.12675   0.00000  Uiso   1.00
O674   O     0.82647   0.44087   0.18719   0.00000  Uiso   1.00
C675   C     0.86948   0.45410   0.19273   0.00000  Uiso   1.00
H676   H     0.88579   0.48466   0.20992   0.00000  Uiso   1.00
H677   H     0.88414   0.45554   0.16005   0.00000  Uiso   1.00
H678   H     0.87226   0.43110   0.21381   0.00000  Uiso   1.00
C679   C     0.20302   0.69931   0.59971   0.00000  Uiso   1.00
X680   C     0.16221   0.68397   0.61645   0.00000  Uiso   1.00
C681   C     0.15215   0.65993   0.65588   0.00000  Uiso   1.00
C682   C     0.18173   0.65373   0.67942   0.00000  Uiso   1.00
X683   C     0.22230   0.66961   0.66190   0.00000  Uiso   1.00
C684   C     0.23206   0.69175   0.62163   0.00000  Uiso   1.00
H685   H     0.21395   0.71887   0.57056   0.00000  Uiso   1.00
H686   H     0.12067   0.64445   0.66789   0.00000  Uiso   1.00
H687   H     0.26305   0.70490   0.60786   0.00000  Uiso   1.00
O688   O     0.17182   0.63122   0.71978   0.00000  Uiso   1.00
C689   C     0.13729   0.62690   0.74504   0.00000  Uiso   1.00
H690   H     0.10753   0.60458   0.72874   0.00000  Uiso   1.00
H691   H     0.13944   0.65758   0.74992   0.00000  Uiso   1.00
H692   H     0.13782   0.61425   0.77832   0.00000  Uiso   1.00
C693   C     0.20643   0.48460   0.88801   0.00000  Uiso   1.00
X694   C     0.16388   0.46797   0.87899   0.00000  Uiso   1.00
C695   C     0.15226   0.48975   0.84934   0.00000  Uiso   1.00
C696   C     0.18236   0.52694   0.82805   0.00000  Uiso   1.00
X697   C     0.22501   0.54337   0.83805   0.00000  Uiso   1.00
C698   C     0.23642   0.52162   0.86789   0.00000  Uiso   1.00
H699   H     0.21676   0.46851   0.91004   0.00000  Uiso   1.00
H700   H     0.11955   0.47747   0.84310   0.00000  Uiso   1.00
H701   H     0.26890   0.53318   0.87544   0.00000  Uiso   1.00
O702   O     0.17170   0.54754   0.79557   0.00000  Uiso   1.00
C703   C     0.13031   0.52689   0.77840   0.00000  Uiso   1.00
H704   H     0.10792   0.52434   0.80444   0.00000  Uiso   1.00
H705   H     0.12200   0.49576   0.76509   0.00000  Uiso   1.00
H706   H     0.12848   0.54540   0.75050   0.00000  Uiso   1.00
C707   C     0.52002   0.82776   0.66688   0.00000  Uiso   1.00
X708   C     0.52366   0.83195   0.62015   0.00000  Uiso   1.00
C709   C     0.48783   0.80462   0.59503   0.00000  Uiso   1.00
C710   C     0.45004   0.77413   0.61560   0.00000  Uiso   1.00
X711   C     0.44774   0.77103   0.66258   0.00000  Uiso   1.00
C712   C     0.48315   0.79836   0.68736   0.00000  Uiso   1.00
H713   H     0.54620   0.84581   0.68856   0.00000  Uiso   1.00
H714   H     0.48866   0.80811   0.55941   0.00000  Uiso   1.00
H715   H     0.48287   0.79653   0.72335   0.00000  Uiso   1.00
O716   O     0.41411   0.74686   0.59110   0.00000  Uiso   1.00
C717   C     0.41571   0.74856   0.54363   0.00000  Uiso   1.00
H718   H     0.43979   0.74176   0.53099   0.00000  Uiso   1.00
H719   H     0.42155   0.77933   0.53168   0.00000  Uiso   1.00
H720   H     0.38518   0.72452   0.53034   0.00000  Uiso   1.00
C721   C     0.27899   0.78871   0.89022   0.00000  Uiso   1.00
X722   C     0.30276   0.83116   0.87863   0.00000  Uiso   1.00
C723   C     0.33507   0.84223   0.84724   0.00000  Uiso   1.00
C724   C     0.34328   0.81217   0.82762   0.00000  Uiso   1.00
X725   C     0.31818   0.76978   0.83917   0.00000  Uiso   1.00
C726   C     0.28621   0.75871   0.87042   0.00000  Uiso   1.00
H727   H     0.25304   0.77781   0.91296   0.00000  Uiso   1.00
H728   H     0.35486   0.87465   0.83927   0.00000  Uiso   1.00
H729   H     0.26630   0.72638   0.87939   0.00000  Uiso   1.00
O730   O     0.37491   0.82250   0.79566   0.00000  Uiso   1.00
C731   C     0.40038   0.86492   0.78276   0.00000  Uiso   1.00
H732   H     0.41805   0.88421   0.81179   0.00000  Uiso   1.00
H733   H     0.38122   0.87689   0.76739   0.00000  Uiso   1.00
H734   H     0.42311   0.86689   0.75755   0.00000  Uiso   1.00
C735   C     0.51345   0.71892   0.88289   0.00000  Uiso   1.00
X736   C     0.52451   0.68793   0.88201   0.00000  Uiso   1.00
C737   C     0.49729   0.64989   0.86136   0.00000  Uiso   1.00
C738   C     0.45945   0.64260   0.84135   0.00000  Uiso   1.00
X739   C     0.44943   0.67486   0.84123   0.00000  Uiso   1.00
C740   C     0.47681   0.71265   0.86253   0.00000  Uiso   1.00
H741   H     0.53380   0.74860   0.89848   0.00000  Uiso   1.00
H742   H     0.50597   0.62613   0.86135   0.00000  Uiso   1.00
H743   H     0.47006   0.73783   0.86318   0.00000  Uiso   1.00
O744   O     0.43157   0.60455   0.82055   0.00000  Uiso   1.00
C745   C     0.43897   0.57048   0.82421   0.00000  Uiso   1.00
H746   H     0.43982   0.56259   0.85972   0.00000  Uiso   1.00
H747   H     0.46828   0.57767   0.80697   0.00000  Uiso   1.00
H748   H     0.41309   0.54295   0.80781   0.00000  Uiso   1.00
C749   C     0.02644   0.91413   0.26955   0.00000  Uiso   1.00
X750   C     0.04349   0.95513   0.25306   0.00000  Uiso   1.00
C751   C     0.08439   0.97363   0.23565   0.00000  Uiso   1.00
C752   C     0.10764   0.95262   0.23496   0.00000  Uiso   1.00
X753   C     0.08944   0.91140   0.25141   0.00000  Uiso   1.00
C754   C     0.04891   0.89294   0.26880   0.00000  Uiso   1.00
H755   H    -0.00396   0.89830   0.28483   0.00000  Uiso   1.00
H756   H     0.09768   1.00390   0.22058   0.00000  Uiso   1.00
H757   H     0.03426   0.86163   0.28200   0.00000  Uiso   1.00
O758   O     0.14886   0.97143   0.21873   0.00000  Uiso   1.00
C759   C     0.16914   1.01382   0.20473   0.00000  Uiso   1.00
H760   H     0.17068   1.03428   0.23252   0.00000  Uiso   1.00
H761   H     0.15313   1.01753   0.17536   0.00000  Uiso   1.00
H762   H     0.20142   1.02328   0.19472   0.00000  Uiso   1.00
C763   C     0.08143   0.11245   0.26993   0.00000  Uiso   1.00
X764   C     0.04079   0.08846   0.25262   0.00000  Uiso   1.00
C765   C     0.02248   0.11075   0.23446   0.00000  Uiso   1.00
C766   C     0.04349   0.15505   0.23356   0.00000  Uiso   1.00
X767   C     0.08433   0.17813   0.25108   0.00000  Uiso   1.00
C768   C     0.10251   0.15604   0.26919   0.00000  Uiso   1.00
H769   H     0.09702   0.09801   0.28603   0.00000  Uiso   1.00
H770   H    -0.00763   0.09356   0.21905   0.00000  Uiso   1.00
H771   H     0.13349   0.17261   0.28323   0.00000  Uiso   1.00
O772   O     0.02517   0.17735   0.21576   0.00000  Uiso   1.00
C773   C    -0.01632   0.15507   0.19906   0.00000  Uiso   1.00
H774   H    -0.03827   0.13589   0.22575   0.00000  Uiso   1.00
H775   H    -0.01822   0.13556   0.17014   0.00000  Uiso   1.00
H776   H    -0.02542   0.17776   0.18748   0.00000  Uiso   1.00
C777   C     0.88289   0.96499   0.27769   0.00000  Uiso   1.00
X778   C     0.90633   0.95205   0.25258   0.00000  Uiso   1.00
C779   C     0.88462   0.91615   0.22621   0.00000  Uiso   1.00
C780   C     0.84036   0.89318   0.22474   0.00000  Uiso   1.00
X781   C     0.81719   0.90673   0.25047   0.00000  Uiso   1.00
C782   C     0.83926   0.94282   0.27661   0.00000  Uiso   1.00
H783   H     0.89833   0.99216   0.29882   0.00000  Uiso   1.00
H784   H     0.90268   0.90677   0.20620   0.00000  Uiso   1.00
H785   H     0.82268   0.95399   0.29674   0.00000  Uiso   1.00
O786   O     0.81822   0.85725   0.19815   0.00000  Uiso   1.00
C787   C     0.84074   0.84272   0.17248   0.00000  Uiso   1.00
H788   H     0.85961   0.83454   0.19449   0.00000  Uiso   1.00
H789   H     0.86061   0.86635   0.14742   0.00000  Uiso   1.00
H790   H     0.81821   0.81423   0.15437   0.00000  Uiso   1.00
C791   C     0.11509   0.08555   0.76577   0.00000  Uiso   1.00
X792   C     0.09127   0.04470   0.74900   0.00000  Uiso   1.00
C793   C     0.11367   0.02632   0.73129   0.00000  Uiso   1.00
C794   C     0.15794   0.04732   0.73070   0.00000  Uiso   1.00
X795   C     0.18088   0.08823   0.74798   0.00000  Uiso   1.00
C796   C     0.15870   0.10661   0.76538   0.00000  Uiso   1.00
H797   H     0.10046   0.10128   0.78115   0.00000  Uiso   1.00
H798   H     0.09658  -0.00392   0.71612   0.00000  Uiso   1.00
H799   H     0.17522   0.13773   0.77906   0.00000  Uiso   1.00
O800   O     0.18037   0.02883   0.71370   0.00000  Uiso   1.00
C801   C     0.15819  -0.01277   0.69726   0.00000  Uiso   1.00
H802   H     0.13894  -0.01482   0.66802   0.00000  Uiso   1.00
H803   H     0.13875  -0.03455   0.72395   0.00000  Uiso   1.00
H804   H     0.18095  -0.02198   0.68625   0.00000  Uiso   1.00
C805   C     0.91887   0.03173   0.77447   0.00000  Uiso   1.00
X806   C     0.95600   0.04611   0.75038   0.00000  Uiso   1.00
C807   C     0.97020   0.08269   0.72515   0.00000  Uiso   1.00
C808   C     0.94816   0.10493   0.72390   0.00000  Uiso   1.00
X809   C     0.91050   0.08970   0.74830   0.00000  Uiso   1.00
C810   C     0.89658   0.05304   0.77340   0.00000  Uiso   1.00
H811   H     0.90709   0.00402   0.79474   0.00000  Uiso   1.00
H812   H     0.99822   0.09322   0.70585   0.00000  Uiso   1.00
H813   H     0.86817   0.04065   0.79259   0.00000  Uiso   1.00
O814   O     0.96231   0.14191   0.69907   0.00000  Uiso   1.00
C815   C     1.00093   0.15880   0.67589   0.00000  Uiso   1.00
H816   H     0.99939   0.13695   0.64971   0.00000  Uiso   1.00
H817   H     1.02677   0.16633   0.69951   0.00000  Uiso   1.00
H818   H     1.00716   0.18805   0.65933   0.00000  Uiso   1.00
C819   C     0.92034   0.88679   0.77613   0.00000  Uiso   1.00
X820   C     0.95578   0.90962   0.74951   0.00000  Uiso   1.00
C821   C     0.96903   0.88748   0.72247   0.00000  Uiso   1.00
C822   C     0.94755   0.84327   0.72183   0.00000  Uiso   1.00
X823   C     0.91160   0.82092   0.74844   0.00000  Uiso   1.00
C824   C     0.89877   0.84316   0.77579   0.00000  Uiso   1.00
H825   H     0.90952   0.90271   0.79778   0.00000  Uiso   1.00
H826   H     0.99599   0.90513   0.70166   0.00000  Uiso   1.00
H827   H     0.87156   0.82664   0.79672   0.00000  Uiso   1.00
O828   O     0.96126   0.82024   0.69668   0.00000  Uiso   1.00
C829   C     1.00071   0.84207   0.67506   0.00000  Uiso   1.00
H830   H     1.02567   0.86062   0.69951   0.00000  Uiso   1.00
H831   H     0.99999   0.86217   0.64811   0.00000  Uiso   1.00
H832   H     1.00783   0.81919   0.65986   0.00000  Uiso   1.00
C833   C     0.31426   0.32397   0.11340   0.00000  Uiso   1.00
X834   C     0.33336   0.30312   0.13193   0.00000  Uiso   1.00
C835   C     0.32404   0.28944   0.17638   0.00000  Uiso   1.00
C836   C     0.29563   0.29599   0.20219   0.00000  Uiso   1.00
X837   C     0.27679   0.31731   0.18287   0.00000  Uiso   1.00
C838   C     0.28677   0.33121   0.13849   0.00000  Uiso   1.00
H839   H     0.32102   0.33520   0.07945   0.00000  Uiso   1.00
H840   H     0.33874   0.27317   0.19025   0.00000  Uiso   1.00
H841   H     0.27267   0.34733   0.12266   0.00000  Uiso   1.00
O842   O     0.28554   0.28247   0.24676   0.00000  Uiso   1.00
C843   C     0.30348   0.26016   0.26652   0.00000  Uiso   1.00
H844   H     0.33786   0.27989   0.26808   0.00000  Uiso   1.00
H845   H     0.29424   0.23097   0.24788   0.00000  Uiso   1.00
H846   H     0.29167   0.25163   0.30103   0.00000  Uiso   1.00
C847   C    -0.03756   0.29221   0.32508   0.00000  Uiso   1.00
X848   C    -0.03468   0.30542   0.36944   0.00000  Uiso   1.00
C849   C     0.00475   0.32658   0.38932   0.00000  Uiso   1.00
C850   C     0.04112   0.33430   0.36590   0.00000  Uiso   1.00
X851   C     0.03766   0.32033   0.32115   0.00000  Uiso   1.00
C852   C    -0.00201   0.29931   0.30143   0.00000  Uiso   1.00
H853   H    -0.06757   0.27556   0.30888   0.00000  Uiso   1.00
H854   H     0.00668   0.33716   0.42319   0.00000  Uiso   1.00
H855   H    -0.00560   0.28818   0.26749   0.00000  Uiso   1.00
O856   O     0.08094   0.35469   0.38584   0.00000  Uiso   1.00
C857   C     0.08512   0.36882   0.43074   0.00000  Uiso   1.00
H858   H     0.06731   0.34221   0.45364   0.00000  Uiso   1.00
H859   H     0.07493   0.39219   0.43389   0.00000  Uiso   1.00
H860   H     0.11837   0.38401   0.44033   0.00000  Uiso   1.00
C861   C     0.31690   0.99509   0.38474   0.00000  Uiso   1.00
X862   C     0.33528   1.03504   0.36628   0.00000  Uiso   1.00
C863   C     0.32425   1.03934   0.32253   0.00000  Uiso   1.00
C864   C     0.29504   1.00425   0.29732   0.00000  Uiso   1.00
X865   C     0.27724   0.96402   0.31644   0.00000  Uiso   1.00
C866   C     0.28870   0.96027   0.36021   0.00000  Uiso   1.00
H867   H     0.32489   0.99066   0.41817   0.00000  Uiso   1.00
H868   H     0.33836   1.07031   0.30874   0.00000  Uiso   1.00
H869   H     0.27549   0.93006   0.37594   0.00000  Uiso   1.00
O870   O     0.28324   1.00759   0.25347   0.00000  Uiso   1.00
C871   C     0.29950   1.04790   0.23423   0.00000  Uiso   1.00
H872   H     0.33386   1.06340   0.23117   0.00000  Uiso   1.00
H873   H     0.29018   1.06710   0.25418   0.00000  Uiso   1.00
H874   H     0.28638   1.04448   0.20030   0.00000  Uiso   1.00
C875   C     0.70297   1.03138   0.17563   0.00000  Uiso   1.00
X876   C     0.69050   1.02849   0.13095   0.00000  Uiso   1.00
C877   C     0.67033   0.98904   0.11093   0.00000  Uiso   1.00
C878   C     0.66306   0.95282   0.13438   0.00000  Uiso   1.00
X879   C     0.67611   0.95628   0.17947   0.00000  Uiso   1.00
C880   C     0.69609   0.99589   0.19941   0.00000  Uiso   1.00
H881   H     0.71892   1.06135   0.19199   0.00000  Uiso   1.00
H882   H     0.66025   0.98696   0.07683   0.00000  Uiso   1.00
H883   H     0.70655   0.99949   0.23361   0.00000  Uiso   1.00
O884   O     0.64409   0.91315   0.11412   0.00000  Uiso   1.00
C885   C     0.63181   0.90905   0.06853   0.00000  Uiso   1.00
H886   H     0.65921   0.92773   0.04688   0.00000  Uiso   1.00
H887   H     0.60786   0.91828   0.06385   0.00000  Uiso   1.00
H888   H     0.61795   0.87596   0.05868   0.00000  Uiso   1.00
C889   C     0.29244   0.32790   0.67879   0.00000  Uiso   1.00
X890   C     0.30193   0.33536   0.63323   0.00000  Uiso   1.00
C891   C     0.31909   0.31379   0.61180   0.00000  Uiso   1.00
C892   C     0.32633   0.28469   0.63478   0.00000  Uiso   1.00
X893   C     0.31679   0.27763   0.68085   0.00000  Uiso   1.00
C894   C     0.29957   0.29928   0.70220   0.00000  Uiso   1.00
H895   H     0.27885   0.34372   0.69624   0.00000  Uiso   1.00
H896   H     0.32697   0.32020   0.57698   0.00000  Uiso   1.00
H897   H     0.29179   0.29422   0.73724   0.00000  Uiso   1.00
O898   O     0.34177   0.26130   0.61323   0.00000  Uiso   1.00
C899   C     0.34952   0.26627   0.56646   0.00000  Uiso   1.00
H900   H     0.37436   0.29849   0.55871   0.00000  Uiso   1.00
H901   H     0.32052   0.25811   0.54796   0.00000  Uiso   1.00
H902   H     0.36033   0.24475   0.55552   0.00000  Uiso   1.00
C903   C     0.29471  -0.03511   0.82102   0.00000  Uiso   1.00
X904   C     0.30428  -0.03308   0.86662   0.00000  Uiso   1.00
C905   C     0.32159   0.00578   0.88782   0.00000  Uiso   1.00
C906   C     0.32863   0.04207   0.86472   0.00000  Uiso   1.00
X907   C     0.31932   0.03957   0.81856   0.00000  Uiso   1.00
C908   C     0.30207   0.00062   0.79742   0.00000  Uiso   1.00
H909   H     0.28084  -0.06457   0.80364   0.00000  Uiso   1.00
H910   H     0.32973   0.00746   0.92256   0.00000  Uiso   1.00
H911   H     0.29423  -0.00224   0.76238   0.00000  Uiso   1.00
O912   O     0.34355   0.08080   0.88630   0.00000  Uiso   1.00
C913   C     0.34817   0.08283   0.93356   0.00000  Uiso   1.00
H914   H     0.37287   0.07595   0.94366   0.00000  Uiso   1.00
H915   H     0.31816   0.06126   0.94997   0.00000  Uiso   1.00
H916   H     0.35759   0.11478   0.94470   0.00000  Uiso   1.00
C917   C     0.00596   0.68524   0.11231   0.00000  Uiso   1.00
X918   C    -0.03376   0.66558   0.13150   0.00000  Uiso   1.00
C919   C    -0.03759   0.67449   0.17624   0.00000  Uiso   1.00
C920   C    -0.00234   0.70323   0.20158   0.00000  Uiso   1.00
X921   C     0.03752   0.72289   0.18138   0.00000  Uiso   1.00
C922   C     0.04088   0.71315   0.13680   0.00000  Uiso   1.00
H923   H     0.01015   0.67872   0.07816   0.00000  Uiso   1.00
H924   H    -0.06836   0.65931   0.19067   0.00000  Uiso   1.00
H925   H     0.07083   0.72765   0.12036   0.00000  Uiso   1.00
O926   O    -0.00514   0.71280   0.24651   0.00000  Uiso   1.00
C927   C    -0.04494   0.69334   0.26749   0.00000  Uiso   1.00
H928   H    -0.05849   0.65907   0.26829   0.00000  Uiso   1.00
H929   H    -0.06608   0.70188   0.25026   0.00000  Uiso   1.00
H930   H    -0.04112   0.70453   0.30234   0.00000  Uiso   1.00
C931   C     1.00999   0.65863   0.65622   0.00000  Uiso   1.00
X932   C     1.02969   0.68972   0.62363   0.00000  Uiso   1.00
C933   C     1.01363   0.71626   0.61556   0.00000  Uiso   1.00
C934   C     0.97785   0.71136   0.63784   0.00000  Uiso   1.00
X935   C     0.95853   0.68007   0.67104   0.00000  Uiso   1.00
C936   C     0.97527   0.65414   0.67977   0.00000  Uiso   1.00
H937   H     1.02105   0.63723   0.66322   0.00000  Uiso   1.00
H938   H     1.02972   0.74142   0.59223   0.00000  Uiso   1.00
H939   H     0.96104   0.62974   0.70447   0.00000  Uiso   1.00
O940   O     0.96104   0.73730   0.62854   0.00000  Uiso   1.00
C941   C     0.97122   0.75934   0.58727   0.00000  Uiso   1.00
H942   H     0.96452   0.73772   0.55887   0.00000  Uiso   1.00
H943   H     1.00422   0.78455   0.58694   0.00000  Uiso   1.00
H944   H     0.95174   0.77405   0.58353   0.00000  Uiso   1.00
C945   C     0.98898   0.31309   0.88701   0.00000  Uiso   1.00
X946   C     1.02880   0.33152   0.86824   0.00000  Uiso   1.00
C947   C     1.03288   0.32132   0.82411   0.00000  Uiso   1.00
C948   C     0.99771   0.29272   0.79879   0.00000  Uiso   1.00
X949   C     0.95765   0.27449   0.81839   0.00000  Uiso   1.00
C950   C     0.95405   0.28529   0.86247   0.00000  Uiso   1.00
H951   H     0.98476   0.32057   0.92076   0.00000  Uiso   1.00
H952   H     1.06378   0.33546   0.81013   0.00000  Uiso   1.00
H953   H     0.92393   0.27176   0.87845   0.00000  Uiso   1.00
O954   O     1.00082   0.28184   0.75446   0.00000  Uiso   1.00
C955   C     1.04095   0.29903   0.73452   0.00000  Uiso   1.00
H956   H     1.06068   0.28966   0.75337   0.00000  Uiso   1.00
H957   H     1.05601   0.33342   0.73242   0.00000  Uiso   1.00
H958   H     1.03730   0.28672   0.70017   0.00000  Uiso   1.00
C959   C     0.70717   0.67111   0.32340   0.00000  Uiso   1.00
X960   C     0.69385   0.66016   0.36760   0.00000  Uiso   1.00
C961   C     0.67169   0.67729   0.38764   0.00000  Uiso   1.00
C962   C     0.66304   0.70544   0.36453   0.00000  Uiso   1.00
X963   C     0.67738   0.71687   0.32004   0.00000  Uiso   1.00
C964   C     0.69937   0.69929   0.30013   0.00000  Uiso   1.00
H965   H     0.72445   0.65848   0.30709   0.00000  Uiso   1.00
H966   H     0.66110   0.66812   0.42143   0.00000  Uiso   1.00
H967   H     0.71069   0.70744   0.26632   0.00000  Uiso   1.00
O968   O     0.64130   0.72344   0.38457   0.00000  Uiso   1.00
C969   C     0.62590   0.71160   0.42886   0.00000  Uiso   1.00
H970   H     0.65195   0.72054   0.45260   0.00000  Uiso   1.00
H971   H     0.60338   0.67771   0.43058   0.00000  Uiso   1.00
H972   H     0.60934   0.72825   0.43863   0.00000  Uiso   1.00
C973   C     0.68041   0.00440   0.61168   0.00000  Uiso   1.00
X974   C     0.66033  -0.03530   0.63085   0.00000  Uiso   1.00
C975   C     0.66973  -0.03951   0.67531   0.00000  Uiso   1.00
C976   C     0.69909  -0.00460   0.70052   0.00000  Uiso   1.00
X977   C     0.71899   0.03527   0.68048   0.00000  Uiso   1.00
C978   C     0.70900   0.03903   0.63609   0.00000  Uiso   1.00
H979   H     0.67364   0.00879   0.57770   0.00000  Uiso   1.00
H980   H     0.65433  -0.07031   0.68965   0.00000  Uiso   1.00
H981   H     0.72376   0.06907   0.61981   0.00000  Uiso   1.00
O982   O     0.70900  -0.00775   0.74524   0.00000  Uiso   1.00
C983   C     0.68918  -0.04761   0.76610   0.00000  Uiso   1.00
H984   H     0.69705  -0.06907   0.74846   0.00000  Uiso   1.00
H985   H     0.65499  -0.06064   0.76736   0.00000  Uiso   1.00
H986   H     0.70070  -0.04407   0.80079   0.00000  Uiso   1.00
C987   C     0.70322   0.71744   0.87271   0.00000  Uiso   1.00
X988   C     0.66064   0.68831   0.87035   0.00000  Uiso   1.00
C989   C     0.64784   0.65332   0.84272   0.00000  Uiso   1.00
C990   C     0.67715   0.64684   0.81844   0.00000  Uiso   1.00
X991   C     0.72012   0.67632   0.82225   0.00000  Uiso   1.00
C992   C     0.73229   0.71151   0.84932   0.00000  Uiso   1.00
H993   H     0.71427   0.74531   0.89259   0.00000  Uiso   1.00
H994   H     0.61502   0.63089   0.84121   0.00000  Uiso   1.00
H995   H     0.76478   0.73493   0.85255   0.00000  Uiso   1.00
O996   O     0.66539   0.61168   0.79120   0.00000  Uiso   1.00
C997   C     0.62229   0.58178   0.78670   0.00000  Uiso   1.00
H998   H     0.60518   0.59633   0.77198   0.00000  Uiso   1.00
H999   H     0.60882   0.56736   0.81940   0.00000  Uiso   1.00
H1000  H     0.61899   0.55683   0.76389   0.00000  Uiso   1.00
loop_
_geom_bond_atom_site_label_1
_geom_bond_atom_site_label_2
_geom_bond_distance
_geom_bond_site_symmetry_2
_ccdc_geom_bond_type
X1     C2      1.424   .     A
X1     C6      1.420   .     A
X1     X750    1.446   1_655 A
C2     X3      1.422   .     A
C2     H7      1.076   .     S
X3     C4      1.419   .     A
X3     X764    1.445   1_665 A
C4     X5      1.410   .     A
C4     H8      1.080   .     S
X5     C6      1.412   .     A
X5     X778    1.511   .     S
C6     H9      1.080   .     S
X10    C11     1.421   .     A
X10    C15     1.423   .     A
X10    X792    1.443   1_665 A
C11    X12     1.411   .     A
C11    H16     1.081   .     S
X12    C13     1.408   .     A
X12    X820    1.506   .     S
C13    X14     1.411   .     A
C13    H17     1.083   .     S
X14    C15     1.416   .     A
X14    X806    1.510   1_565 S
C15    H18     1.080   .     S
X19    C20     1.408   .     A
X19    C24     1.410   .     A
X19    X498    1.496   .     S
C20    X21     1.408   .     A
C20    H25     1.083   .     S
X21    C22     1.408   .     A
X21    X526    1.495   .     S
C22    X23     1.409   .     A
C22    H26     1.083   .     S
X23    C24     1.410   .     A
X23    X512    1.496   .     S
C24    H27     1.083   .     S
X28    C29     1.408   .     A
X28    C33     1.409   .     A
X28    X540    1.497   .     S
C29    X30     1.408   .     A
C29    H34     1.083   .     S
X30    C31     1.409   .     A
X30    X554    1.495   .     S
C31    X32     1.412   .     A
C31    H35     1.083   .     S
X32    C33     1.411   .     A
X32    X568    1.502   .     S
C33    H36     1.083   .     S
X37    C38     1.421   .     A
X37    C42     1.421   .     A
X37    X358    1.441   1_554 A
C38    X39     1.416   .     A
C38    H43     1.081   .     S
X39    C40     1.409   .     A
X39    X834    1.501   .     S
C40    X41     1.406   .     A
C40    H44     1.083   .     S
X41    C42     1.406   .     A
X41    X582    1.501   .     S
C42    H45     1.081   .     S
X46    C47     1.425   .     A
X46    C51     1.417   .     A
X46    X372    1.444   1_565 A
C47    X48     1.420   .     A
C47    H52     1.078   .     S
X48    C49     1.419   .     A
X48    X596    1.444   1_565 A
C49    X50     1.408   .     A
C49    H53     1.081   .     S
X50    C51     1.410   .     A
X50    X862    1.503   .     S
C51    H54     1.081   .     S
X55    C56     1.410   .     A
X55    C60     1.414   .     A
X55    X386    1.512   1_564 S
C56    X57     1.411   .     A
C56    H61     1.082   .     S
X57    C58     1.412   .     A
X57    X876    1.505   .     S
C58    X59     1.420   .     A
C58    H62     1.082   .     S
X59    C60     1.419   .     A
X59    X610    1.437   1_565 A
C60    H63     1.080   .     S
X64    C65     1.414   .     A
X64    C69     1.407   .     A
X64    X344    1.504   .     S
C65    X66     1.413   .     A
C65    H70     1.082   .     S
X66    C67     1.416   .     A
X66    X624    1.509   .     S
C67    X68     1.411   .     A
C67    H71     1.082   .     S
X68    C69     1.410   .     A
X68    X890    1.502   .     S
C69    H72     1.083   .     S
X73    C74     1.414   .     A
X73    C78     1.424   .     A
X73    X414    1.443   1_655 A
C74    X75     1.410   .     A
C74    H79     1.078   .     S
X75    C76     1.408   .     A
X75    X932    1.510   .     S
C76    X77     1.422   .     A
C76    H80     1.079   .     S
X77    C78     1.422   .     A
X77    X680    1.448   1_655 A
C78    H81     1.077   .     S
X82    C83     1.417   .     A
X82    C87     1.422   .     A
X82    X330    1.437   1_656 A
C83    X84     1.411   .     A
C83    H88     1.081   .     S
X84    C85     1.408   .     A
X84    X946    1.498   .     S
C85    X86     1.408   .     A
C85    H89     1.083   .     S
X86    C87     1.410   .     A
X86    X694    1.507   1_655 S
C87    H90     1.081   .     S
X91    C92     1.417   .     A
X91    C96     1.414   .     A
X91    X428    1.513   1_455 S
C92    X93     1.413   .     A
C92    H97     1.081   .     S
X93    C94     1.412   .     A
X93    X638    1.507   1_455 S
C94    X95     1.407   .     A
C94    H98     1.083   .     S
X95    C96     1.411   .     A
X95    X848    1.501   .     S
C96    H99     1.081   .     S
X100   C101    1.415   .     A
X100   C105    1.409   .     A
X100   X442    1.502   .     S
C101   X102    1.415   .     A
C101   H106    1.083   .     S
X102   C103    1.414   .     A
X102   X652    1.506   .     S
C103   X104    1.407   .     A
C103   H107    1.083   .     S
X104   C105    1.409   .     A
X104   X960    1.499   .     S
C105   H108    1.084   .     S
X109   C110    1.418   .     A
X109   C114    1.421   .     A
X109   X456    1.437   1_454 A
C110   X111    1.411   .     A
C110   H115    1.082   .     S
X111   C112    1.408   .     A
X111   X918    1.502   .     S
C112   X113    1.410   .     A
C112   H116    1.083   .     S
X113   C114    1.414   .     A
X113   X666    1.504   1_455 S
C114   H117    1.082   .     S
X118   C119    1.426   .     A
X118   C123    1.414   .     A
X118   X484    1.440   1_545 A
C119   X120    1.422   .     A
C119   H124    1.076   .     S
X120   C121    1.419   .     A
X120   X708    1.445   1_545 A
C121   X122    1.407   .     A
C121   H125    1.080   .     S
X122   C123    1.407   .     A
X122   X974    1.501   .     S
C123   H126    1.081   .     S
X127   C128    1.416   .     A
X127   C132    1.410   .     A
X127   X400    1.514   1_546 S
C128   X129    1.420   .     A
C128   H133    1.080   .     S
X129   C130    1.420   .     A
X129   X722    1.438   1_545 A
C130   X131    1.411   .     A
C130   H134    1.081   .     S
X131   C132    1.411   .     A
X131   X904    1.507   .     S
C132   H135    1.081   .     S
X136   C137    1.421   .     A
X136   C141    1.417   .     A
X136   X470    1.439   1_556 A
C137   X138    1.410   .     A
C137   H142    1.081   .     S
X138   C139    1.409   .     A
X138   X736    1.501   .     S
C139   X140    1.410   .     A
C139   H143    1.083   .     S
X140   C141    1.413   .     A
X140   X988    1.504   .     S
C141   H144    1.080   .     S
Zn145  O149    1.830   .     S
Zn145  O150    1.790   .     S
Zn145  O154    1.824   .     S
Zn145  O161    1.806   .     S
Zn146  O149    1.860   .     S
Zn146  O151    1.847   .     S
Zn146  O153    1.840   .     S
Zn146  O157    1.848   .     S
Zn147  O149    1.829   .     S
Zn147  O152    1.814   .     S
Zn147  O155    1.788   .     S
Zn147  O158    1.815   .     S
Zn148  O149    1.833   .     S
Zn148  O156    1.813   .     S
Zn148  O159    1.794   .     S
Zn148  O160    1.827   .     S
O150   X162    1.272   .     A
O151   X163    1.279   .     A
O152   X164    1.273   .     A
O153   X162    1.279   .     A
O154   X164    1.275   .     A
O155   X163    1.271   .     A
O156   X165    1.275   .     A
O157   X166    1.280   .     A
O158   X165    1.275   .     A
O159   X166    1.271   .     A
O160   X167    1.275   .     A
O161   X167    1.272   .     A
X162   X641    1.501   .     S
X163   X655    1.502   .     S
X164   X669    1.506   .     S
X165   X585    1.501   .     S
X166   X599    1.505   .     S
X167   X613    1.499   .     S
Zn168  O172    1.835   .     S
Zn168  O173    1.820   .     S
Zn168  O177    1.794   .     S
Zn168  O184    1.814   .     S
Zn169  O172    1.837   .     S
Zn169  O174    1.795   .     S
Zn169  O176    1.813   .     S
Zn169  O180    1.818   .     S
Zn170  O172    1.859   .     S
Zn170  O175    1.846   .     S
Zn170  O178    1.842   .     S
Zn170  O181    1.848   .     S
Zn171  O172    1.834   .     S
Zn171  O179    1.794   .     S
Zn171  O182    1.818   .     S
Zn171  O183    1.823   .     S
O173   X185    1.275   .     A
O174   X186    1.271   .     A
O175   X187    1.279   .     A
O176   X185    1.273   .     A
O177   X187    1.271   .     A
O178   X186    1.279   .     A
O179   X188    1.272   .     A
O180   X189    1.274   .     A
O181   X188    1.280   .     A
O182   X189    1.274   .     A
O183   X190    1.276   .     A
O184   X190    1.274   .     A
X185   X697    1.499   .     S
X186   X627    1.495   .     S
X187   X683    1.506   .     S
X188   X711    1.509   .     S
X189   X739    1.507   .     S
X190   X725    1.500   .     S
Zn191  O195    1.820   .     S
Zn191  O196    1.766   .     S
Zn191  O200    1.798   .     S
Zn191  O207    1.811   .     S
Zn192  O195    1.853   .     S
Zn192  O197    1.824   .     S
Zn192  O199    1.860   .     S
Zn192  O203    1.840   .     S
Zn193  O195    1.847   .     S
Zn193  O198    1.831   .     S
Zn193  O201    1.827   .     S
Zn193  O204    1.851   .     S
Zn194  O195    1.816   .     S
Zn194  O202    1.776   .     S
Zn194  O205    1.785   .     S
Zn194  O206    1.799   .     S
O196   X208    1.266   .     A
O197   X209    1.278   .     A
O198   X210    1.276   .     A
O199   X208    1.281   .     A
O200   X210    1.271   .     A
O201   X209    1.279   .     A
O202   X211    1.268   .     A
O203   X212    1.277   .     A
O204   X211    1.280   .     A
O205   X212    1.268   .     A
O206   X213    1.270   .     A
O207   X213    1.272   .     A
X208   X333    1.507   .     S
X209   X767    1.512   .     S
X210   X837    1.503   .     S
X211   X347    1.503   .     S
X212   X851    1.504   .     S
X213   X501    1.500   .     S
Zn214  O218    1.808   .     S
Zn214  O219    1.790   .     S
Zn214  O223    1.778   .     S
Zn214  O230    1.814   .     S
Zn215  O218    1.843   .     S
Zn215  O220    1.826   .     S
Zn215  O222    1.844   .     S
Zn215  O226    1.864   .     S
Zn216  O218    1.846   .     S
Zn216  O221    1.858   .     S
Zn216  O224    1.826   .     S
Zn216  O227    1.841   .     S
Zn217  O218    1.805   .     S
Zn217  O225    1.783   .     S
Zn217  O228    1.777   .     S
Zn217  O229    1.803   .     S
O219   X231    1.270   .     A
O220   X232    1.280   .     A
O221   X233    1.282   .     A
O222   X231    1.278   .     A
O223   X233    1.269   .     A
O224   X232    1.280   .     A
O225   X234    1.269   .     A
O226   X235    1.283   .     A
O227   X234    1.277   .     A
O228   X235    1.269   .     A
O229   X236    1.270   .     A
O230   X236    1.273   .     A
X231   X907    1.504   .     S
X232   X795    1.511   .     S
X233   X361    1.511   .     S
X234   X893    1.501   .     S
X235   X375    1.513   .     S
X236   X543    1.501   .     S
Zn237  O241    1.805   .     S
Zn237  O242    1.781   .     S
Zn237  O246    1.797   .     S
Zn237  O253    1.807   .     S
Zn238  O241    1.835   .     S
Zn238  O243    1.838   .     S
Zn238  O245    1.857   .     S
Zn238  O249    1.835   .     S
Zn239  O241    1.827   .     S
Zn239  O244    1.838   .     S
Zn239  O247    1.818   .     S
Zn239  O250    1.847   .     S
Zn240  O241    1.812   .     S
Zn240  O248    1.792   .     S
Zn240  O251    1.800   .     S
Zn240  O252    1.814   .     S
O242   X254    1.270   .     A
O243   X255    1.282   .     A
O244   X256    1.277   .     A
O245   X254    1.283   .     A
O246   X256    1.271   .     A
O247   X255    1.279   .     A
O248   X257    1.272   .     A
O249   X258    1.277   .     A
O250   X257    1.281   .     A
O251   X258    1.273   .     A
O252   X259    1.273   .     A
O253   X259    1.272   .     A
X254   X417    1.510   .     S
X255   X753    1.511   .     S
X256   X865    1.506   .     S
X257   X403    1.495   .     S
X258   X921    1.504   .     S
X259   X515    1.500   .     S
Zn260  O264    1.819   .     S
Zn260  O265    1.780   .     S
Zn260  O269    1.789   .     S
Zn260  O276    1.807   .     S
Zn261  O264    1.844   .     S
Zn261  O266    1.817   .     S
Zn261  O268    1.848   .     S
Zn261  O272    1.836   .     S
Zn262  O264    1.856   .     S
Zn262  O267    1.846   .     S
Zn262  O270    1.837   .     S
Zn262  O273    1.867   .     S
Zn263  O264    1.812   .     S
Zn263  O271    1.765   .     S
Zn263  O274    1.790   .     S
Zn263  O275    1.799   .     S
O265   X277    1.269   .     A
O266   X278    1.278   .     A
O267   X279    1.279   .     A
O268   X277    1.280   .     A
O269   X279    1.270   .     A
O270   X278    1.281   .     A
O271   X280    1.266   .     A
O272   X281    1.276   .     A
O273   X280    1.283   .     A
O274   X281    1.269   .     A
O275   X282    1.270   .     A
O276   X282    1.272   .     A
X277   X473    1.506   .     S
X278   X781    1.513   .     S
X279   X879    1.506   .     S
X280   X487    1.509   .     S
X281   X963    1.504   .     S
X282   X529    1.499   .     S
Zn283  O287    1.812   .     S
Zn283  O288    1.795   .     S
Zn283  O292    1.791   .     S
Zn283  O299    1.807   .     S
Zn284  O287    1.834   .     S
Zn284  O289    1.831   .     S
Zn284  O291    1.834   .     S
Zn284  O295    1.845   .     S
Zn285  O287    1.828   .     S
Zn285  O290    1.840   .     S
Zn285  O293    1.817   .     S
Zn285  O296    1.824   .     S
Zn286  O287    1.814   .     S
Zn286  O294    1.798   .     S
Zn286  O297    1.792   .     S
Zn286  O298    1.813   .     S
O288   X300    1.272   .     A
O289   X301    1.280   .     A
O290   X302    1.279   .     A
O291   X300    1.277   .     A
O292   X302    1.271   .     A
O293   X301    1.277   .     A
O294   X303    1.272   .     A
O295   X304    1.280   .     A
O296   X303    1.275   .     A
O297   X304    1.272   .     A
O298   X305    1.273   .     A
O299   X305    1.272   .     A
X300   X977    1.502   .     S
X301   X809    1.511   .     S
X302   X431    1.494   .     S
X303   X949    1.501   .     S
X304   X389    1.494   .     S
X305   X557    1.500   .     S
Zn306  O310    1.829   .     S
Zn306  O311    1.817   .     S
Zn306  O315    1.782   .     S
Zn306  O322    1.817   .     S
Zn307  O310    1.844   .     S
Zn307  O312    1.808   .     S
Zn307  O314    1.815   .     S
Zn307  O318    1.834   .     S
Zn308  O310    1.847   .     S
Zn308  O313    1.846   .     S
Zn308  O316    1.809   .     S
Zn308  O319    1.816   .     S
Zn309  O310    1.835   .     S
Zn309  O317    1.821   .     S
Zn309  O320    1.795   .     S
Zn309  O321    1.821   .     S
O311   X323    1.274   .     A
O312   X324    1.274   .     A
O313   X325    1.279   .     A
O314   X323    1.274   .     A
O315   X325    1.268   .     A
O316   X324    1.274   .     A
O317   X326    1.275   .     A
O318   X327    1.277   .     A
O319   X326    1.274   .     A
O320   X327    1.272   .     A
O321   X328    1.275   .     A
O322   X328    1.275   .     A
X323   X445    1.504   .     S
X324   X571    1.495   .     S
X325   X935    1.508   .     S
X326   X459    1.498   .     S
X327   X991    1.504   .     S
X328   X823    1.498   .     S
C329   X330    1.418   .     A
C329   C334    1.410   .     A
C329   H335    1.081   .     S
X330   C331    1.410   .     A
X330   X82     1.437   1_454 A
C331   C332    1.405   .     A
C331   H336    1.080   .     S
C332   X333    1.420   .     A
C332   O338    1.404   .     S
X333   C334    1.406   .     A
C334   H337    1.083   .     S
O338   C339    1.428   .     S
C339   H340    1.112   .     S
C339   H341    1.110   .     S
C339   H342    1.109   .     S
C343   X344    1.400   .     A
C343   C348    1.396   .     A
C343   H349    1.083   .     S
X344   C345    1.413   .     A
C345   C346    1.427   .     A
C345   H350    1.080   .     S
C346   X347    1.416   .     A
C346   O352    1.413   .     S
X347   C348    1.411   .     A
C348   H351    1.083   .     S
O352   C353    1.427   .     S
C353   H354    1.111   .     S
C353   H355    1.111   .     S
C353   H356    1.109   .     S
C357   X358    1.415   .     A
C357   C362    1.409   .     A
C357   H363    1.081   .     S
X358   C359    1.413   .     A
X358   X37     1.441   1_556 A
C359   C360    1.415   .     A
C359   H364    1.076   .     S
C360   X361    1.422   .     A
C360   O366    1.415   .     S
X361   C362    1.408   .     A
C362   H365    1.083   .     S
O366   C367    1.428   .     S
C367   H368    1.110   .     S
C367   H369    1.111   .     S
C367   H370    1.109   .     S
C371   X372    1.417   .     A
C371   C376    1.408   .     A
C371   H377    1.081   .     S
X372   C373    1.413   .     A
X372   X46     1.444   1_545 A
C373   C374    1.419   .     A
C373   H378    1.076   .     S
C374   X375    1.424   .     A
C374   O380    1.415   .     S
X375   C376    1.406   .     A
C376   H379    1.083   .     S
O380   C381    1.428   .     S
C381   H382    1.111   .     S
C381   H383    1.111   .     S
C381   H384    1.109   .     S
C385   X386    1.410   .     A
C385   C390    1.406   .     A
C385   H391    1.082   .     S
X386   C387    1.410   .     A
X386   X55     1.512   1_546 S
C387   C388    1.420   .     A
C387   H392    1.079   .     S
C388   X389    1.414   .     A
C388   O394    1.414   .     S
X389   C390    1.404   .     A
C390   H393    1.083   .     S
O394   C395    1.427   .     S
C395   H396    1.111   .     S
C395   H397    1.111   .     S
C395   H398    1.110   .     S
C399   X400    1.411   .     A
C399   C404    1.405   .     A
C399   H405    1.082   .     S
X400   C401    1.410   .     A
X400   X127    1.514   1_564 S
C401   C402    1.421   .     A
C401   H406    1.079   .     S
C402   X403    1.415   .     A
C402   O408    1.414   .     S
X403   C404    1.404   .     A
C404   H407    1.083   .     S
O408   C409    1.427   .     S
C409   H410    1.111   .     S
C409   H411    1.111   .     S
C409   H412    1.110   .     S
C413   X414    1.417   .     A
C413   C418    1.406   .     A
C413   H419    1.080   .     S
X414   C415    1.413   .     A
X414   X73     1.443   1_455 A
C415   C416    1.420   .     A
C415   H420    1.077   .     S
C416   X417    1.423   .     A
C416   O422    1.415   .     S
X417   C418    1.405   .     A
C418   H421    1.083   .     S
O422   C423    1.428   .     S
C423   H424    1.111   .     S
C423   H425    1.111   .     S
C423   H426    1.109   .     S
C427   X428    1.411   .     A
C427   C432    1.404   .     A
C427   H433    1.081   .     S
X428   C429    1.411   .     A
X428   X91     1.513   1_655 S
C429   C430    1.421   .     A
C429   H434    1.079   .     S
C430   X431    1.415   .     A
C430   O436    1.414   .     S
X431   C432    1.403   .     A
C432   H435    1.083   .     S
O436   C437    1.427   .     S
C437   H438    1.111   .     S
C437   H439    1.111   .     S
C437   H440    1.110   .     S
C441   X442    1.402   .     A
C441   C446    1.402   .     A
C441   H447    1.083   .     S
X442   C443    1.408   .     A
C443   C444    1.424   .     A
C443   H448    1.081   .     S
C444   X445    1.418   .     A
C444   O450    1.413   .     S
X445   C446    1.410   .     A
C446   H449    1.083   .     S
O450   C451    1.427   .     S
C451   H452    1.111   .     S
C451   H453    1.111   .     S
C451   H454    1.109   .     S
C455   X456    1.411   .     A
C455   C460    1.402   .     A
C455   H461    1.082   .     S
X456   C457    1.418   .     A
X456   X109    1.437   1_656 A
C457   C458    1.425   .     A
C457   H462    1.078   .     S
C458   X459    1.412   .     A
C458   O464    1.414   .     S
X459   C460    1.405   .     A
C460   H463    1.084   .     S
O464   C465    1.427   .     S
C465   H466    1.111   .     S
C465   H467    1.111   .     S
C465   H468    1.109   .     S
C469   X470    1.409   .     A
C469   C474    1.395   .     A
C469   H475    1.081   .     S
X470   C471    1.421   .     A
X470   X136    1.439   1_554 A
C471   C472    1.428   .     A
C471   H476    1.077   .     S
C472   X473    1.414   .     A
C472   O478    1.413   .     S
X473   C474    1.408   .     A
C474   H477    1.083   .     S
O478   C479    1.427   .     S
C479   H480    1.111   .     S
C479   H481    1.111   .     S
C479   H482    1.109   .     S
C483   X484    1.419   .     A
C483   C488    1.411   .     A
C483   H489    1.081   .     S
X484   C485    1.410   .     A
X484   X118    1.440   1_565 A
C485   C486    1.407   .     A
C485   H490    1.080   .     S
C486   X487    1.421   .     A
C486   O492    1.404   .     S
X487   C488    1.406   .     A
C488   H491    1.083   .     S
O492   C493    1.428   .     S
C493   H494    1.112   .     S
C493   H495    1.110   .     S
C493   H496    1.109   .     S
C497   X498    1.403   .     A
C497   C502    1.399   .     A
C497   H503    1.083   .     S
X498   C499    1.405   .     A
C499   C500    1.420   .     A
C499   H504    1.080   .     S
C500   X501    1.421   .     A
C500   O506    1.414   .     S
X501   C502    1.408   .     A
C502   H505    1.083   .     S
O506   C507    1.427   .     S
C507   H508    1.111   .     S
C507   H509    1.111   .     S
C507   H510    1.109   .     S
C511   X512    1.402   .     A
C511   C516    1.399   .     A
C511   H517    1.083   .     S
X512   C513    1.406   .     A
C513   C514    1.420   .     A
C513   H518    1.080   .     S
C514   X515    1.420   .     A
C514   O520    1.414   .     S
X515   C516    1.409   .     A
C516   H519    1.083   .     S
O520   C521    1.427   .     S
C521   H522    1.111   .     S
C521   H523    1.111   .     S
C521   H524    1.109   .     S
C525   X526    1.402   .     A
C525   C530    1.398   .     A
C525   H531    1.083   .     S
X526   C527    1.405   .     A
C527   C528    1.420   .     A
C527   H532    1.080   .     S
C528   X529    1.420   .     A
C528   O534    1.414   .     S
X529   C530    1.409   .     A
C530   H533    1.083   .     S
O534   C535    1.427   .     S
C535   H536    1.111   .     S
C535   H537    1.111   .     S
C535   H538    1.109   .     S
C539   X540    1.402   .     A
C539   C544    1.399   .     A
C539   H545    1.083   .     S
X540   C541    1.405   .     A
C541   C542    1.421   .     A
C541   H546    1.080   .     S
C542   X543    1.421   .     A
C542   O548    1.414   .     S
X543   C544    1.409   .     A
C544   H547    1.083   .     S
O548   C549    1.427   .     S
C549   H550    1.111   .     S
C549   H551    1.111   .     S
C549   H552    1.109   .     S
C553   X554    1.401   .     A
C553   C558    1.399   .     A
C553   H559    1.083   .     S
X554   C555    1.405   .     A
C555   C556    1.420   .     A
C555   H560    1.081   .     S
C556   X557    1.420   .     A
C556   O562    1.414   .     S
X557   C558    1.409   .     A
C558   H561    1.083   .     S
O562   C563    1.427   .     S
C563   H564    1.111   .     S
C563   H565    1.111   .     S
C563   H566    1.109   .     S
C567   X568    1.405   .     A
C567   C572    1.399   .     A
C567   H573    1.083   .     S
X568   C569    1.409   .     A
C569   C570    1.422   .     A
C569   H574    1.080   .     S
C570   X571    1.416   .     A
C570   O576    1.414   .     S
X571   C572    1.406   .     A
C572   H575    1.083   .     S
O576   C577    1.427   .     S
C577   H578    1.111   .     S
C577   H579    1.111   .     S
C577   H580    1.109   .     S
C581   X582    1.404   .     A
C581   C586    1.400   .     A
C581   H587    1.083   .     S
X582   C583    1.406   .     A
C583   C584    1.424   .     A
C583   H588    1.081   .     S
C584   X585    1.420   .     A
C584   O590    1.413   .     S
X585   C586    1.408   .     A
C586   H589    1.083   .     S
O590   C591    1.427   .     S
C591   H592    1.111   .     S
C591   H593    1.111   .     S
C591   H594    1.109   .     S
C595   X596    1.417   .     A
C595   C600    1.406   .     A
C595   H601    1.081   .     S
X596   C597    1.416   .     A
X596   X48     1.444   1_545 A
C597   C598    1.422   .     A
C597   H602    1.077   .     S
C598   X599    1.417   .     A
C598   O604    1.415   .     S
X599   C600    1.404   .     A
C600   H603    1.083   .     S
O604   C605    1.427   .     S
C605   H606    1.111   .     S
C605   H607    1.111   .     S
C605   H608    1.109   .     S
C609   X610    1.413   .     A
C609   C614    1.403   .     A
C609   H615    1.082   .     S
X610   C611    1.417   .     A
X610   X59     1.437   1_545 A
C611   C612    1.423   .     A
C611   H616    1.078   .     S
C612   X613    1.413   .     A
C612   O618    1.414   .     S
X613   C614    1.405   .     A
C614   H617    1.083   .     S
O618   C619    1.427   .     S
C619   H620    1.111   .     S
C619   H621    1.111   .     S
C619   H622    1.109   .     S
C623   X624    1.409   .     A
C623   C628    1.405   .     A
C623   H629    1.082   .     S
X624   C625    1.409   .     A
C625   C626    1.422   .     A
C625   H630    1.080   .     S
C626   X627    1.414   .     A
C626   O632    1.414   .     S
X627   C628    1.405   .     A
C628   H631    1.083   .     S
O632   C633    1.427   .     S
C633   H634    1.111   .     S
C633   H635    1.111   .     S
C633   H636    1.109   .     S
C637   X638    1.403   .     A
C637   C642    1.396   .     A
C637   H643    1.082   .     S
X638   C639    1.413   .     A
X638   X93     1.507   1_655 S
C639   C640    1.428   .     A
C639   H644    1.080   .     S
C640   X641    1.416   .     A
C640   O646    1.413   .     S
X641   C642    1.408   .     A
C642   H645    1.083   .     S
O646   C647    1.427   .     S
C647   H648    1.111   .     S
C647   H649    1.111   .     S
C647   H650    1.109   .     S
C651   X652    1.408   .     A
C651   C656    1.408   .     A
C651   H657    1.083   .     S
X652   C653    1.406   .     A
C653   C654    1.418   .     A
C653   H658    1.080   .     S
C654   X655    1.420   .     A
C654   O660    1.415   .     S
X655   C656    1.408   .     A
C656   H659    1.083   .     S
O660   C661    1.427   .     S
C661   H662    1.111   .     S
C661   H663    1.111   .     S
C661   H664    1.109   .     S
C665   X666    1.403   .     A
C665   C670    1.403   .     A
C665   H671    1.083   .     S
X666   C667    1.408   .     A
X666   X113    1.504   1_655 S
C667   C668    1.425   .     A
C667   H672    1.081   .     S
C668   X669    1.420   .     A
C668   O674    1.413   .     S
X669   C670    1.410   .     A
C670   H673    1.083   .     S
O674   C675    1.427   .     S
C675   H676    1.111   .     S
C675   H677    1.111   .     S
C675   H678    1.109   .     S
C679   X680    1.418   .     A
C679   C684    1.407   .     A
C679   H685    1.079   .     S
X680   C681    1.417   .     A
X680   X77     1.448   1_455 A
C681   C682    1.419   .     A
C681   H686    1.075   .     S
C682   X683    1.417   .     A
C682   O688    1.413   .     S
X683   C684    1.405   .     A
C684   H687    1.083   .     S
O688   C689    1.429   .     S
C689   H690    1.110   .     S
C689   H691    1.112   .     S
C689   H692    1.109   .     S
C693   X694    1.406   .     A
C693   C698    1.402   .     A
C693   H699    1.083   .     S
X694   C695    1.408   .     A
X694   X86     1.507   1_455 S
C695   C696    1.422   .     A
C695   H700    1.080   .     S
C696   X697    1.416   .     A
C696   O702    1.413   .     S
X697   C698    1.407   .     A
C698   H701    1.083   .     S
O702   C703    1.428   .     S
C703   H704    1.111   .     S
C703   H705    1.111   .     S
C703   H706    1.108   .     S
C707   X708    1.411   .     A
C707   C712    1.397   .     A
C707   H713    1.080   .     S
X708   C709    1.422   .     A
X708   X120    1.445   1_565 A
C709   C710    1.431   .     A
C709   H714    1.076   .     S
C710   X711    1.415   .     A
C710   O716    1.413   .     S
X711   C712    1.407   .     A
C712   H715    1.083   .     S
O716   C717    1.427   .     S
C717   H718    1.111   .     S
C717   H719    1.111   .     S
C717   H720    1.109   .     S
C721   X722    1.413   .     A
C721   C726    1.403   .     A
C721   H727    1.081   .     S
X722   C723    1.416   .     A
X722   X129    1.438   1_565 A
C723   C724    1.424   .     A
C723   H728    1.078   .     S
C724   X725    1.415   .     A
C724   O730    1.414   .     S
X725   C726    1.405   .     A
C726   H729    1.083   .     S
O730   C731    1.427   .     S
C731   H732    1.111   .     S
C731   H733    1.111   .     S
C731   H734    1.109   .     S
C735   X736    1.403   .     A
C735   C740    1.401   .     A
C735   H741    1.083   .     S
X736   C737    1.406   .     A
C737   C738    1.425   .     A
C737   H742    1.081   .     S
C738   X739    1.422   .     A
C738   O744    1.413   .     S
X739   C740    1.410   .     A
C740   H743    1.083   .     S
O744   C745    1.428   .     S
C745   H746    1.111   .     S
C745   H747    1.111   .     S
C745   H748    1.109   .     S
C749   X750    1.415   .     A
C749   C754    1.405   .     A
C749   H755    1.081   .     S
X750   C751    1.418   .     A
X750   X1      1.446   1_455 A
C751   C752    1.425   .     A
C751   H756    1.076   .     S
C752   X753    1.418   .     A
C752   O758    1.414   .     S
X753   C754    1.406   .     A
C754   H757    1.083   .     S
O758   C759    1.427   .     S
C759   H760    1.111   .     S
C759   H761    1.111   .     S
C759   H762    1.109   .     S
C763   X764    1.414   .     A
C763   C768    1.403   .     A
C763   H769    1.081   .     S
X764   C765    1.417   .     A
X764   X3      1.445   1_445 A
C765   C766    1.426   .     A
C765   H770    1.077   .     S
C766   X767    1.419   .     A
C766   O772    1.414   .     S
X767   C768    1.407   .     A
C768   H771    1.083   .     S
O772   C773    1.427   .     S
C773   H774    1.111   .     S
C773   H775    1.111   .     S
C773   H776    1.109   .     S
C777   X778    1.406   .     A
C777   C782    1.404   .     A
C777   H783    1.083   .     S
X778   C779    1.408   .     A
C779   C780    1.425   .     A
C779   H784    1.080   .     S
C780   X781    1.423   .     A
C780   O786    1.414   .     S
X781   C782    1.410   .     A
C782   H785    1.083   .     S
O786   C787    1.427   .     S
C787   H788    1.111   .     S
C787   H789    1.111   .     S
C787   H790    1.109   .     S
C791   X792    1.413   .     A
C791   C796    1.404   .     A
C791   H797    1.081   .     S
X792   C793    1.418   .     A
X792   X10     1.443   1_445 A
C793   C794    1.425   .     A
C793   H798    1.077   .     S
C794   X795    1.418   .     A
C794   O800    1.414   .     S
X795   C796    1.408   .     A
C796   H799    1.083   .     S
O800   C801    1.428   .     S
C801   H802    1.111   .     S
C801   H803    1.111   .     S
C801   H804    1.109   .     S
C805   X806    1.406   .     A
C805   C810    1.403   .     A
C805   H811    1.083   .     S
X806   C807    1.408   .     A
X806   X14     1.510   1_545 S
C807   C808    1.425   .     A
C807   H812    1.080   .     S
C808   X809    1.422   .     A
C808   O814    1.414   .     S
X809   C810    1.410   .     A
C810   H813    1.083   .     S
O814   C815    1.427   .     S
C815   H816    1.111   .     S
C815   H817    1.111   .     S
C815   H818    1.109   .     S
C819   X820    1.406   .     A
C819   C824    1.404   .     A
C819   H825    1.083   .     S
X820   C821    1.408   .     A
C821   C822    1.423   .     A
C821   H826    1.080   .     S
C822   X823    1.415   .     A
C822   O828    1.413   .     S
X823   C824    1.407   .     A
C824   H827    1.083   .     S
O828   C829    1.428   .     S
C829   H830    1.111   .     S
C829   H831    1.111   .     S
C829   H832    1.107   .     S
C833   X834    1.401   .     A
C833   C838    1.400   .     A
C833   H839    1.083   .     S
X834   C835    1.409   .     A
C835   C836    1.425   .     A
C835   H840    1.081   .     S
C836   X837    1.417   .     A
C836   O842    1.413   .     S
X837   C838    1.410   .     A
C838   H841    1.083   .     S
O842   C843    1.427   .     S
C843   H844    1.111   .     S
C843   H845    1.111   .     S
C843   H846    1.109   .     S
C847   X848    1.406   .     A
C847   C852    1.404   .     A
C847   H853    1.083   .     S
X848   C849    1.403   .     A
C849   C850    1.420   .     A
C849   H854    1.080   .     S
C850   X851    1.424   .     A
C850   O856    1.415   .     S
X851   C852    1.408   .     A
C852   H855    1.083   .     S
O856   C857    1.428   .     S
C857   H858    1.111   .     S
C857   H859    1.111   .     S
C857   H860    1.109   .     S
C861   X862    1.401   .     A
C861   C866    1.399   .     A
C861   H867    1.083   .     S
X862   C863    1.409   .     A
C863   C864    1.427   .     A
C863   H868    1.081   .     S
C864   X865    1.419   .     A
C864   O870    1.413   .     S
X865   C866    1.410   .     A
C866   H869    1.083   .     S
O870   C871    1.427   .     S
C871   H872    1.111   .     S
C871   H873    1.111   .     S
C871   H874    1.109   .     S
C875   X876    1.406   .     A
C875   C880    1.406   .     A
C875   H881    1.083   .     S
X876   C877    1.405   .     A
C877   C878    1.420   .     A
C877   H882    1.080   .     S
C878   X879    1.423   .     A
C878   O884    1.415   .     S
X879   C880    1.408   .     A
C880   H883    1.083   .     S
O884   C885    1.427   .     S
C885   H886    1.111   .     S
C885   H887    1.111   .     S
C885   H888    1.109   .     S
C889   X890    1.406   .     A
C889   C894    1.406   .     A
C889   H895    1.083   .     S
X890   C891    1.405   .     A
C891   C892    1.417   .     A
C891   H896    1.080   .     S
C892   X893    1.420   .     A
C892   O898    1.415   .     S
X893   C894    1.408   .     A
C894   H897    1.083   .     S
O898   C899    1.428   .     S
C899   H900    1.111   .     S
C899   H901    1.111   .     S
C899   H902    1.109   .     S
C903   X904    1.407   .     A
C903   C908    1.406   .     A
C903   H909    1.083   .     S
X904   C905    1.405   .     A
C905   C906    1.419   .     A
C905   H910    1.080   .     S
C906   X907    1.421   .     A
C906   O912    1.414   .     S
X907   C908    1.408   .     A
C908   H911    1.083   .     S
O912   C913    1.428   .     S
C913   H914    1.111   .     S
C913   H915    1.111   .     S
C913   H916    1.108   .     S
C917   X918    1.402   .     A
C917   C922    1.398   .     A
C917   H923    1.083   .     S
X918   C919    1.409   .     A
C919   C920    1.427   .     A
C919   H924    1.081   .     S
C920   X921    1.419   .     A
C920   O926    1.413   .     S
X921   C922    1.409   .     A
C922   H925    1.083   .     S
O926   C927    1.427   .     S
C927   H928    1.111   .     S
C927   H929    1.111   .     S
C927   H930    1.109   .     S
C931   X932    1.408   .     A
C931   C936    1.406   .     A
C931   H937    1.082   .     S
X932   C933    1.406   .     A
C933   C934    1.417   .     A
C933   H938    1.079   .     S
C934   X935    1.424   .     A
C934   O940    1.413   .     S
X935   C936    1.408   .     A
C936   H939    1.083   .     S
O940   C941    1.429   .     S
C941   H942    1.111   .     S
C941   H943    1.110   .     S
C941   H944    1.109   .     S
C945   X946    1.401   .     A
C945   C950    1.398   .     A
C945   H951    1.083   .     S
X946   C947    1.408   .     A
C947   C948    1.423   .     A
C947   H952    1.080   .     S
C948   X949    1.418   .     A
C948   O954    1.413   .     S
X949   C950    1.409   .     A
C950   H953    1.083   .     S
O954   C955    1.427   .     S
C955   H956    1.111   .     S
C955   H957    1.111   .     S
C955   H958    1.109   .     S
C959   X960    1.404   .     A
C959   C964    1.405   .     A
C959   H965    1.083   .     S
X960   C961    1.403   .     A
C961   C962    1.420   .     A
C961   H966    1.080   .     S
C962   X963    1.423   .     A
C962   O968    1.415   .     S
X963   C964    1.409   .     A
C964   H967    1.083   .     S
O968   C969    1.428   .     S
C969   H970    1.111   .     S
C969   H971    1.111   .     S
C969   H972    1.108   .     S
C973   X974    1.401   .     A
C973   C978    1.398   .     A
C973   H979    1.083   .     S
X974   C975    1.409   .     A
C975   C976    1.425   .     A
C975   H980    1.081   .     S
C976   X977    1.417   .     A
C976   O982    1.413   .     S
X977   C978    1.410   .     A
C978   H981    1.083   .     S
O982   C983    1.427   .     S
C983   H984    1.111   .     S
C983   H985    1.111   .     S
C983   H986    1.109   .     S
C987   X988    1.402   .     A
C987   C992    1.395   .     A
C987   H993    1.083   .     S
X988   C989    1.410   .     A
C989   C990    1.427   .     A
C989   H994    1.080   .     S
C990   X991    1.419   .     A
C990   O996    1.413   .     S
X991   C992    1.409   .     A
C992   H995    1.083   .     S
O996   C997    1.427   .     S
C997   H998    1.111   .     S
C997   H999    1.111   .     S
C997   H1000   1.109   .     S
